MODEL 1
REMARK VINA RESULT:      -9.0      0.000      0.000
REMARK  6 active torsions:
REMARK  status: ('A' for Active; 'I' for Inactive)
REMARK    1  A    between atoms: C_1  and  O_6 
REMARK    2  A    between atoms: C_2  and  C_8 
REMARK    3  A    between atoms: C_8  and  C_9 
REMARK    4  A    between atoms: C_9  and  C_10 
REMARK    5  A    between atoms: C_9  and  O_12 
REMARK    6  A    between atoms: C_10  and  N_11 
ROOT
HETATM    1  C   UNK N   1      20.025  14.554   1.048  0.00  0.00     0.156 C 
HETATM    2  C   UNK N   1      20.357  15.868   1.729  0.00  0.00     0.153 C 
HETATM    3  O   UNK N   1      20.320  15.676   3.124  0.00  0.00    -0.377 OA
HETATM    4  C   UNK N   1      20.922  14.407   3.296  0.00  0.00     0.131 C 
HETATM    5  C   UNK N   1      20.939  13.764   1.921  0.00  0.00     0.053 C 
HETATM    6  C   UNK N   1      21.555  12.417   1.553  0.00  0.00     0.088 C 
HETATM    7  C   UNK N   1      22.549  12.563   0.418  0.00  0.00     0.129 C 
HETATM    8  C   UNK N   1      23.326  11.376  -0.075  0.00  0.00     0.110 C 
HETATM    9  O   UNK N   1      22.729  13.651  -0.115  0.00  0.00    -0.298 OA
HETATM   10  C   UNK N   1      24.346  10.967   0.973  0.00  0.00     0.129 C 
HETATM   11  C   UNK N   1      24.831   9.535   0.889  0.00  0.00     0.035 C 
HETATM   12  O   UNK N   1      25.471  11.804   0.952  0.00  0.00    -0.375 OA
HETATM   13  C   UNK N   1      25.999  11.791   2.260  0.00  0.00     0.182 C 
HETATM   14  C   UNK N   1      26.535  10.340   2.646  0.00  0.00     0.153 C 
HETATM   15  C   UNK N   1      25.523   9.250   2.227  0.00  0.00     0.037 C 
HETATM   16  C   UNK N   1      27.116  12.854   2.313  0.00  0.00     0.188 C 
HETATM   17  C   UNK N   1      28.221  12.204   1.504  0.00  0.00     0.185 C 
HETATM   18  C   UNK N   1      28.770  11.121   2.364  0.00  0.00     0.185 C 
HETATM   19  O   UNK N   1      27.867  10.026   2.143  0.00  0.00    -0.373 OA
HETATM   20  O   UNK N   1      27.437  13.129   3.679  0.00  0.00    -0.344 OA
HETATM   21  C   UNK N   1      29.920  11.967   3.062  0.00  0.00     0.185 C 
HETATM   22  C   UNK N   1      30.086  13.196   2.147  0.00  0.00     0.159 C 
HETATM   23  C   UNK N   1      29.500  14.354   2.922  0.00  0.00     0.103 C 
HETATM   24  C   UNK N   1      28.736  13.636   4.013  0.00  0.00     0.168 C 
HETATM   25  C   UNK N   1      28.507  14.545   5.240  0.00  0.00     0.071 C 
HETATM   26  C   UNK N   1      29.286  15.865   5.362  0.00  0.00     0.037 C 
HETATM   27  O   UNK N   1      29.247  13.040   1.053  0.00  0.00    -0.372 OA
HETATM   28  O   UNK N   1      29.570  12.548   4.336  0.00  0.00    -0.344 OA
HETATM   29  C   UNK N   1      28.686  17.015   4.536  0.00  0.00     0.126 C 
HETATM   30  O   UNK N   1      27.294  17.159   4.746  0.00  0.00    -0.376 OA
HETATM   31  C   UNK N   1      26.982  18.517   4.498  0.00  0.00     0.150 C 
HETATM   32  C   UNK N   1      28.245  19.254   4.766  0.00  0.00    -0.058 C 
HETATM   33  C   UNK N   1      29.359  18.316   4.932  0.00  0.00     0.068 C 
HETATM   34  C   UNK N   1      28.281  20.446   5.365  0.00  0.00     0.017 C 
HETATM   35  C   UNK N   1      25.797  18.964   5.383  0.00  0.00     0.039 C 
HETATM   36  C   UNK N   1      24.404  18.616   4.819  0.00  0.00     0.035 C 
HETATM   37  C   UNK N   1      24.348  17.197   4.283  0.00  0.00     0.123 C 
HETATM   38  C   UNK N   1      23.220  15.510   3.057  0.00  0.00     0.153 C 
HETATM   39  O   UNK N   1      23.145  16.840   3.607  0.00  0.00    -0.376 OA
HETATM   40  C   UNK N   1      24.763  16.114   5.276  0.00  0.00     0.040 C 
HETATM   41  C   UNK N   1      25.289  14.946   4.437  0.00  0.00     0.014 C 
HETATM   42  C   UNK N   1      24.609  14.933   3.082  0.00  0.00    -0.057 C 
HETATM   43  C   UNK N   1      25.347  15.094   1.986  0.00  0.00     0.017 C 
HETATM   44  C   UNK N   1      25.052  13.656   5.200  0.00  0.00     0.015 C 
HETATM   45  C   UNK N   1      22.328  14.554   3.854  0.00  0.00     0.069 C 
ENDROOT
BRANCH   2  46
HETATM   46  C   UNK N   1      19.721  17.166   1.252  0.00  0.00     0.068 C 
BRANCH  46  47
HETATM   47  C   UNK N   1      19.602  18.234   2.316  0.00  0.00     0.137 C 
BRANCH  47  48
HETATM   48  C   UNK N   1      20.536  19.369   1.953  0.00  0.00     0.142 C 
BRANCH  48  49
HETATM   49  N   UNK N   1      21.573  19.496   2.962  0.00  0.00    -0.428 N 
HETATM   50  H   UNK N   1      21.615  20.288   3.603  0.00  0.00     0.150 HD
HETATM   51  H   UNK N   1      22.284  18.768   3.031  0.00  0.00     0.150 HD
ENDBRANCH  48  49
ENDBRANCH  47  48
BRANCH  47  52
HETATM   52  O   UNK N   1      18.288  18.707   2.333  0.00  0.00    -0.394 OA
HETATM   53  H   UNK N   1      17.538  18.593   1.729  0.00  0.00     0.210 HD
ENDBRANCH  47  52
ENDBRANCH  46  47
ENDBRANCH   2  46
BRANCH   1  54
HETATM   54  O   UNK N   1      18.697  14.190   1.322  0.00  0.00    -0.388 OA
HETATM   55  C   UNK N   1      18.101  13.992   0.076  0.00  0.00     0.202 C 
ENDBRANCH   1  54
TORSDOF 6
ENDMDL
MODEL 2
REMARK VINA RESULT:      -8.6      6.146     11.648
REMARK  6 active torsions:
REMARK  status: ('A' for Active; 'I' for Inactive)
REMARK    1  A    between atoms: C_1  and  O_6 
REMARK    2  A    between atoms: C_2  and  C_8 
REMARK    3  A    between atoms: C_8  and  C_9 
REMARK    4  A    between atoms: C_9  and  C_10 
REMARK    5  A    between atoms: C_9  and  O_12 
REMARK    6  A    between atoms: C_10  and  N_11 
ROOT
HETATM    1  C   UNK N   1      37.777  11.696   6.841  0.00  0.00     0.156 C 
HETATM    2  C   UNK N   1      37.450  12.847   7.772  0.00  0.00     0.153 C 
HETATM    3  O   UNK N   1      37.750  14.058   7.116  0.00  0.00    -0.377 OA
HETATM    4  C   UNK N   1      37.310  13.831   5.791  0.00  0.00     0.131 C 
HETATM    5  C   UNK N   1      37.110  12.331   5.669  0.00  0.00     0.053 C 
HETATM    6  C   UNK N   1      36.566  11.579   4.457  0.00  0.00     0.088 C 
HETATM    7  C   UNK N   1      35.379  10.717   4.836  0.00  0.00     0.129 C 
HETATM    8  C   UNK N   1      34.641   9.931   3.790  0.00  0.00     0.110 C 
HETATM    9  O   UNK N   1      35.007  10.648   6.001  0.00  0.00    -0.298 OA
HETATM   10  C   UNK N   1      33.864  10.881   2.896  0.00  0.00     0.129 C 
HETATM   11  C   UNK N   1      33.507  10.344   1.526  0.00  0.00     0.035 C 
HETATM   12  O   UNK N   1      32.680  11.316   3.509  0.00  0.00    -0.375 OA
HETATM   13  C   UNK N   1      32.395  12.585   2.964  0.00  0.00     0.182 C 
HETATM   14  C   UNK N   1      32.072  12.480   1.406  0.00  0.00     0.153 C 
HETATM   15  C   UNK N   1      33.092  11.562   0.695  0.00  0.00     0.037 C 
HETATM   16  C   UNK N   1      31.211  13.170   3.762  0.00  0.00     0.188 C 
HETATM   17  C   UNK N   1      30.045  12.332   3.275  0.00  0.00     0.185 C 
HETATM   18  C   UNK N   1      29.761  12.800   1.891  0.00  0.00     0.185 C 
HETATM   19  O   UNK N   1      30.708  12.077   1.090  0.00  0.00    -0.373 OA
HETATM   20  O   UNK N   1      31.112  14.571   3.495  0.00  0.00    -0.344 OA
HETATM   21  C   UNK N   1      28.678  13.903   2.260  0.00  0.00     0.185 C 
HETATM   22  C   UNK N   1      28.240  13.532   3.690  0.00  0.00     0.159 C 
HETATM   23  C   UNK N   1      28.843  14.593   4.582  0.00  0.00     0.103 C 
HETATM   24  C   UNK N   1      29.851  15.235   3.654  0.00  0.00     0.168 C 
HETATM   25  C   UNK N   1      30.207  16.668   4.106  0.00  0.00     0.071 C 
HETATM   26  C   UNK N   1      29.343  17.366   5.168  0.00  0.00     0.037 C 
HETATM   27  O   UNK N   1      28.883  12.357   4.051  0.00  0.00    -0.372 OA
HETATM   28  O   UNK N   1      29.192  15.243   2.409  0.00  0.00    -0.344 OA
HETATM   29  C   UNK N   1      29.677  16.947   6.609  0.00  0.00     0.126 C 
HETATM   30  O   UNK N   1      31.066  17.011   6.879  0.00  0.00    -0.376 OA
HETATM   31  C   UNK N   1      31.201  17.238   8.269  0.00  0.00     0.150 C 
HETATM   32  C   UNK N   1      29.942  17.921   8.669  0.00  0.00    -0.058 C 
HETATM   33  C   UNK N   1      28.967  17.876   7.576  0.00  0.00     0.068 C 
HETATM   34  C   UNK N   1      29.901  18.913   9.560  0.00  0.00     0.017 C 
HETATM   35  C   UNK N   1      32.477  18.061   8.555  0.00  0.00     0.039 C 
HETATM   36  C   UNK N   1      33.775  17.232   8.637  0.00  0.00     0.035 C 
HETATM   37  C   UNK N   1      33.867  16.211   7.517  0.00  0.00     0.123 C 
HETATM   38  C   UNK N   1      34.912  14.316   6.550  0.00  0.00     0.153 C 
HETATM   39  O   UNK N   1      34.959  15.300   7.602  0.00  0.00    -0.376 OA
HETATM   40  C   UNK N   1      33.736  16.785   6.108  0.00  0.00     0.040 C 
HETATM   41  C   UNK N   1      33.182  15.652   5.238  0.00  0.00     0.014 C 
HETATM   42  C   UNK N   1      33.609  14.310   5.798  0.00  0.00    -0.057 C 
HETATM   43  C   UNK N   1      32.678  13.456   6.216  0.00  0.00     0.017 C 
HETATM   44  C   UNK N   1      33.669  15.852   3.815  0.00  0.00     0.015 C 
HETATM   45  C   UNK N   1      36.017  14.583   5.523  0.00  0.00     0.069 C 
ENDROOT
BRANCH   2  46
HETATM   46  C   UNK N   1      37.869  12.800   9.234  0.00  0.00     0.068 C 
BRANCH  46  47
HETATM   47  C   UNK N   1      37.192  13.827  10.114  0.00  0.00     0.137 C 
BRANCH  47  48
HETATM   48  C   UNK N   1      37.094  13.258  11.515  0.00  0.00     0.142 C 
BRANCH  48  49
HETATM   49  N   UNK N   1      36.799  14.321  12.459  0.00  0.00    -0.428 N 
HETATM   50  H   UNK N   1      37.076  15.289  12.293  0.00  0.00     0.150 HD
HETATM   51  H   UNK N   1      36.299  14.092  13.317  0.00  0.00     0.150 HD
ENDBRANCH  48  49
ENDBRANCH  47  48
BRANCH  47  52
HETATM   52  O   UNK N   1      37.976  14.983  10.141  0.00  0.00    -0.394 OA
HETATM   53  H   UNK N   1      38.119  15.666  10.812  0.00  0.00     0.210 HD
ENDBRANCH  47  52
ENDBRANCH  46  47
ENDBRANCH   2  46
BRANCH   1  54
HETATM   54  O   UNK N   1      39.161  11.641   6.609  0.00  0.00    -0.388 OA
HETATM   55  C   UNK N   1      39.475  10.282   6.551  0.00  0.00     0.202 C 
ENDBRANCH   1  54
TORSDOF 6
ENDMDL
MODEL 3
REMARK VINA RESULT:      -8.3      8.021     13.078
REMARK  6 active torsions:
REMARK  status: ('A' for Active; 'I' for Inactive)
REMARK    1  A    between atoms: C_1  and  O_6 
REMARK    2  A    between atoms: C_2  and  C_8 
REMARK    3  A    between atoms: C_8  and  C_9 
REMARK    4  A    between atoms: C_9  and  C_10 
REMARK    5  A    between atoms: C_9  and  O_12 
REMARK    6  A    between atoms: C_10  and  N_11 
ROOT
HETATM    1  C   UNK N   1      38.100  12.781   1.988  0.00  0.00     0.156 C 
HETATM    2  C   UNK N   1      36.728  13.331   1.651  0.00  0.00     0.153 C 
HETATM    3  O   UNK N   1      35.769  12.326   1.887  0.00  0.00    -0.377 OA
HETATM    4  C   UNK N   1      36.216  11.721   3.085  0.00  0.00     0.131 C 
HETATM    5  C   UNK N   1      37.648  12.186   3.278  0.00  0.00     0.053 C 
HETATM    6  C   UNK N   1      38.555  11.876   4.466  0.00  0.00     0.088 C 
HETATM    7  C   UNK N   1      39.094  13.148   5.088  0.00  0.00     0.129 C 
HETATM    8  C   UNK N   1      39.963  13.091   6.312  0.00  0.00     0.110 C 
HETATM    9  O   UNK N   1      38.830  14.240   4.600  0.00  0.00    -0.298 OA
HETATM   10  C   UNK N   1      39.127  12.675   7.509  0.00  0.00     0.129 C 
HETATM   11  C   UNK N   1      39.895  12.072   8.666  0.00  0.00     0.035 C 
HETATM   12  O   UNK N   1      38.370  13.745   8.007  0.00  0.00    -0.375 OA
HETATM   13  C   UNK N   1      37.229  13.176   8.612  0.00  0.00     0.182 C 
HETATM   14  C   UNK N   1      37.633  12.294   9.877  0.00  0.00     0.153 C 
HETATM   15  C   UNK N   1      38.848  11.395   9.555  0.00  0.00     0.037 C 
HETATM   16  C   UNK N   1      36.286  14.336   8.993  0.00  0.00     0.188 C 
HETATM   17  C   UNK N   1      37.005  14.966  10.169  0.00  0.00     0.185 C 
HETATM   18  C   UNK N   1      36.826  14.022  11.306  0.00  0.00     0.185 C 
HETATM   19  O   UNK N   1      37.862  13.050  11.102  0.00  0.00    -0.373 OA
HETATM   20  O   UNK N   1      34.988  13.811   9.278  0.00  0.00    -0.344 OA
HETATM   21  C   UNK N   1      35.501  14.664  11.906  0.00  0.00     0.185 C 
HETATM   22  C   UNK N   1      35.455  16.074  11.285  0.00  0.00     0.159 C 
HETATM   23  C   UNK N   1      34.335  16.028  10.271  0.00  0.00     0.103 C 
HETATM   24  C   UNK N   1      34.102  14.539  10.139  0.00  0.00     0.168 C 
HETATM   25  C   UNK N   1      32.685  14.229   9.610  0.00  0.00     0.071 C 
HETATM   26  C   UNK N   1      31.626  15.343   9.578  0.00  0.00     0.037 C 
HETATM   27  O   UNK N   1      36.607  16.256  10.534  0.00  0.00    -0.372 OA
HETATM   28  O   UNK N   1      34.268  14.063  11.454  0.00  0.00    -0.344 OA
HETATM   29  C   UNK N   1      31.754  16.283   8.368  0.00  0.00     0.126 C 
HETATM   30  O   UNK N   1      31.865  15.575   7.147  0.00  0.00    -0.376 OA
HETATM   31  C   UNK N   1      31.351  16.421   6.136  0.00  0.00     0.150 C 
HETATM   32  C   UNK N   1      30.392  17.316   6.837  0.00  0.00    -0.058 C 
HETATM   33  C   UNK N   1      30.522  17.165   8.289  0.00  0.00     0.068 C 
HETATM   34  C   UNK N   1      29.230  17.699   6.307  0.00  0.00     0.017 C 
HETATM   35  C   UNK N   1      30.712  15.580   5.009  0.00  0.00     0.039 C 
HETATM   36  C   UNK N   1      31.707  15.048   3.957  0.00  0.00     0.035 C 
HETATM   37  C   UNK N   1      32.957  14.475   4.599  0.00  0.00     0.123 C 
HETATM   38  C   UNK N   1      35.172  13.654   4.401  0.00  0.00     0.153 C 
HETATM   39  O   UNK N   1      33.996  14.100   3.698  0.00  0.00    -0.376 OA
HETATM   40  C   UNK N   1      32.709  13.386   5.639  0.00  0.00     0.040 C 
HETATM   41  C   UNK N   1      33.900  13.436   6.601  0.00  0.00     0.014 C 
HETATM   42  C   UNK N   1      35.131  13.946   5.877  0.00  0.00    -0.057 C 
HETATM   43  C   UNK N   1      35.697  15.081   6.281  0.00  0.00     0.017 C 
HETATM   44  C   UNK N   1      34.117  12.049   7.176  0.00  0.00     0.015 C 
HETATM   45  C   UNK N   1      35.338  12.139   4.253  0.00  0.00     0.069 C 
ENDROOT
BRANCH   2  46
HETATM   46  C   UNK N   1      36.509  14.126   0.372  0.00  0.00     0.068 C 
BRANCH  46  47
HETATM   47  C   UNK N   1      35.712  13.401  -0.689  0.00  0.00     0.137 C 
BRANCH  47  48
HETATM   48  C   UNK N   1      35.776  14.213  -1.966  0.00  0.00     0.142 C 
BRANCH  48  49
HETATM   49  N   UNK N   1      34.446  14.348  -2.532  0.00  0.00    -0.428 N 
HETATM   50  H   UNK N   1      34.198  13.950  -3.438  0.00  0.00     0.150 HD
HETATM   51  H   UNK N   1      33.737  14.858  -2.007  0.00  0.00     0.150 HD
ENDBRANCH  48  49
ENDBRANCH  47  48
BRANCH  47  52
HETATM   52  O   UNK N   1      36.293  12.150  -0.910  0.00  0.00    -0.394 OA
HETATM   53  H   UNK N   1      36.808  11.554  -0.346  0.00  0.00     0.210 HD
ENDBRANCH  47  52
ENDBRANCH  46  47
ENDBRANCH   2  46
BRANCH   1  54
HETATM   54  O   UNK N   1      38.440  11.750   1.099  0.00  0.00    -0.388 OA
HETATM   55  C   UNK N   1      39.692  12.096   0.587  0.00  0.00     0.202 C 
ENDBRANCH   1  54
TORSDOF 6
ENDMDL
MODEL 4
REMARK VINA RESULT:      -8.2      2.753      7.685
REMARK  6 active torsions:
REMARK  status: ('A' for Active; 'I' for Inactive)
REMARK    1  A    between atoms: C_1  and  O_6 
REMARK    2  A    between atoms: C_2  and  C_8 
REMARK    3  A    between atoms: C_8  and  C_9 
REMARK    4  A    between atoms: C_9  and  C_10 
REMARK    5  A    between atoms: C_9  and  O_12 
REMARK    6  A    between atoms: C_10  and  N_11 
ROOT
HETATM    1  C   UNK N   1      32.082  15.501   5.111  0.00  0.00     0.156 C 
HETATM    2  C   UNK N   1      31.141  16.604   5.552  0.00  0.00     0.153 C 
HETATM    3  O   UNK N   1      30.803  17.385   4.429  0.00  0.00    -0.377 OA
HETATM    4  C   UNK N   1      30.634  16.427   3.402  0.00  0.00     0.131 C 
HETATM    5  C   UNK N   1      31.258  15.145   3.921  0.00  0.00     0.053 C 
HETATM    6  C   UNK N   1      31.269  13.788   3.222  0.00  0.00     0.088 C 
HETATM    7  C   UNK N   1      30.689  12.709   4.114  0.00  0.00     0.129 C 
HETATM    8  C   UNK N   1      30.542  11.300   3.613  0.00  0.00     0.110 C 
HETATM    9  O   UNK N   1      30.334  12.970   5.256  0.00  0.00    -0.298 OA
HETATM   10  C   UNK N   1      29.443  11.246   2.567  0.00  0.00     0.129 C 
HETATM   11  C   UNK N   1      29.510  10.076   1.608  0.00  0.00     0.035 C 
HETATM   12  O   UNK N   1      28.170  11.247   3.156  0.00  0.00    -0.375 OA
HETATM   13  C   UNK N   1      27.297  11.828   2.212  0.00  0.00     0.182 C 
HETATM   14  C   UNK N   1      27.179  10.920   0.907  0.00  0.00     0.153 C 
HETATM   15  C   UNK N   1      28.572  10.432   0.450  0.00  0.00     0.037 C 
HETATM   16  C   UNK N   1      25.934  12.020   2.909  0.00  0.00     0.188 C 
HETATM   17  C   UNK N   1      25.415  10.599   3.007  0.00  0.00     0.185 C 
HETATM   18  C   UNK N   1      25.018  10.217   1.624  0.00  0.00     0.185 C 
HETATM   19  O   UNK N   1      26.253   9.801   1.022  0.00  0.00    -0.373 OA
HETATM   20  O   UNK N   1      25.132  12.913   2.131  0.00  0.00    -0.344 OA
HETATM   21  C   UNK N   1      23.496  10.668   1.711  0.00  0.00     0.185 C 
HETATM   22  C   UNK N   1      23.226  10.782   3.224  0.00  0.00     0.159 C 
HETATM   23  C   UNK N   1      23.124  12.264   3.501  0.00  0.00     0.103 C 
HETATM   24  C   UNK N   1      23.703  12.853   2.233  0.00  0.00     0.168 C 
HETATM   25  C   UNK N   1      23.225  14.304   2.010  0.00  0.00     0.071 C 
HETATM   26  C   UNK N   1      22.056  14.855   2.843  0.00  0.00     0.037 C 
HETATM   27  O   UNK N   1      24.365  10.372   3.901  0.00  0.00    -0.372 OA
HETATM   28  O   UNK N   1      23.220  11.998   1.224  0.00  0.00    -0.344 OA
HETATM   29  C   UNK N   1      22.467  15.323   4.249  0.00  0.00     0.126 C 
HETATM   30  O   UNK N   1      23.594  16.179   4.223  0.00  0.00    -0.376 OA
HETATM   31  C   UNK N   1      23.500  17.013   5.362  0.00  0.00     0.150 C 
HETATM   32  C   UNK N   1      22.047  17.072   5.674  0.00  0.00    -0.058 C 
HETATM   33  C   UNK N   1      21.314  16.084   4.878  0.00  0.00     0.068 C 
HETATM   34  C   UNK N   1      21.435  18.181   6.091  0.00  0.00     0.017 C 
HETATM   35  C   UNK N   1      24.133  18.392   5.069  0.00  0.00     0.039 C 
HETATM   36  C   UNK N   1      25.665  18.448   5.243  0.00  0.00     0.035 C 
HETATM   37  C   UNK N   1      26.351  17.245   4.621  0.00  0.00     0.123 C 
HETATM   38  C   UNK N   1      28.295  15.923   4.316  0.00  0.00     0.153 C 
HETATM   39  O   UNK N   1      27.751  17.139   4.867  0.00  0.00    -0.376 OA
HETATM   40  C   UNK N   1      26.030  17.009   3.148  0.00  0.00     0.040 C 
HETATM   41  C   UNK N   1      26.209  15.506   2.909  0.00  0.00     0.014 C 
HETATM   42  C   UNK N   1      27.241  14.947   3.870  0.00  0.00    -0.057 C 
HETATM   43  C   UNK N   1      26.870  14.018   4.749  0.00  0.00     0.017 C 
HETATM   44  C   UNK N   1      26.610  15.290   1.462  0.00  0.00     0.015 C 
HETATM   45  C   UNK N   1      29.158  16.235   3.090  0.00  0.00     0.069 C 
ENDROOT
BRANCH   2  46
HETATM   46  C   UNK N   1      31.427  17.404   6.815  0.00  0.00     0.068 C 
BRANCH  46  47
HETATM   47  C   UNK N   1      30.259  17.505   7.771  0.00  0.00     0.137 C 
BRANCH  47  48
HETATM   48  C   UNK N   1      30.641  18.460   8.883  0.00  0.00     0.142 C 
BRANCH  48  49
HETATM   49  N   UNK N   1      29.729  18.304  10.002  0.00  0.00    -0.428 N 
HETATM   50  H   UNK N   1      29.871  17.600  10.726  0.00  0.00     0.150 HD
HETATM   51  H   UNK N   1      28.917  18.918  10.065  0.00  0.00     0.150 HD
ENDBRANCH  48  49
ENDBRANCH  47  48
BRANCH  47  52
HETATM   52  O   UNK N   1      29.158  18.018   7.083  0.00  0.00    -0.394 OA
HETATM   53  H   UNK N   1      28.986  18.870   6.654  0.00  0.00     0.210 HD
ENDBRANCH  47  52
ENDBRANCH  46  47
ENDBRANCH   2  46
BRANCH   1  54
HETATM   54  O   UNK N   1      33.301  16.049   4.680  0.00  0.00    -0.388 OA
HETATM   55  C   UNK N   1      34.284  15.157   5.112  0.00  0.00     0.202 C 
ENDBRANCH   1  54
TORSDOF 6
ENDMDL
MODEL 5
REMARK VINA RESULT:      -8.2      1.607      2.242
REMARK  6 active torsions:
REMARK  status: ('A' for Active; 'I' for Inactive)
REMARK    1  A    between atoms: C_1  and  O_6 
REMARK    2  A    between atoms: C_2  and  C_8 
REMARK    3  A    between atoms: C_8  and  C_9 
REMARK    4  A    between atoms: C_9  and  C_10 
REMARK    5  A    between atoms: C_9  and  O_12 
REMARK    6  A    between atoms: C_10  and  N_11 
ROOT
HETATM    1  C   UNK N   1      21.417  12.255   1.228  0.00  0.00     0.156 C 
HETATM    2  C   UNK N   1      21.219  13.705   1.621  0.00  0.00     0.153 C 
HETATM    3  O   UNK N   1      21.028  13.773   3.016  0.00  0.00    -0.377 OA
HETATM    4  C   UNK N   1      21.957  12.833   3.519  0.00  0.00     0.131 C 
HETATM    5  C   UNK N   1      22.383  11.990   2.331  0.00  0.00     0.053 C 
HETATM    6  C   UNK N   1      23.434  10.882   2.330  0.00  0.00     0.088 C 
HETATM    7  C   UNK N   1      24.496  11.138   1.280  0.00  0.00     0.129 C 
HETATM    8  C   UNK N   1      25.667  10.209   1.135  0.00  0.00     0.110 C 
HETATM    9  O   UNK N   1      24.412  12.106   0.534  0.00  0.00    -0.298 OA
HETATM   10  C   UNK N   1      26.589  10.365   2.332  0.00  0.00     0.129 C 
HETATM   11  C   UNK N   1      27.499   9.189   2.615  0.00  0.00     0.035 C 
HETATM   12  O   UNK N   1      27.391  11.511   2.220  0.00  0.00    -0.375 OA
HETATM   13  C   UNK N   1      27.689  11.916   3.538  0.00  0.00     0.182 C 
HETATM   14  C   UNK N   1      28.580  10.825   4.284  0.00  0.00     0.153 C 
HETATM   15  C   UNK N   1      28.029   9.403   4.036  0.00  0.00     0.037 C 
HETATM   16  C   UNK N   1      28.402  13.281   3.446  0.00  0.00     0.188 C 
HETATM   17  C   UNK N   1      29.765  12.900   2.901  0.00  0.00     0.185 C 
HETATM   18  C   UNK N   1      30.481  12.241   4.027  0.00  0.00     0.185 C 
HETATM   19  O   UNK N   1      30.004  10.887   3.981  0.00  0.00    -0.373 OA
HETATM   20  O   UNK N   1      28.408  13.895   4.737  0.00  0.00    -0.344 OA
HETATM   21  C   UNK N   1      31.192  13.536   4.612  0.00  0.00     0.185 C 
HETATM   22  C   UNK N   1      31.110  14.558   3.461  0.00  0.00     0.159 C 
HETATM   23  C   UNK N   1      30.084  15.576   3.903  0.00  0.00     0.103 C 
HETATM   24  C   UNK N   1      29.420  14.859   5.058  0.00  0.00     0.168 C 
HETATM   25  C   UNK N   1      28.736  15.850   6.025  0.00  0.00     0.071 C 
HETATM   26  C   UNK N   1      29.042  17.353   5.914  0.00  0.00     0.037 C 
HETATM   27  O   UNK N   1      30.539  13.932   2.363  0.00  0.00    -0.372 OA
HETATM   28  O   UNK N   1      30.488  14.191   5.688  0.00  0.00    -0.344 OA
HETATM   29  C   UNK N   1      28.252  18.063   4.801  0.00  0.00     0.126 C 
HETATM   30  O   UNK N   1      26.868  17.771   4.854  0.00  0.00    -0.376 OA
HETATM   31  C   UNK N   1      26.196  18.876   4.281  0.00  0.00     0.150 C 
HETATM   32  C   UNK N   1      27.113  20.029   4.483  0.00  0.00    -0.058 C 
HETATM   33  C   UNK N   1      28.422  19.563   4.951  0.00  0.00     0.068 C 
HETATM   34  C   UNK N   1      26.688  21.253   4.800  0.00  0.00     0.017 C 
HETATM   35  C   UNK N   1      24.809  19.057   4.938  0.00  0.00     0.039 C 
HETATM   36  C   UNK N   1      23.695  18.167   4.350  0.00  0.00     0.035 C 
HETATM   37  C   UNK N   1      24.162  16.737   4.144  0.00  0.00     0.123 C 
HETATM   38  C   UNK N   1      23.812  14.575   3.236  0.00  0.00     0.153 C 
HETATM   39  O   UNK N   1      23.247  15.881   3.464  0.00  0.00    -0.376 OA
HETATM   40  C   UNK N   1      24.732  16.059   5.387  0.00  0.00     0.040 C 
HETATM   41  C   UNK N   1      25.715  14.998   4.880  0.00  0.00     0.014 C 
HETATM   42  C   UNK N   1      25.290  14.509   3.509  0.00  0.00    -0.057 C 
HETATM   43  C   UNK N   1      26.102  14.702   2.472  0.00  0.00     0.017 C 
HETATM   44  C   UNK N   1      25.772  13.868   5.890  0.00  0.00     0.015 C 
HETATM   45  C   UNK N   1      23.146  13.541   4.148  0.00  0.00     0.069 C 
ENDROOT
BRANCH   2  46
HETATM   46  C   UNK N   1      20.295  14.605   0.813  0.00  0.00     0.068 C 
BRANCH  46  47
HETATM   47  C   UNK N   1      20.343  16.065   1.201  0.00  0.00     0.137 C 
BRANCH  47  48
HETATM   48  C   UNK N   1      19.761  16.877   0.063  0.00  0.00     0.142 C 
BRANCH  48  49
HETATM   49  N   UNK N   1      18.406  16.437  -0.215  0.00  0.00    -0.428 N 
HETATM   50  H   UNK N   1      18.142  15.452  -0.206  0.00  0.00     0.150 HD
HETATM   51  H   UNK N   1      17.695  17.136  -0.428  0.00  0.00     0.150 HD
ENDBRANCH  48  49
ENDBRANCH  47  48
BRANCH  47  52
HETATM   52  O   UNK N   1      19.562  16.252   2.345  0.00  0.00    -0.394 OA
HETATM   53  H   UNK N   1      18.846  15.736   2.745  0.00  0.00     0.210 HD
ENDBRANCH  47  52
ENDBRANCH  46  47
ENDBRANCH   2  46
BRANCH   1  54
HETATM   54  O   UNK N   1      20.240  11.526   1.462  0.00  0.00    -0.388 OA
HETATM   55  C   UNK N   1      20.180  10.577   0.440  0.00  0.00     0.202 C 
ENDBRANCH   1  54
TORSDOF 6
ENDMDL
MODEL 6
REMARK VINA RESULT:      -8.1     11.125     15.120
REMARK  6 active torsions:
REMARK  status: ('A' for Active; 'I' for Inactive)
REMARK    1  A    between atoms: C_1  and  O_6 
REMARK    2  A    between atoms: C_2  and  C_8 
REMARK    3  A    between atoms: C_8  and  C_9 
REMARK    4  A    between atoms: C_9  and  C_10 
REMARK    5  A    between atoms: C_9  and  O_12 
REMARK    6  A    between atoms: C_10  and  N_11 
ROOT
HETATM    1  C   UNK N   1      35.810  10.720  15.729  0.00  0.00     0.156 C 
HETATM    2  C   UNK N   1      35.606  12.205  15.502  0.00  0.00     0.153 C 
HETATM    3  O   UNK N   1      36.843  12.782  15.152  0.00  0.00    -0.377 OA
HETATM    4  C   UNK N   1      37.421  11.821  14.290  0.00  0.00     0.131 C 
HETATM    5  C   UNK N   1      36.620  10.547  14.490  0.00  0.00     0.053 C 
HETATM    6  C   UNK N   1      36.795   9.232  13.734  0.00  0.00     0.088 C 
HETATM    7  C   UNK N   1      35.491   8.788  13.103  0.00  0.00     0.129 C 
HETATM    8  C   UNK N   1      35.435   7.548  12.257  0.00  0.00     0.110 C 
HETATM    9  O   UNK N   1      34.464   9.432  13.278  0.00  0.00    -0.298 OA
HETATM   10  C   UNK N   1      36.164   7.795  10.948  0.00  0.00     0.129 C 
HETATM   11  C   UNK N   1      36.653   6.556  10.228  0.00  0.00     0.035 C 
HETATM   12  O   UNK N   1      35.378   8.532  10.050  0.00  0.00    -0.375 OA
HETATM   13  C   UNK N   1      36.278   9.234   9.220  0.00  0.00     0.182 C 
HETATM   14  C   UNK N   1      37.139   8.230   8.331  0.00  0.00     0.153 C 
HETATM   15  C   UNK N   1      37.659   7.050   9.183  0.00  0.00     0.037 C 
HETATM   16  C   UNK N   1      35.443  10.202   8.356  0.00  0.00     0.188 C 
HETATM   17  C   UNK N   1      34.760   9.261   7.382  0.00  0.00     0.185 C 
HETATM   18  C   UNK N   1      35.821   8.820   6.435  0.00  0.00     0.185 C 
HETATM   19  O   UNK N   1      36.468   7.744   7.132  0.00  0.00    -0.373 OA
HETATM   20  O   UNK N   1      36.311  11.171   7.765  0.00  0.00    -0.344 OA
HETATM   21  C   UNK N   1      35.604   9.948   5.336  0.00  0.00     0.185 C 
HETATM   22  C   UNK N   1      34.202  10.508   5.648  0.00  0.00     0.159 C 
HETATM   23  C   UNK N   1      34.441  11.879   6.237  0.00  0.00     0.103 C 
HETATM   24  C   UNK N   1      35.921  11.824   6.550  0.00  0.00     0.168 C 
HETATM   25  C   UNK N   1      36.536  13.237   6.639  0.00  0.00     0.071 C 
HETATM   26  C   UNK N   1      35.737  14.447   6.128  0.00  0.00     0.037 C 
HETATM   27  O   UNK N   1      33.658   9.765   6.686  0.00  0.00    -0.372 OA
HETATM   28  O   UNK N   1      36.458  11.104   5.465  0.00  0.00    -0.344 OA
HETATM   29  C   UNK N   1      34.687  14.960   7.128  0.00  0.00     0.126 C 
HETATM   30  O   UNK N   1      35.225  15.145   8.424  0.00  0.00    -0.376 OA
HETATM   31  C   UNK N   1      34.449  16.151   9.048  0.00  0.00     0.150 C 
HETATM   32  C   UNK N   1      33.903  16.963   7.927  0.00  0.00    -0.058 C 
HETATM   33  C   UNK N   1      34.151  16.296   6.646  0.00  0.00     0.068 C 
HETATM   34  C   UNK N   1      33.787  18.291   7.977  0.00  0.00     0.017 C 
HETATM   35  C   UNK N   1      35.318  16.958  10.039  0.00  0.00     0.039 C 
HETATM   36  C   UNK N   1      35.473  16.315  11.432  0.00  0.00     0.035 C 
HETATM   37  C   UNK N   1      35.759  14.827  11.341  0.00  0.00     0.123 C 
HETATM   38  C   UNK N   1      35.957  12.709  12.386  0.00  0.00     0.153 C 
HETATM   39  O   UNK N   1      35.767  14.124  12.580  0.00  0.00    -0.376 OA
HETATM   40  C   UNK N   1      36.968  14.453  10.487  0.00  0.00     0.040 C 
HETATM   41  C   UNK N   1      36.702  13.037   9.969  0.00  0.00     0.014 C 
HETATM   42  C   UNK N   1      35.825  12.282  10.949  0.00  0.00    -0.057 C 
HETATM   43  C   UNK N   1      34.625  11.862  10.554  0.00  0.00     0.017 C 
HETATM   44  C   UNK N   1      38.033  12.342   9.751  0.00  0.00     0.015 C 
HETATM   45  C   UNK N   1      37.356  12.291  12.846  0.00  0.00     0.069 C 
ENDROOT
BRANCH   2  46
HETATM   46  C   UNK N   1      34.778  13.028  16.479  0.00  0.00     0.068 C 
BRANCH  46  47
HETATM   47  C   UNK N   1      35.483  13.358  17.776  0.00  0.00     0.137 C 
BRANCH  47  48
HETATM   48  C   UNK N   1      35.099  14.767  18.177  0.00  0.00     0.142 C 
BRANCH  48  49
HETATM   49  N   UNK N   1      36.286  15.601  18.244  0.00  0.00    -0.428 N 
HETATM   50  H   UNK N   1      37.197  15.229  18.512  0.00  0.00     0.150 HD
HETATM   51  H   UNK N   1      36.205  16.591  18.017  0.00  0.00     0.150 HD
ENDBRANCH  48  49
ENDBRANCH  47  48
BRANCH  47  52
HETATM   52  O   UNK N   1      35.052  12.466  18.761  0.00  0.00    -0.394 OA
HETATM   53  H   UNK N   1      35.026  11.498  18.807  0.00  0.00     0.210 HD
ENDBRANCH  47  52
ENDBRANCH  46  47
ENDBRANCH   2  46
BRANCH   1  54
HETATM   54  O   UNK N   1      36.630  10.511  16.849  0.00  0.00    -0.388 OA
HETATM   55  C   UNK N   1      36.117   9.376  17.480  0.00  0.00     0.202 C 
ENDBRANCH   1  54
TORSDOF 6
ENDMDL
MODEL 7
REMARK VINA RESULT:      -8.1      2.019      3.668
REMARK  6 active torsions:
REMARK  status: ('A' for Active; 'I' for Inactive)
REMARK    1  A    between atoms: C_1  and  O_6 
REMARK    2  A    between atoms: C_2  and  C_8 
REMARK    3  A    between atoms: C_8  and  C_9 
REMARK    4  A    between atoms: C_9  and  C_10 
REMARK    5  A    between atoms: C_9  and  O_12 
REMARK    6  A    between atoms: C_10  and  N_11 
ROOT
HETATM    1  C   UNK N   1      22.547  16.437   3.300  0.00  0.00     0.156 C 
HETATM    2  C   UNK N   1      23.610  17.314   3.932  0.00  0.00     0.153 C 
HETATM    3  O   UNK N   1      23.925  16.796   5.204  0.00  0.00    -0.377 OA
HETATM    4  C   UNK N   1      23.933  15.398   4.996  0.00  0.00     0.131 C 
HETATM    5  C   UNK N   1      23.244  15.171   3.662  0.00  0.00     0.053 C 
HETATM    6  C   UNK N   1      23.065  13.835   2.945  0.00  0.00     0.088 C 
HETATM    7  C   UNK N   1      23.619  13.894   1.535  0.00  0.00     0.129 C 
HETATM    8  C   UNK N   1      23.607  12.674   0.658  0.00  0.00     0.110 C 
HETATM    9  O   UNK N   1      24.081  14.937   1.092  0.00  0.00    -0.298 OA
HETATM   10  C   UNK N   1      24.614  11.665   1.180  0.00  0.00     0.129 C 
HETATM   11  C   UNK N   1      24.375  10.229   0.765  0.00  0.00     0.035 C 
HETATM   12  O   UNK N   1      25.924  12.006   0.812  0.00  0.00    -0.375 OA
HETATM   13  C   UNK N   1      26.768  11.463   1.804  0.00  0.00     0.182 C 
HETATM   14  C   UNK N   1      26.708   9.870   1.797  0.00  0.00     0.153 C 
HETATM   15  C   UNK N   1      25.248   9.376   1.692  0.00  0.00     0.037 C 
HETATM   16  C   UNK N   1      28.192  11.990   1.532  0.00  0.00     0.188 C 
HETATM   17  C   UNK N   1      28.595  11.213   0.294  0.00  0.00     0.185 C 
HETATM   18  C   UNK N   1      28.851   9.821   0.756  0.00  0.00     0.185 C 
HETATM   19  O   UNK N   1      27.543   9.231   0.788  0.00  0.00    -0.373 OA
HETATM   20  O   UNK N   1      29.004  11.766   2.687  0.00  0.00    -0.344 OA
HETATM   21  C   UNK N   1      30.408   9.976   1.038  0.00  0.00     0.185 C 
HETATM   22  C   UNK N   1      30.802  11.250   0.265  0.00  0.00     0.159 C 
HETATM   23  C   UNK N   1      31.050  12.300   1.323  0.00  0.00     0.103 C 
HETATM   24  C   UNK N   1      30.426  11.657   2.543  0.00  0.00     0.168 C 
HETATM   25  C   UNK N   1      31.007  12.238   3.850  0.00  0.00     0.071 C 
HETATM   26  C   UNK N   1      32.279  13.100   3.799  0.00  0.00     0.037 C 
HETATM   27  O   UNK N   1      29.688  11.700  -0.429  0.00  0.00    -0.372 OA
HETATM   28  O   UNK N   1      30.757  10.295   2.401  0.00  0.00    -0.344 OA
HETATM   29  C   UNK N   1      32.018  14.561   3.395  0.00  0.00     0.126 C 
HETATM   30  O   UNK N   1      30.969  15.146   4.143  0.00  0.00    -0.376 OA
HETATM   31  C   UNK N   1      31.220  16.539   4.179  0.00  0.00     0.150 C 
HETATM   32  C   UNK N   1      32.692  16.665   4.012  0.00  0.00    -0.058 C 
HETATM   33  C   UNK N   1      33.276  15.375   3.634  0.00  0.00     0.068 C 
HETATM   34  C   UNK N   1      33.427  17.563   4.672  0.00  0.00     0.017 C 
HETATM   35  C   UNK N   1      30.685  17.145   5.496  0.00  0.00     0.039 C 
HETATM   36  C   UNK N   1      29.182  17.490   5.483  0.00  0.00     0.035 C 
HETATM   37  C   UNK N   1      28.351  16.380   4.865  0.00  0.00     0.123 C 
HETATM   38  C   UNK N   1      26.285  15.602   4.001  0.00  0.00     0.153 C 
HETATM   39  O   UNK N   1      26.970  16.677   4.674  0.00  0.00    -0.376 OA
HETATM   40  C   UNK N   1      28.536  15.004   5.500  0.00  0.00     0.040 C 
HETATM   41  C   UNK N   1      28.213  13.983   4.404  0.00  0.00     0.014 C 
HETATM   42  C   UNK N   1      27.215  14.570   3.425  0.00  0.00    -0.057 C 
HETATM   43  C   UNK N   1      27.572  14.726   2.152  0.00  0.00     0.017 C 
HETATM   44  C   UNK N   1      27.685  12.721   5.060  0.00  0.00     0.015 C 
HETATM   45  C   UNK N   1      25.358  14.870   4.977  0.00  0.00     0.069 C 
ENDROOT
BRANCH   2  46
HETATM   46  C   UNK N   1      23.491  18.831   3.879  0.00  0.00     0.068 C 
BRANCH  46  47
HETATM   47  C   UNK N   1      24.781  19.551   3.558  0.00  0.00     0.137 C 
BRANCH  47  48
HETATM   48  C   UNK N   1      25.297  20.187   4.831  0.00  0.00     0.142 C 
BRANCH  48  49
HETATM   49  N   UNK N   1      25.901  19.176   5.679  0.00  0.00    -0.428 N 
HETATM   50  H   UNK N   1      26.451  18.405   5.299  0.00  0.00     0.150 HD
HETATM   51  H   UNK N   1      25.772  19.237   6.688  0.00  0.00     0.150 HD
ENDBRANCH  48  49
ENDBRANCH  47  48
BRANCH  47  52
HETATM   52  O   UNK N   1      25.714  18.618   3.099  0.00  0.00    -0.394 OA
HETATM   53  H   UNK N   1      25.743  17.649   3.121  0.00  0.00     0.210 HD
ENDBRANCH  47  52
ENDBRANCH  46  47
ENDBRANCH   2  46
BRANCH   1  54
HETATM   54  O   UNK N   1      21.350  16.529   4.027  0.00  0.00    -0.388 OA
HETATM   55  C   UNK N   1      20.344  16.684   3.071  0.00  0.00     0.202 C 
ENDBRANCH   1  54
TORSDOF 6
ENDMDL
MODEL 8
REMARK VINA RESULT:      -8.0     12.988     17.180
REMARK  6 active torsions:
REMARK  status: ('A' for Active; 'I' for Inactive)
REMARK    1  A    between atoms: C_1  and  O_6 
REMARK    2  A    between atoms: C_2  and  C_8 
REMARK    3  A    between atoms: C_8  and  C_9 
REMARK    4  A    between atoms: C_9  and  C_10 
REMARK    5  A    between atoms: C_9  and  O_12 
REMARK    6  A    between atoms: C_10  and  N_11 
ROOT
HETATM    1  C   UNK N   1      35.741  24.917  -6.780  0.00  0.00     0.156 C 
HETATM    2  C   UNK N   1      34.996  23.712  -7.320  0.00  0.00     0.153 C 
HETATM    3  O   UNK N   1      34.742  22.825  -6.255  0.00  0.00    -0.377 OA
HETATM    4  C   UNK N   1      34.391  23.684  -5.189  0.00  0.00     0.131 C 
HETATM    5  C   UNK N   1      34.830  25.074  -5.611  0.00  0.00     0.053 C 
HETATM    6  C   UNK N   1      34.607  26.374  -4.841  0.00  0.00     0.088 C 
HETATM    7  C   UNK N   1      33.901  27.403  -5.700  0.00  0.00     0.129 C 
HETATM    8  C   UNK N   1      33.522  28.741  -5.132  0.00  0.00     0.110 C 
HETATM    9  O   UNK N   1      33.632  27.159  -6.869  0.00  0.00    -0.298 OA
HETATM   10  C   UNK N   1      32.391  28.568  -4.135  0.00  0.00     0.129 C 
HETATM   11  C   UNK N   1      32.243  29.675  -3.114  0.00  0.00     0.035 C 
HETATM   12  O   UNK N   1      31.155  28.409  -4.779  0.00  0.00    -0.375 OA
HETATM   13  C   UNK N   1      30.348  27.648  -3.907  0.00  0.00     0.182 C 
HETATM   14  C   UNK N   1      30.046  28.449  -2.563  0.00  0.00     0.153 C 
HETATM   15  C   UNK N   1      31.330  29.114  -2.018  0.00  0.00     0.037 C 
HETATM   16  C   UNK N   1      29.056  27.293  -4.672  0.00  0.00     0.188 C 
HETATM   17  C   UNK N   1      28.330  28.623  -4.718  0.00  0.00     0.185 C 
HETATM   18  C   UNK N   1      27.829  28.859  -3.337  0.00  0.00     0.185 C 
HETATM   19  O   UNK N   1      28.963  29.420  -2.659  0.00  0.00    -0.373 OA
HETATM   20  O   UNK N   1      28.373  26.246  -3.980  0.00  0.00    -0.344 OA
HETATM   21  C   UNK N   1      26.398  28.190  -3.514  0.00  0.00     0.185 C 
HETATM   22  C   UNK N   1      26.204  28.125  -5.042  0.00  0.00     0.159 C 
HETATM   23  C   UNK N   1      26.340  26.663  -5.401  0.00  0.00     0.103 C 
HETATM   24  C   UNK N   1      26.957  26.095  -4.142  0.00  0.00     0.168 C 
HETATM   25  C   UNK N   1      26.699  24.578  -4.017  0.00  0.00     0.071 C 
HETATM   26  C   UNK N   1      25.659  23.907  -4.929  0.00  0.00     0.037 C 
HETATM   27  O   UNK N   1      27.290  28.742  -5.645  0.00  0.00    -0.372 OA
HETATM   28  O   UNK N   1      26.312  26.807  -3.111  0.00  0.00    -0.344 OA
HETATM   29  C   UNK N   1      26.187  23.590  -6.338  0.00  0.00     0.126 C 
HETATM   30  O   UNK N   1      27.431  22.914  -6.307  0.00  0.00    -0.376 OA
HETATM   31  C   UNK N   1      27.506  22.144  -7.491  0.00  0.00     0.150 C 
HETATM   32  C   UNK N   1      26.092  21.885  -7.870  0.00  0.00    -0.058 C 
HETATM   33  C   UNK N   1      25.188  22.702  -7.056  0.00  0.00     0.068 C 
HETATM   34  C   UNK N   1      25.672  20.722  -8.371  0.00  0.00     0.017 C 
HETATM   35  C   UNK N   1      28.332  20.862  -7.243  0.00  0.00     0.039 C 
HETATM   36  C   UNK N   1      29.860  21.047  -7.352  0.00  0.00     0.035 C 
HETATM   37  C   UNK N   1      30.330  22.301  -6.638  0.00  0.00     0.123 C 
HETATM   38  C   UNK N   1      32.037  23.882  -6.177  0.00  0.00     0.153 C 
HETATM   39  O   UNK N   1      31.705  22.632  -6.815  0.00  0.00    -0.376 OA
HETATM   40  C   UNK N   1      29.924  22.400  -5.170  0.00  0.00     0.040 C 
HETATM   41  C   UNK N   1      29.863  23.896  -4.845  0.00  0.00     0.014 C 
HETATM   42  C   UNK N   1      30.830  24.659  -5.728  0.00  0.00    -0.057 C 
HETATM   43  C   UNK N   1      30.353  25.572  -6.572  0.00  0.00     0.017 C 
HETATM   44  C   UNK N   1      30.173  24.084  -3.372  0.00  0.00     0.015 C 
HETATM   45  C   UNK N   1      32.893  23.633  -4.933  0.00  0.00     0.069 C 
ENDROOT
BRANCH   2  46
HETATM   46  C   UNK N   1      35.446  23.041  -8.609  0.00  0.00     0.068 C 
BRANCH  46  47
HETATM   47  C   UNK N   1      34.318  22.549  -9.488  0.00  0.00     0.137 C 
BRANCH  47  48
HETATM   48  C   UNK N   1      34.216  21.046  -9.329  0.00  0.00     0.142 C 
BRANCH  48  49
HETATM   49  N   UNK N   1      33.418  20.726  -8.159  0.00  0.00    -0.428 N 
HETATM   50  H   UNK N   1      32.862  21.429  -7.671  0.00  0.00     0.150 HD
HETATM   51  H   UNK N   1      33.413  19.767  -7.813  0.00  0.00     0.150 HD
ENDBRANCH  48  49
ENDBRANCH  47  48
BRANCH  47  52
HETATM   52  O   UNK N   1      33.126  23.138  -9.060  0.00  0.00    -0.394 OA
HETATM   53  H   UNK N   1      32.252  22.778  -8.845  0.00  0.00     0.210 HD
ENDBRANCH  47  52
ENDBRANCH  46  47
ENDBRANCH   2  46
BRANCH   1  54
HETATM   54  O   UNK N   1      37.012  24.535  -6.325  0.00  0.00    -0.388 OA
HETATM   55  C   UNK N   1      37.856  25.604  -6.634  0.00  0.00     0.202 C 
ENDBRANCH   1  54
TORSDOF 6
ENDMDL
MODEL 9
REMARK VINA RESULT:      -8.0      9.267     13.868
REMARK  6 active torsions:
REMARK  status: ('A' for Active; 'I' for Inactive)
REMARK    1  A    between atoms: C_1  and  O_6 
REMARK    2  A    between atoms: C_2  and  C_8 
REMARK    3  A    between atoms: C_8  and  C_9 
REMARK    4  A    between atoms: C_9  and  C_10 
REMARK    5  A    between atoms: C_9  and  O_12 
REMARK    6  A    between atoms: C_10  and  N_11 
ROOT
HETATM    1  C   UNK N   1      36.311   9.664  13.887  0.00  0.00     0.156 C 
HETATM    2  C   UNK N   1      36.221  11.176  13.956  0.00  0.00     0.153 C 
HETATM    3  O   UNK N   1      37.364  11.725  13.343  0.00  0.00    -0.377 OA
HETATM    4  C   UNK N   1      37.562  10.895  12.215  0.00  0.00     0.131 C 
HETATM    5  C   UNK N   1      36.713   9.660  12.452  0.00  0.00     0.053 C 
HETATM    6  C   UNK N   1      36.517   8.491  11.490  0.00  0.00     0.088 C 
HETATM    7  C   UNK N   1      35.046   8.249  11.217  0.00  0.00     0.129 C 
HETATM    8  C   UNK N   1      34.613   7.184  10.250  0.00  0.00     0.110 C 
HETATM    9  O   UNK N   1      34.190   8.917  11.785  0.00  0.00    -0.298 OA
HETATM   10  C   UNK N   1      34.965   7.610   8.836  0.00  0.00     0.129 C 
HETATM   11  C   UNK N   1      35.087   6.489   7.827  0.00  0.00     0.035 C 
HETATM   12  O   UNK N   1      34.046   8.543   8.334  0.00  0.00    -0.375 OA
HETATM   13  C   UNK N   1      34.747   9.321   7.389  0.00  0.00     0.182 C 
HETATM   14  C   UNK N   1      35.203   8.435   6.144  0.00  0.00     0.153 C 
HETATM   15  C   UNK N   1      35.805   7.093   6.616  0.00  0.00     0.037 C 
HETATM   16  C   UNK N   1      33.817  10.477   6.967  0.00  0.00     0.188 C 
HETATM   17  C   UNK N   1      32.785   9.768   6.112  0.00  0.00     0.185 C 
HETATM   18  C   UNK N   1      33.478   9.434   4.837  0.00  0.00     0.185 C 
HETATM   19  O   UNK N   1      34.170   8.213   5.141  0.00  0.00    -0.373 OA
HETATM   20  O   UNK N   1      34.586  11.478   6.297  0.00  0.00    -0.344 OA
HETATM   21  C   UNK N   1      33.088  10.749   4.034  0.00  0.00     0.185 C 
HETATM   22  C   UNK N   1      31.904  11.334   4.829  0.00  0.00     0.159 C 
HETATM   23  C   UNK N   1      32.453  12.562   5.519  0.00  0.00     0.103 C 
HETATM   24  C   UNK N   1      33.945  12.358   5.364  0.00  0.00     0.168 C 
HETATM   25  C   UNK N   1      34.716  13.691   5.476  0.00  0.00     0.071 C 
HETATM   26  C   UNK N   1      33.946  15.020   5.414  0.00  0.00     0.037 C 
HETATM   27  O   UNK N   1      31.596  10.457   5.858  0.00  0.00    -0.372 OA
HETATM   28  O   UNK N   1      34.068  11.807   4.074  0.00  0.00    -0.344 OA
HETATM   29  C   UNK N   1      33.287  15.416   6.745  0.00  0.00     0.126 C 
HETATM   30  O   UNK N   1      34.187  15.335   7.835  0.00  0.00    -0.376 OA
HETATM   31  C   UNK N   1      33.739  16.263   8.805  0.00  0.00     0.150 C 
HETATM   32  C   UNK N   1      32.994  17.292   8.032  0.00  0.00    -0.058 C 
HETATM   33  C   UNK N   1      32.792  16.847   6.651  0.00  0.00     0.068 C 
HETATM   34  C   UNK N   1      33.047  18.596   8.313  0.00  0.00     0.017 C 
HETATM   35  C   UNK N   1      34.938  16.826   9.601  0.00  0.00     0.039 C 
HETATM   36  C   UNK N   1      35.407  15.939  10.773  0.00  0.00     0.035 C 
HETATM   37  C   UNK N   1      35.486  14.475  10.379  0.00  0.00     0.123 C 
HETATM   38  C   UNK N   1      35.730  12.197  10.988  0.00  0.00     0.153 C 
HETATM   39  O   UNK N   1      35.764  13.565  11.440  0.00  0.00    -0.376 OA
HETATM   40  C   UNK N   1      36.354  14.180   9.158  0.00  0.00     0.040 C 
HETATM   41  C   UNK N   1      35.793  12.897   8.537  0.00  0.00     0.014 C 
HETATM   42  C   UNK N   1      35.150  12.039   9.609  0.00  0.00    -0.057 C 
HETATM   43  C   UNK N   1      33.848  11.773   9.531  0.00  0.00     0.017 C 
HETATM   44  C   UNK N   1      36.921  12.167   7.831  0.00  0.00     0.015 C 
HETATM   45  C   UNK N   1      37.146  11.616  10.944  0.00  0.00     0.069 C 
ENDROOT
BRANCH   2  46
HETATM   46  C   UNK N   1      35.802  11.866  15.246  0.00  0.00     0.068 C 
BRANCH  46  47
HETATM   47  C   UNK N   1      35.357  13.301  15.075  0.00  0.00     0.137 C 
BRANCH  47  48
HETATM   48  C   UNK N   1      36.585  14.186  15.135  0.00  0.00     0.142 C 
BRANCH  48  49
HETATM   49  N   UNK N   1      36.813  14.802  13.840  0.00  0.00    -0.428 N 
HETATM   50  H   UNK N   1      36.731  15.809  13.695  0.00  0.00     0.150 HD
HETATM   51  H   UNK N   1      37.062  14.209  13.049  0.00  0.00     0.150 HD
ENDBRANCH  48  49
ENDBRANCH  47  48
BRANCH  47  52
HETATM   52  O   UNK N   1      34.753  13.438  13.823  0.00  0.00    -0.394 OA
HETATM   53  H   UNK N   1      35.102  13.632  12.940  0.00  0.00     0.210 HD
ENDBRANCH  47  52
ENDBRANCH  46  47
ENDBRANCH   2  46
BRANCH   1  54
HETATM   54  O   UNK N   1      37.386   9.208  14.668  0.00  0.00    -0.388 OA
HETATM   55  C   UNK N   1      36.862   8.189  15.465  0.00  0.00     0.202 C 
ENDBRANCH   1  54
TORSDOF 6
ENDMDL
