MODEL 1
REMARK VINA RESULT:      -5.4      0.000      0.000
REMARK  0 active torsions:
REMARK  status: ('A' for Active; 'I' for Inactive)
ROOT
HETATM    1  O   UNK N   1      31.978  16.985   6.367  0.00  0.00    -0.247 OA
HETATM    2  C   UNK N   1      32.781  17.064   7.279  0.00  0.00     0.328 A 
HETATM    3  N   UNK N   1      33.645  18.145   7.346  0.00  0.00    -0.273 N 
HETATM    4  C   UNK N   1      34.560  18.253   8.370  0.00  0.00     0.280 A 
HETATM    5  O   UNK N   1      35.320  19.203   8.429  0.00  0.00    -0.265 OA
HETATM    6  C   UNK N   1      34.586  17.247   9.325  0.00  0.00     0.149 A 
HETATM    7  C   UNK N   1      33.731  16.199   9.238  0.00  0.00     0.146 A 
HETATM    8  N   UNK N   1      32.826  16.077   8.241  0.00  0.00    -0.292 N 
HETATM    9  N   UNK N   1      33.924  15.348  10.256  0.00  0.00    -0.292 N 
HETATM   10  C   UNK N   1      34.938  15.936  10.959  0.00  0.00     0.326 A 
HETATM   11  O   UNK N   1      35.410  15.460  11.974  0.00  0.00    -0.247 OA
HETATM   12  N   UNK N   1      35.370  17.114  10.408  0.00  0.00    -0.301 N 
HETATM   13  H   UNK N   1      33.604  18.845   6.655  0.00  0.00     0.173 HD
HETATM   14  H   UNK N   1      32.217  15.304   8.203  0.00  0.00     0.172 HD
HETATM   15  H   UNK N   1      33.452  14.506  10.449  0.00  0.00     0.172 HD
HETATM   16  H   UNK N   1      36.081  17.715  10.728  0.00  0.00     0.171 HD
ENDROOT
TORSDOF 0
ENDMDL
MODEL 2
REMARK VINA RESULT:      -5.4     11.332     12.271
REMARK  0 active torsions:
REMARK  status: ('A' for Active; 'I' for Inactive)
ROOT
HETATM    1  O   UNK N   1      20.499  13.269   7.801  0.00  0.00    -0.247 OA
HETATM    2  C   UNK N   1      21.374  13.082   8.627  0.00  0.00     0.328 A 
HETATM    3  N   UNK N   1      22.698  13.311   8.293  0.00  0.00    -0.273 N 
HETATM    4  C   UNK N   1      23.702  13.105   9.214  0.00  0.00     0.280 A 
HETATM    5  O   UNK N   1      24.867  13.307   8.920  0.00  0.00    -0.265 OA
HETATM    6  C   UNK N   1      23.342  12.664  10.478  0.00  0.00     0.149 A 
HETATM    7  C   UNK N   1      22.040  12.447  10.782  0.00  0.00     0.146 A 
HETATM    8  N   UNK N   1      21.041  12.643   9.892  0.00  0.00    -0.292 N 
HETATM    9  N   UNK N   1      21.913  12.026  12.049  0.00  0.00    -0.292 N 
HETATM   10  C   UNK N   1      23.207  12.001  12.492  0.00  0.00     0.326 A 
HETATM   11  O   UNK N   1      23.519  11.665  13.619  0.00  0.00    -0.247 OA
HETATM   12  N   UNK N   1      24.115  12.390  11.543  0.00  0.00    -0.301 N 
HETATM   13  H   UNK N   1      22.926  13.625   7.388  0.00  0.00     0.173 HD
HETATM   14  H   UNK N   1      20.102  12.477  10.139  0.00  0.00     0.172 HD
HETATM   15  H   UNK N   1      21.093  11.792  12.539  0.00  0.00     0.172 HD
HETATM   16  H   UNK N   1      25.094  12.454  11.623  0.00  0.00     0.171 HD
ENDROOT
TORSDOF 0
ENDMDL
MODEL 3
REMARK VINA RESULT:      -5.3      2.143      2.713
REMARK  0 active torsions:
REMARK  status: ('A' for Active; 'I' for Inactive)
ROOT
HETATM    1  O   UNK N   1      32.227  15.249   8.720  0.00  0.00    -0.247 OA
HETATM    2  C   UNK N   1      33.159  15.345   9.498  0.00  0.00     0.328 A 
HETATM    3  N   UNK N   1      33.960  16.475   9.478  0.00  0.00    -0.273 N 
HETATM    4  C   UNK N   1      35.019  16.602  10.351  0.00  0.00     0.280 A 
HETATM    5  O   UNK N   1      35.723  17.595  10.334  0.00  0.00    -0.265 OA
HETATM    6  C   UNK N   1      35.253  15.566  11.242  0.00  0.00     0.149 A 
HETATM    7  C   UNK N   1      34.456  14.470  11.242  0.00  0.00     0.146 A 
HETATM    8  N   UNK N   1      33.412  14.328  10.394  0.00  0.00    -0.292 N 
HETATM    9  N   UNK N   1      34.855  13.595  12.176  0.00  0.00    -0.292 N 
HETATM   10  C   UNK N   1      35.933  14.220  12.738  0.00  0.00     0.326 A 
HETATM   11  O   UNK N   1      36.586  13.737  13.644  0.00  0.00    -0.247 OA
HETATM   12  N   UNK N   1      36.205  15.442  12.182  0.00  0.00    -0.301 N 
HETATM   13  H   UNK N   1      33.771  17.196   8.835  0.00  0.00     0.173 HD
HETATM   14  H   UNK N   1      32.848  13.520  10.415  0.00  0.00     0.172 HD
HETATM   15  H   UNK N   1      34.467  12.719  12.402  0.00  0.00     0.172 HD
HETATM   16  H   UNK N   1      36.923  16.074  12.414  0.00  0.00     0.171 HD
ENDROOT
TORSDOF 0
ENDMDL
MODEL 4
REMARK VINA RESULT:      -5.3     10.746     12.269
REMARK  0 active torsions:
REMARK  status: ('A' for Active; 'I' for Inactive)
ROOT
HETATM    1  O   UNK N   1      23.033  11.574  13.497  0.00  0.00    -0.247 OA
HETATM    2  C   UNK N   1      23.035  11.954  12.340  0.00  0.00     0.328 A 
HETATM    3  N   UNK N   1      21.840  12.061  11.647  0.00  0.00    -0.273 N 
HETATM    4  C   UNK N   1      21.822  12.490  10.338  0.00  0.00     0.280 A 
HETATM    5  O   UNK N   1      20.771  12.583   9.729  0.00  0.00    -0.265 OA
HETATM    6  C   UNK N   1      23.032  12.808   9.742  0.00  0.00     0.149 A 
HETATM    7  C   UNK N   1      24.189  12.695  10.440  0.00  0.00     0.146 A 
HETATM    8  N   UNK N   1      24.227  12.277  11.726  0.00  0.00    -0.292 N 
HETATM    9  N   UNK N   1      25.235  13.051   9.682  0.00  0.00    -0.292 N 
HETATM   10  C   UNK N   1      24.650  13.383   8.491  0.00  0.00     0.326 A 
HETATM   11  O   UNK N   1      25.279  13.765   7.522  0.00  0.00    -0.247 OA
HETATM   12  N   UNK N   1      23.287  13.243   8.497  0.00  0.00    -0.301 N 
HETATM   13  H   UNK N   1      20.995  11.828  12.095  0.00  0.00     0.173 HD
HETATM   14  H   UNK N   1      25.082  12.204  12.209  0.00  0.00     0.172 HD
HETATM   15  H   UNK N   1      26.189  13.069   9.921  0.00  0.00     0.172 HD
HETATM   16  H   UNK N   1      22.651  13.419   7.767  0.00  0.00     0.171 HD
ENDROOT
TORSDOF 0
ENDMDL
MODEL 5
REMARK VINA RESULT:      -5.2      5.821      7.484
REMARK  0 active torsions:
REMARK  status: ('A' for Active; 'I' for Inactive)
ROOT
HETATM    1  O   UNK N   1      37.729  15.334  16.110  0.00  0.00    -0.247 OA
HETATM    2  C   UNK N   1      36.994  14.652  15.419  0.00  0.00     0.328 A 
HETATM    3  N   UNK N   1      36.918  14.883  14.056  0.00  0.00    -0.273 N 
HETATM    4  C   UNK N   1      36.093  14.122  13.258  0.00  0.00     0.280 A 
HETATM    5  O   UNK N   1      36.026  14.325  12.058  0.00  0.00    -0.265 OA
HETATM    6  C   UNK N   1      35.346  13.123  13.863  0.00  0.00     0.149 A 
HETATM    7  C   UNK N   1      35.437  12.915  15.199  0.00  0.00     0.146 A 
HETATM    8  N   UNK N   1      36.241  13.652  15.999  0.00  0.00    -0.292 N 
HETATM    9  N   UNK N   1      34.637  11.908  15.577  0.00  0.00    -0.292 N 
HETATM   10  C   UNK N   1      34.059  11.520  14.399  0.00  0.00     0.326 A 
HETATM   11  O   UNK N   1      33.253  10.612  14.319  0.00  0.00    -0.247 OA
HETATM   12  N   UNK N   1      34.478  12.252  13.320  0.00  0.00    -0.301 N 
HETATM   13  H   UNK N   1      37.460  15.600  13.652  0.00  0.00     0.173 HD
HETATM   14  H   UNK N   1      36.288  13.479  16.967  0.00  0.00     0.172 HD
HETATM   15  H   UNK N   1      34.499  11.538  16.478  0.00  0.00     0.172 HD
HETATM   16  H   UNK N   1      34.208  12.163  12.378  0.00  0.00     0.171 HD
ENDROOT
TORSDOF 0
ENDMDL
MODEL 6
REMARK VINA RESULT:      -5.1     10.781     11.961
REMARK  0 active torsions:
REMARK  status: ('A' for Active; 'I' for Inactive)
ROOT
HETATM    1  O   UNK N   1      25.050  13.767   7.369  0.00  0.00    -0.247 OA
HETATM    2  C   UNK N   1      24.307  13.360   8.244  0.00  0.00     0.328 A 
HETATM    3  N   UNK N   1      22.959  13.186   7.978  0.00  0.00    -0.273 N 
HETATM    4  C   UNK N   1      22.102  12.727   8.954  0.00  0.00     0.280 A 
HETATM    5  O   UNK N   1      20.917  12.574   8.720  0.00  0.00    -0.265 OA
HETATM    6  C   UNK N   1      22.633  12.447  10.204  0.00  0.00     0.149 A 
HETATM    7  C   UNK N   1      23.956  12.625  10.441  0.00  0.00     0.146 A 
HETATM    8  N   UNK N   1      24.812  13.075   9.495  0.00  0.00    -0.292 N 
HETATM    9  N   UNK N   1      24.258  12.298  11.705  0.00  0.00    -0.292 N 
HETATM   10  C   UNK N   1      23.050  11.913  12.217  0.00  0.00     0.326 A 
HETATM   11  O   UNK N   1      22.902  11.536  13.364  0.00  0.00    -0.247 OA
HETATM   12  N   UNK N   1      22.025  11.994  11.313  0.00  0.00    -0.301 N 
HETATM   13  H   UNK N   1      22.608  13.393   7.081  0.00  0.00     0.173 HD
HETATM   14  H   UNK N   1      25.769  13.196   9.694  0.00  0.00     0.172 HD
HETATM   15  H   UNK N   1      25.133  12.327  12.154  0.00  0.00     0.172 HD
HETATM   16  H   UNK N   1      21.074  11.774  11.444  0.00  0.00     0.171 HD
ENDROOT
TORSDOF 0
ENDMDL
MODEL 7
REMARK VINA RESULT:      -5.1      1.867      3.564
REMARK  0 active torsions:
REMARK  status: ('A' for Active; 'I' for Inactive)
ROOT
HETATM    1  O   UNK N   1      32.720  12.760   7.783  0.00  0.00    -0.247 OA
HETATM    2  C   UNK N   1      33.155  13.778   8.290  0.00  0.00     0.328 A 
HETATM    3  N   UNK N   1      33.384  13.825   9.656  0.00  0.00    -0.273 N 
HETATM    4  C   UNK N   1      33.876  14.967  10.248  0.00  0.00     0.280 A 
HETATM    5  O   UNK N   1      34.078  15.008  11.448  0.00  0.00    -0.265 OA
HETATM    6  C   UNK N   1      34.131  16.061   9.435  0.00  0.00     0.149 A 
HETATM    7  C   UNK N   1      33.898  15.992   8.102  0.00  0.00     0.146 A 
HETATM    8  N   UNK N   1      33.416  14.879   7.503  0.00  0.00    -0.292 N 
HETATM    9  N   UNK N   1      34.210  17.152   7.506  0.00  0.00    -0.292 N 
HETATM   10  C   UNK N   1      34.643  17.923   8.550  0.00  0.00     0.326 A 
HETATM   11  O   UNK N   1      35.023  19.071   8.417  0.00  0.00    -0.247 OA
HETATM   12  N   UNK N   1      34.605  17.277   9.756  0.00  0.00    -0.301 N 
HETATM   13  H   UNK N   1      33.194  13.033  10.209  0.00  0.00     0.173 HD
HETATM   14  H   UNK N   1      33.256  14.856   6.531  0.00  0.00     0.172 HD
HETATM   15  H   UNK N   1      34.144  17.390   6.554  0.00  0.00     0.172 HD
HETATM   16  H   UNK N   1      34.864  17.619  10.643  0.00  0.00     0.171 HD
ENDROOT
TORSDOF 0
ENDMDL
MODEL 8
REMARK VINA RESULT:      -5.0      2.057      4.303
REMARK  0 active torsions:
REMARK  status: ('A' for Active; 'I' for Inactive)
ROOT
HETATM    1  O   UNK N   1      36.429  13.613  12.567  0.00  0.00    -0.247 OA
HETATM    2  C   UNK N   1      35.793  14.325  11.812  0.00  0.00     0.328 A 
HETATM    3  N   UNK N   1      36.240  15.605  11.531  0.00  0.00    -0.273 N 
HETATM    4  C   UNK N   1      35.534  16.426  10.679  0.00  0.00     0.280 A 
HETATM    5  O   UNK N   1      35.927  17.552  10.432  0.00  0.00    -0.265 OA
HETATM    6  C   UNK N   1      34.368  15.929  10.117  0.00  0.00     0.149 A 
HETATM    7  C   UNK N   1      33.950  14.673  10.407  0.00  0.00     0.146 A 
HETATM    8  N   UNK N   1      34.630  13.853  11.240  0.00  0.00    -0.292 N 
HETATM    9  N   UNK N   1      32.809  14.393   9.762  0.00  0.00    -0.292 N 
HETATM   10  C   UNK N   1      32.561  15.546   9.068  0.00  0.00     0.326 A 
HETATM   11  O   UNK N   1      31.593  15.694   8.346  0.00  0.00    -0.247 OA
HETATM   12  N   UNK N   1      33.508  16.515   9.267  0.00  0.00    -0.301 N 
HETATM   13  H   UNK N   1      37.071  15.933  11.944  0.00  0.00     0.173 HD
HETATM   14  H   UNK N   1      34.303  12.944  11.434  0.00  0.00     0.172 HD
HETATM   15  H   UNK N   1      32.280  13.564   9.781  0.00  0.00     0.172 HD
HETATM   16  H   UNK N   1      33.547  17.420   8.882  0.00  0.00     0.171 HD
ENDROOT
TORSDOF 0
ENDMDL
MODEL 9
REMARK VINA RESULT:      -5.0     15.229     15.896
REMARK  0 active torsions:
REMARK  status: ('A' for Active; 'I' for Inactive)
ROOT
HETATM    1  O   UNK N   1      19.602  15.271   4.116  0.00  0.00    -0.247 OA
HETATM    2  C   UNK N   1      19.814  16.194   3.350  0.00  0.00     0.328 A 
HETATM    3  N   UNK N   1      19.804  15.970   1.983  0.00  0.00    -0.273 N 
HETATM    4  C   UNK N   1      20.041  17.001   1.099  0.00  0.00     0.280 A 
HETATM    5  O   UNK N   1      20.032  16.805  -0.103  0.00  0.00    -0.265 OA
HETATM    6  C   UNK N   1      20.288  18.261   1.624  0.00  0.00     0.149 A 
HETATM    7  C   UNK N   1      20.293  18.455   2.965  0.00  0.00     0.146 A 
HETATM    8  N   UNK N   1      20.062  17.456   3.847  0.00  0.00    -0.292 N 
HETATM    9  N   UNK N   1      20.551  19.737   3.256  0.00  0.00    -0.292 N 
HETATM   10  C   UNK N   1      20.702  20.306   2.021  0.00  0.00     0.326 A 
HETATM   11  O   UNK N   1      20.951  21.485   1.856  0.00  0.00    -0.247 OA
HETATM   12  N   UNK N   1      20.545  19.418   0.991  0.00  0.00    -0.301 N 
HETATM   13  H   UNK N   1      19.625  15.066   1.638  0.00  0.00     0.173 HD
HETATM   14  H   UNK N   1      20.071  17.625   4.817  0.00  0.00     0.172 HD
HETATM   15  H   UNK N   1      20.616  20.165   4.140  0.00  0.00     0.172 HD
HETATM   16  H   UNK N   1      20.606  19.586   0.023  0.00  0.00     0.171 HD
ENDROOT
TORSDOF 0
ENDMDL
