MODEL 1
REMARK VINA RESULT:      -8.1      0.000      0.000
REMARK  12 active torsions:
REMARK  status: ('A' for Active; 'I' for Inactive)
REMARK    1  A    between atoms: N_26  and  C_7 
REMARK       I    between atoms: N_28  and  C_8 
REMARK    2  A    between atoms: C_11  and  C_18 
REMARK       I    between atoms: N_14  and  C_11 
REMARK    3  A    between atoms: C_16  and  N_14 
REMARK    4  A    between atoms: C_15  and  C_16 
REMARK    5  A    between atoms: O_20  and  C_15 
REMARK    6  A    between atoms: C_29  and  C_16 
REMARK    7  A    between atoms: C_17  and  C_33 
REMARK    8  A    between atoms: O_22  and  C_17 
REMARK    9  A    between atoms: C_32  and  C_19 
REMARK   10  A    between atoms: N_24  and  C_32 
REMARK   11  A    between atoms: C_34  and  N_24 
REMARK   12  A    between atoms: C_33  and  C_29 
ROOT
HETATM    1  N   UNK N   1      33.401  15.905   7.716  0.00  0.00    -0.384 N 
HETATM    2  H   UNK N   1      34.202  16.147   7.199  0.00  0.00     0.160 HD
ENDROOT
BRANCH   1   3
HETATM    3  C   UNK N   1      33.376  14.749   8.579  0.00  0.00     0.178 C 
BRANCH   3   4
HETATM    4  C   UNK N   1      34.257  14.858   9.770  0.00  0.00     0.043 A 
HETATM    5  N   UNK N   1      34.297  13.818  10.643  0.00  0.00    -0.351 N 
HETATM    6  C   UNK N   1      35.010  13.900  11.791  0.00  0.00     0.122 A 
ATOM      7  HN  UNK N   1      33.782  12.964  10.430  1.00  0.00     0.166 HD
HETATM    8  C   UNK N   1      35.047  12.844  12.703  0.00  0.00     0.145 A 
HETATM    9  C   UNK N   1      35.723  15.071  12.087  0.00  0.00     0.151 A 
HETATM   10  N   UNK N   1      35.775  12.969  13.842  0.00  0.00    -0.175 N 
HETATM   11  C   UNK N   1      36.469  14.109  14.111  0.00  0.00     0.679 A 
ATOM     12  HN  UNK N   1      35.801  12.197  14.508  1.00  0.00     0.186 HD
HETATM   13  N   UNK N   1      36.439  15.154  13.237  0.00  0.00    -0.174 N 
HETATM   14  N   UNK N   1      37.219  14.210  15.298  0.00  0.00    -0.234 N 
ATOM     15  HN  UNK N   1      36.959  16.006  13.447  1.00  0.00     0.186 HD
HETATM   16  H   UNK N   1      37.125  13.525  15.999  0.00  0.00     0.174 HD
HETATM   17  H   UNK N   1      37.837  14.965  15.428  0.00  0.00     0.174 HD
HETATM   18  N   UNK N   1      35.681  16.117  11.217  0.00  0.00    -0.348 N 
HETATM   19  C   UNK N   1      34.950  16.039  10.070  0.00  0.00     0.116 A 
ATOM     20  HN  UNK N   1      36.201  16.968  11.426  1.00  0.00     0.167 HD
BRANCH   8  21
HETATM   21  N   UNK N   1      34.332  11.654  12.452  0.00  0.00    -0.383 N 
HETATM   22  H   UNK N   1      34.027  11.433  11.542  0.00  0.00     0.157 HD
HETATM   23  H   UNK N   1      34.135  11.038  13.194  0.00  0.00     0.157 HD
ENDBRANCH   8  21
ENDBRANCH   3   4
ENDBRANCH   1   3
BRANCH   1  24
HETATM   24  C   UNK N   1      32.217  16.672   7.650  0.00  0.00     0.028 A 
HETATM   25  C   UNK N   1      32.039  17.725   8.547  0.00  0.00     0.030 A 
HETATM   26  C   UNK N   1      30.767  18.268   8.738  0.00  0.00     0.019 A 
HETATM   27  C   UNK N   1      29.662  17.791   8.008  0.00  0.00     0.032 A 
HETATM   28  C   UNK N   1      29.864  16.791   7.051  0.00  0.00     0.019 A 
HETATM   29  C   UNK N   1      31.129  16.217   6.889  0.00  0.00     0.030 A 
BRANCH  27  30
HETATM   30  C   UNK N   1      28.288  18.153   8.460  0.00  0.00     0.252 C 
HETATM   31  N   UNK N   1      27.436  18.946   7.753  0.00  0.00    -0.343 N 
HETATM   32  H   UNK N   1      26.471  18.802   7.887  0.00  0.00     0.163 HD
HETATM   33  O   UNK N   1      27.868  17.629   9.480  0.00  0.00    -0.268 OA
BRANCH  31  34
HETATM   34  C   UNK N   1      27.827  19.982   6.823  0.00  0.00     0.183 C 
BRANCH  34  35
HETATM   35  C   UNK N   1      26.775  21.061   6.970  0.00  0.00     0.163 C 
HETATM   36  O   UNK N   1      26.646  21.939   6.126  0.00  0.00    -0.648 OA
BRANCH  35  37
HETATM   37  O   UNK N   1      25.900  21.003   7.992  0.00  0.00    -0.775 OA
HETATM   38  H   UNK N   1      25.333  20.263   8.083  0.00  0.00     0.167 HD
ENDBRANCH  35  37
ENDBRANCH  34  35
BRANCH  34  39
HETATM   39  C   UNK N   1      27.846  19.554   5.353  0.00  0.00     0.046 C 
BRANCH  39  40
HETATM   40  C   UNK N   1      26.790  18.583   4.879  0.00  0.00     0.112 C 
BRANCH  40  41
HETATM   41  C   UNK N   1      25.932  19.338   3.920  0.00  0.00     0.139 C 
HETATM   42  O   UNK N   1      24.804  18.943   3.671  0.00  0.00    -0.650 OA
BRANCH  41  43
HETATM   43  O   UNK N   1      26.381  20.478   3.363  0.00  0.00    -0.776 OA
HETATM   44  H   UNK N   1      27.173  20.508   2.863  0.00  0.00     0.167 HD
ENDBRANCH  41  43
ENDBRANCH  40  41
ENDBRANCH  39  40
ENDBRANCH  34  39
ENDBRANCH  31  34
ENDBRANCH  27  30
ENDBRANCH   1  24
TORSDOF 12
ENDMDL
MODEL 2
REMARK VINA RESULT:      -7.8      2.266      4.077
REMARK  12 active torsions:
REMARK  status: ('A' for Active; 'I' for Inactive)
REMARK    1  A    between atoms: N_26  and  C_7 
REMARK       I    between atoms: N_28  and  C_8 
REMARK    2  A    between atoms: C_11  and  C_18 
REMARK       I    between atoms: N_14  and  C_11 
REMARK    3  A    between atoms: C_16  and  N_14 
REMARK    4  A    between atoms: C_15  and  C_16 
REMARK    5  A    between atoms: O_20  and  C_15 
REMARK    6  A    between atoms: C_29  and  C_16 
REMARK    7  A    between atoms: C_17  and  C_33 
REMARK    8  A    between atoms: O_22  and  C_17 
REMARK    9  A    between atoms: C_32  and  C_19 
REMARK   10  A    between atoms: N_24  and  C_32 
REMARK   11  A    between atoms: C_34  and  N_24 
REMARK   12  A    between atoms: C_33  and  C_29 
ROOT
HETATM    1  N   UNK N   1      34.290  16.891  10.157  0.00  0.00    -0.384 N 
HETATM    2  H   UNK N   1      33.758  17.401  10.809  0.00  0.00     0.160 HD
ENDROOT
BRANCH   1   3
HETATM    3  C   UNK N   1      35.540  16.270  10.521  0.00  0.00     0.178 C 
BRANCH   3   4
HETATM    4  C   UNK N   1      35.405  15.146  11.484  0.00  0.00     0.043 A 
HETATM    5  N   UNK N   1      36.054  15.232  12.673  0.00  0.00    -0.351 N 
HETATM    6  C   UNK N   1      36.042  14.200  13.550  0.00  0.00     0.122 A 
ATOM      7  HN  UNK N   1      36.559  16.087  12.911  1.00  0.00     0.166 HD
HETATM    8  C   UNK N   1      36.717  14.270  14.769  0.00  0.00     0.145 A 
HETATM    9  C   UNK N   1      35.347  13.024  13.231  0.00  0.00     0.151 A 
HETATM   10  N   UNK N   1      36.677  13.211  15.617  0.00  0.00    -0.175 N 
HETATM   11  C   UNK N   1      35.992  12.079  15.297  0.00  0.00     0.679 A 
ATOM     12  HN  UNK N   1      37.172  13.263  16.509  1.00  0.00     0.186 HD
HETATM   13  N   UNK N   1      35.333  11.988  14.108  0.00  0.00    -0.174 N 
HETATM   14  N   UNK N   1      35.965  10.997  16.198  0.00  0.00    -0.234 N 
ATOM     15  HN  UNK N   1      34.824  11.135  13.875  1.00  0.00     0.186 HD
HETATM   16  H   UNK N   1      36.557  10.998  16.985  0.00  0.00     0.174 HD
HETATM   17  H   UNK N   1      35.355  10.240  16.041  0.00  0.00     0.174 HD
HETATM   18  N   UNK N   1      34.700  12.932  12.037  0.00  0.00    -0.348 N 
HETATM   19  C   UNK N   1      34.728  13.966  11.149  0.00  0.00     0.116 A 
ATOM     20  HN  UNK N   1      34.191  12.080  11.803  1.00  0.00     0.167 HD
BRANCH   8  21
HETATM   21  N   UNK N   1      37.440  15.429  15.123  0.00  0.00    -0.383 N 
HETATM   22  H   UNK N   1      37.142  16.001  15.867  0.00  0.00     0.157 HD
HETATM   23  H   UNK N   1      38.252  15.668  14.620  0.00  0.00     0.157 HD
ENDBRANCH   8  21
ENDBRANCH   3   4
ENDBRANCH   1   3
BRANCH   1  24
HETATM   24  C   UNK N   1      33.869  16.734   8.819  0.00  0.00     0.028 A 
HETATM   25  C   UNK N   1      34.040  17.791   7.925  0.00  0.00     0.030 A 
HETATM   26  C   UNK N   1      33.338  17.800   6.718  0.00  0.00     0.019 A 
HETATM   27  C   UNK N   1      32.485  16.736   6.371  0.00  0.00     0.032 A 
HETATM   28  C   UNK N   1      32.383  15.641   7.236  0.00  0.00     0.019 A 
HETATM   29  C   UNK N   1      33.052  15.650   8.464  0.00  0.00     0.030 A 
BRANCH  27  30
HETATM   30  C   UNK N   1      31.515  16.923   5.254  0.00  0.00     0.252 C 
HETATM   31  N   UNK N   1      30.227  17.334   5.421  0.00  0.00    -0.343 N 
HETATM   32  H   UNK N   1      29.808  17.816   4.672  0.00  0.00     0.163 HD
HETATM   33  O   UNK N   1      31.929  16.791   4.113  0.00  0.00    -0.268 OA
BRANCH  31  34
HETATM   34  C   UNK N   1      29.424  17.123   6.605  0.00  0.00     0.183 C 
BRANCH  34  35
HETATM   35  C   UNK N   1      27.993  17.102   6.110  0.00  0.00     0.163 C 
HETATM   36  O   UNK N   1      27.720  17.383   4.949  0.00  0.00    -0.648 OA
BRANCH  35  37
HETATM   37  O   UNK N   1      27.012  16.672   6.926  0.00  0.00    -0.775 OA
HETATM   38  H   UNK N   1      26.772  15.767   6.936  0.00  0.00     0.167 HD
ENDBRANCH  35  37
ENDBRANCH  34  35
BRANCH  34  39
HETATM   39  C   UNK N   1      29.530  18.227   7.660  0.00  0.00     0.046 C 
BRANCH  39  40
HETATM   40  C   UNK N   1      29.917  17.835   9.066  0.00  0.00     0.112 C 
BRANCH  40  41
HETATM   41  C   UNK N   1      28.648  17.475   9.763  0.00  0.00     0.139 C 
HETATM   42  O   UNK N   1      28.656  16.639  10.652  0.00  0.00    -0.650 OA
BRANCH  41  43
HETATM   43  O   UNK N   1      27.501  18.104   9.445  0.00  0.00    -0.776 OA
HETATM   44  H   UNK N   1      26.666  17.687   9.529  0.00  0.00     0.167 HD
ENDBRANCH  41  43
ENDBRANCH  40  41
ENDBRANCH  39  40
ENDBRANCH  34  39
ENDBRANCH  31  34
ENDBRANCH  27  30
ENDBRANCH   1  24
TORSDOF 12
ENDMDL
MODEL 3
REMARK VINA RESULT:      -7.6      2.638      5.362
REMARK  12 active torsions:
REMARK  status: ('A' for Active; 'I' for Inactive)
REMARK    1  A    between atoms: N_26  and  C_7 
REMARK       I    between atoms: N_28  and  C_8 
REMARK    2  A    between atoms: C_11  and  C_18 
REMARK       I    between atoms: N_14  and  C_11 
REMARK    3  A    between atoms: C_16  and  N_14 
REMARK    4  A    between atoms: C_15  and  C_16 
REMARK    5  A    between atoms: O_20  and  C_15 
REMARK    6  A    between atoms: C_29  and  C_16 
REMARK    7  A    between atoms: C_17  and  C_33 
REMARK    8  A    between atoms: O_22  and  C_17 
REMARK    9  A    between atoms: C_32  and  C_19 
REMARK   10  A    between atoms: N_24  and  C_32 
REMARK   11  A    between atoms: C_34  and  N_24 
REMARK   12  A    between atoms: C_33  and  C_29 
ROOT
HETATM    1  N   UNK N   1      37.050  14.853  11.073  0.00  0.00    -0.384 N 
HETATM    2  H   UNK N   1      37.805  15.446  11.289  0.00  0.00     0.160 HD
ENDROOT
BRANCH   1   3
HETATM    3  C   UNK N   1      36.987  13.498  11.566  0.00  0.00     0.178 C 
BRANCH   3   4
HETATM    4  C   UNK N   1      36.407  13.370  12.927  0.00  0.00     0.043 A 
HETATM    5  N   UNK N   1      36.807  14.244  13.886  0.00  0.00    -0.351 N 
HETATM    6  C   UNK N   1      36.381  14.118  15.165  0.00  0.00     0.122 A 
ATOM      7  HN  UNK N   1      37.438  15.007  13.639  1.00  0.00     0.166 HD
HETATM    8  C   UNK N   1      36.797  15.000  16.162  0.00  0.00     0.145 A 
HETATM    9  C   UNK N   1      35.511  13.073  15.510  0.00  0.00     0.151 A 
HETATM   10  N   UNK N   1      36.345  14.836  17.432  0.00  0.00    -0.175 N 
HETATM   11  C   UNK N   1      35.494  13.822  17.750  0.00  0.00     0.679 A 
ATOM     12  HN  UNK N   1      36.650  15.482  18.161  1.00  0.00     0.186 HD
HETATM   13  N   UNK N   1      35.082  12.945  16.791  0.00  0.00    -0.174 N 
HETATM   14  N   UNK N   1      35.038  13.678  19.074  0.00  0.00    -0.234 N 
ATOM     15  HN  UNK N   1      34.447  12.186  17.038  1.00  0.00     0.186 HD
HETATM   16  H   UNK N   1      35.445  14.211  19.795  0.00  0.00     0.174 HD
HETATM   17  H   UNK N   1      34.314  13.044  19.279  0.00  0.00     0.174 HD
HETATM   18  N   UNK N   1      35.112  12.191  14.552  0.00  0.00    -0.348 N 
HETATM   19  C   UNK N   1      35.555  12.311  13.269  0.00  0.00     0.116 A 
ATOM     20  HN  UNK N   1      34.477  11.433  14.798  1.00  0.00     0.167 HD
BRANCH   8  21
HETATM   21  N   UNK N   1      37.684  16.056  15.862  0.00  0.00    -0.383 N 
HETATM   22  H   UNK N   1      38.544  15.879  15.417  0.00  0.00     0.157 HD
HETATM   23  H   UNK N   1      37.440  16.979  16.101  0.00  0.00     0.157 HD
ENDBRANCH   8  21
ENDBRANCH   3   4
ENDBRANCH   1   3
BRANCH   1  24
HETATM   24  C   UNK N   1      35.976  15.285  10.266  0.00  0.00     0.028 A 
HETATM   25  C   UNK N   1      35.722  14.624   9.064  0.00  0.00     0.030 A 
HETATM   26  C   UNK N   1      34.912  15.226   8.098  0.00  0.00     0.019 A 
HETATM   27  C   UNK N   1      34.316  16.478   8.335  0.00  0.00     0.032 A 
HETATM   28  C   UNK N   1      34.508  17.095   9.575  0.00  0.00     0.019 A 
HETATM   29  C   UNK N   1      35.353  16.515  10.527  0.00  0.00     0.030 A 
BRANCH  27  30
HETATM   30  C   UNK N   1      33.739  17.231   7.185  0.00  0.00     0.252 C 
HETATM   31  N   UNK N   1      32.403  17.385   6.965  0.00  0.00    -0.343 N 
HETATM   32  H   UNK N   1      32.116  18.190   6.477  0.00  0.00     0.163 HD
HETATM   33  O   UNK N   1      34.511  17.827   6.450  0.00  0.00    -0.268 OA
BRANCH  31  34
HETATM   34  C   UNK N   1      31.370  16.465   7.388  0.00  0.00     0.183 C 
BRANCH  34  35
HETATM   35  C   UNK N   1      31.276  15.441   6.277  0.00  0.00     0.163 C 
HETATM   36  O   UNK N   1      31.352  14.241   6.513  0.00  0.00    -0.648 OA
BRANCH  35  37
HETATM   37  O   UNK N   1      31.006  15.844   5.020  0.00  0.00    -0.775 OA
HETATM   38  H   UNK N   1      30.704  15.226   4.384  0.00  0.00     0.167 HD
ENDBRANCH  35  37
ENDBRANCH  34  35
BRANCH  34  39
HETATM   39  C   UNK N   1      29.982  17.090   7.558  0.00  0.00     0.046 C 
BRANCH  39  40
HETATM   40  C   UNK N   1      29.807  18.164   8.603  0.00  0.00     0.112 C 
BRANCH  40  41
HETATM   41  C   UNK N   1      28.385  18.608   8.510  0.00  0.00     0.139 C 
HETATM   42  O   UNK N   1      28.035  19.345   7.602  0.00  0.00    -0.650 OA
BRANCH  41  43
HETATM   43  O   UNK N   1      27.478  18.160   9.397  0.00  0.00    -0.776 OA
HETATM   44  H   UNK N   1      26.610  18.512   9.440  0.00  0.00     0.167 HD
ENDBRANCH  41  43
ENDBRANCH  40  41
ENDBRANCH  39  40
ENDBRANCH  34  39
ENDBRANCH  31  34
ENDBRANCH  27  30
ENDBRANCH   1  24
TORSDOF 12
ENDMDL
MODEL 4
REMARK VINA RESULT:      -7.6      2.697      4.513
REMARK  12 active torsions:
REMARK  status: ('A' for Active; 'I' for Inactive)
REMARK    1  A    between atoms: N_26  and  C_7 
REMARK       I    between atoms: N_28  and  C_8 
REMARK    2  A    between atoms: C_11  and  C_18 
REMARK       I    between atoms: N_14  and  C_11 
REMARK    3  A    between atoms: C_16  and  N_14 
REMARK    4  A    between atoms: C_15  and  C_16 
REMARK    5  A    between atoms: O_20  and  C_15 
REMARK    6  A    between atoms: C_29  and  C_16 
REMARK    7  A    between atoms: C_17  and  C_33 
REMARK    8  A    between atoms: O_22  and  C_17 
REMARK    9  A    between atoms: C_32  and  C_19 
REMARK   10  A    between atoms: N_24  and  C_32 
REMARK   11  A    between atoms: C_34  and  N_24 
REMARK   12  A    between atoms: C_33  and  C_29 
ROOT
HETATM    1  N   UNK N   1      34.298  13.928   5.940  0.00  0.00    -0.384 N 
HETATM    2  H   UNK N   1      34.339  12.947   5.866  0.00  0.00     0.160 HD
ENDROOT
BRANCH   1   3
HETATM    3  C   UNK N   1      35.433  14.702   6.381  0.00  0.00     0.178 C 
BRANCH   3   4
HETATM    4  C   UNK N   1      35.941  14.329   7.726  0.00  0.00     0.043 A 
HETATM    5  N   UNK N   1      35.130  14.519   8.798  0.00  0.00    -0.351 N 
HETATM    6  C   UNK N   1      35.573  14.283  10.057  0.00  0.00     0.122 A 
ATOM      7  HN  UNK N   1      34.173  14.843   8.654  1.00  0.00     0.166 HD
HETATM    8  C   UNK N   1      34.754  14.488  11.167  0.00  0.00     0.145 A 
HETATM    9  C   UNK N   1      36.886  13.835  10.260  0.00  0.00     0.151 A 
HETATM   10  N   UNK N   1      35.240  14.240  12.411  0.00  0.00    -0.175 N 
HETATM   11  C   UNK N   1      36.514  13.796  12.593  0.00  0.00     0.679 A 
ATOM     12  HN  UNK N   1      34.640  14.390  13.223  1.00  0.00     0.186 HD
HETATM   13  N   UNK N   1      37.331  13.598  11.520  0.00  0.00    -0.174 N 
HETATM   14  N   UNK N   1      36.990  13.543  13.893  0.00  0.00    -0.234 N 
ATOM     15  HN  UNK N   1      38.286  13.268  11.665  1.00  0.00     0.186 HD
HETATM   16  H   UNK N   1      36.460  13.825  14.674  0.00  0.00     0.174 HD
HETATM   17  H   UNK N   1      37.852  13.085  14.022  0.00  0.00     0.174 HD
HETATM   18  N   UNK N   1      37.704  13.649   9.188  0.00  0.00    -0.348 N 
HETATM   19  C   UNK N   1      37.261  13.902   7.924  0.00  0.00     0.116 A 
ATOM     20  HN  UNK N   1      38.657  13.319   9.332  1.00  0.00     0.167 HD
BRANCH   8  21
HETATM   21  N   UNK N   1      33.432  14.953  11.008  0.00  0.00    -0.383 N 
HETATM   22  H   UNK N   1      32.665  14.374  11.225  0.00  0.00     0.157 HD
HETATM   23  H   UNK N   1      33.273  15.867  10.677  0.00  0.00     0.157 HD
ENDBRANCH   8  21
ENDBRANCH   3   4
ENDBRANCH   1   3
BRANCH   1  24
HETATM   24  C   UNK N   1      33.125  14.646   5.623  0.00  0.00     0.028 A 
HETATM   25  C   UNK N   1      33.239  15.930   5.089  0.00  0.00     0.030 A 
HETATM   26  C   UNK N   1      32.134  16.784   5.090  0.00  0.00     0.019 A 
HETATM   27  C   UNK N   1      30.891  16.355   5.591  0.00  0.00     0.032 A 
HETATM   28  C   UNK N   1      30.764  15.039   6.049  0.00  0.00     0.019 A 
HETATM   29  C   UNK N   1      31.879  14.197   6.088  0.00  0.00     0.030 A 
BRANCH  27  30
HETATM   30  C   UNK N   1      29.839  17.371   5.878  0.00  0.00     0.252 C 
HETATM   31  N   UNK N   1      29.624  17.922   7.106  0.00  0.00    -0.343 N 
HETATM   32  H   UNK N   1      29.239  18.827   7.132  0.00  0.00     0.163 HD
HETATM   33  O   UNK N   1      29.195  17.805   4.937  0.00  0.00    -0.268 OA
BRANCH  31  34
HETATM   34  C   UNK N   1      29.914  17.290   8.374  0.00  0.00     0.183 C 
BRANCH  34  35
HETATM   35  C   UNK N   1      29.095  18.056   9.391  0.00  0.00     0.163 C 
HETATM   36  O   UNK N   1      29.630  18.793  10.211  0.00  0.00    -0.648 OA
BRANCH  35  37
HETATM   37  O   UNK N   1      27.750  18.008   9.336  0.00  0.00    -0.775 OA
HETATM   38  H   UNK N   1      27.311  17.182   9.292  0.00  0.00     0.167 HD
ENDBRANCH  35  37
ENDBRANCH  34  35
BRANCH  34  39
HETATM   39  C   UNK N   1      31.380  17.367   8.811  0.00  0.00     0.046 C 
BRANCH  39  40
HETATM   40  C   UNK N   1      32.248  18.446   8.211  0.00  0.00     0.112 C 
BRANCH  40  41
HETATM   41  C   UNK N   1      33.656  17.976   8.356  0.00  0.00     0.139 C 
HETATM   42  O   UNK N   1      34.446  18.125   7.437  0.00  0.00    -0.650 OA
BRANCH  41  43
HETATM   43  O   UNK N   1      34.071  17.431   9.514  0.00  0.00    -0.776 OA
HETATM   44  H   UNK N   1      34.034  17.900  10.325  0.00  0.00     0.167 HD
ENDBRANCH  41  43
ENDBRANCH  40  41
ENDBRANCH  39  40
ENDBRANCH  34  39
ENDBRANCH  31  34
ENDBRANCH  27  30
ENDBRANCH   1  24
TORSDOF 12
ENDMDL
MODEL 5
REMARK VINA RESULT:      -7.4      2.159      3.980
REMARK  12 active torsions:
REMARK  status: ('A' for Active; 'I' for Inactive)
REMARK    1  A    between atoms: N_26  and  C_7 
REMARK       I    between atoms: N_28  and  C_8 
REMARK    2  A    between atoms: C_11  and  C_18 
REMARK       I    between atoms: N_14  and  C_11 
REMARK    3  A    between atoms: C_16  and  N_14 
REMARK    4  A    between atoms: C_15  and  C_16 
REMARK    5  A    between atoms: O_20  and  C_15 
REMARK    6  A    between atoms: C_29  and  C_16 
REMARK    7  A    between atoms: C_17  and  C_33 
REMARK    8  A    between atoms: O_22  and  C_17 
REMARK    9  A    between atoms: C_32  and  C_19 
REMARK   10  A    between atoms: N_24  and  C_32 
REMARK   11  A    between atoms: C_34  and  N_24 
REMARK   12  A    between atoms: C_33  and  C_29 
ROOT
HETATM    1  N   UNK N   1      30.761  16.572   6.309  0.00  0.00    -0.384 N 
HETATM    2  H   UNK N   1      30.728  15.627   6.581  0.00  0.00     0.160 HD
ENDROOT
BRANCH   1   3
HETATM    3  C   UNK N   1      32.014  17.258   6.108  0.00  0.00     0.178 C 
BRANCH   3   4
HETATM    4  C   UNK N   1      32.967  17.135   7.241  0.00  0.00     0.043 A 
HETATM    5  N   UNK N   1      32.943  15.999   7.985  0.00  0.00    -0.351 N 
HETATM    6  C   UNK N   1      33.724  15.870   9.084  0.00  0.00     0.122 A 
ATOM      7  HN  UNK N   1      32.328  15.232   7.712  1.00  0.00     0.166 HD
HETATM    8  C   UNK N   1      33.697  14.715   9.865  0.00  0.00     0.145 A 
HETATM    9  C   UNK N   1      34.573  16.920   9.462  0.00  0.00     0.151 A 
HETATM   10  N   UNK N   1      34.497  14.629  10.959  0.00  0.00    -0.175 N 
HETATM   11  C   UNK N   1      35.323  15.653  11.309  0.00  0.00     0.679 A 
ATOM     12  HN  UNK N   1      34.477  13.783  11.530  1.00  0.00     0.186 HD
HETATM   13  N   UNK N   1      35.357  16.793  10.563  0.00  0.00    -0.174 N 
HETATM   14  N   UNK N   1      36.144  15.534  12.446  0.00  0.00    -0.234 N 
ATOM     15  HN  UNK N   1      35.976  17.557  10.833  1.00  0.00     0.186 HD
HETATM   16  H   UNK N   1      36.017  14.783  13.069  0.00  0.00     0.174 HD
HETATM   17  H   UNK N   1      36.846  16.203  12.619  0.00  0.00     0.174 HD
HETATM   18  N   UNK N   1      34.596  18.062   8.722  0.00  0.00    -0.348 N 
HETATM   19  C   UNK N   1      33.798  18.196   7.625  0.00  0.00     0.116 A 
ATOM     20  HN  UNK N   1      35.215  18.826   8.991  1.00  0.00     0.167 HD
BRANCH   8  21
HETATM   21  N   UNK N   1      32.846  13.641   9.530  0.00  0.00    -0.383 N 
HETATM   22  H   UNK N   1      33.205  12.827   9.108  0.00  0.00     0.157 HD
HETATM   23  H   UNK N   1      31.882  13.706   9.719  0.00  0.00     0.157 HD
ENDBRANCH   8  21
ENDBRANCH   3   4
ENDBRANCH   1   3
BRANCH   1  24
HETATM   24  C   UNK N   1      29.585  17.324   6.098  0.00  0.00     0.028 A 
HETATM   25  C   UNK N   1      29.255  17.717   4.801  0.00  0.00     0.030 A 
HETATM   26  C   UNK N   1      28.315  18.730   4.600  0.00  0.00     0.019 A 
HETATM   27  C   UNK N   1      27.666  19.339   5.691  0.00  0.00     0.032 A 
HETATM   28  C   UNK N   1      27.943  18.882   6.984  0.00  0.00     0.019 A 
HETATM   29  C   UNK N   1      28.914  17.898   7.189  0.00  0.00     0.030 A 
BRANCH  27  30
HETATM   30  C   UNK N   1      26.929  20.616   5.470  0.00  0.00     0.252 C 
HETATM   31  N   UNK N   1      25.667  20.692   4.964  0.00  0.00    -0.343 N 
HETATM   32  H   UNK N   1      25.121  21.466   5.230  0.00  0.00     0.163 HD
HETATM   33  O   UNK N   1      27.453  21.649   5.856  0.00  0.00    -0.268 OA
BRANCH  31  34
HETATM   34  C   UNK N   1      25.060  19.731   4.070  0.00  0.00     0.183 C 
BRANCH  34  35
HETATM   35  C   UNK N   1      24.454  20.558   2.956  0.00  0.00     0.163 C 
HETATM   36  O   UNK N   1      23.430  21.207   3.134  0.00  0.00    -0.648 OA
BRANCH  35  37
HETATM   37  O   UNK N   1      25.099  20.666   1.779  0.00  0.00    -0.775 OA
HETATM   38  H   UNK N   1      25.738  21.338   1.654  0.00  0.00     0.167 HD
ENDBRANCH  35  37
ENDBRANCH  34  35
BRANCH  34  39
HETATM   39  C   UNK N   1      23.935  18.896   4.689  0.00  0.00     0.046 C 
BRANCH  39  40
HETATM   40  C   UNK N   1      23.155  17.970   3.787  0.00  0.00     0.112 C 
BRANCH  40  41
HETATM   41  C   UNK N   1      21.713  18.263   4.036  0.00  0.00     0.139 C 
HETATM   42  O   UNK N   1      20.900  17.352   4.048  0.00  0.00    -0.650 OA
BRANCH  41  43
HETATM   43  O   UNK N   1      21.314  19.521   4.295  0.00  0.00    -0.776 OA
HETATM   44  H   UNK N   1      20.415  19.735   4.450  0.00  0.00     0.167 HD
ENDBRANCH  41  43
ENDBRANCH  40  41
ENDBRANCH  39  40
ENDBRANCH  34  39
ENDBRANCH  31  34
ENDBRANCH  27  30
ENDBRANCH   1  24
TORSDOF 12
ENDMDL
MODEL 6
REMARK VINA RESULT:      -7.4      4.427     10.747
REMARK  12 active torsions:
REMARK  status: ('A' for Active; 'I' for Inactive)
REMARK    1  A    between atoms: N_26  and  C_7 
REMARK       I    between atoms: N_28  and  C_8 
REMARK    2  A    between atoms: C_11  and  C_18 
REMARK       I    between atoms: N_14  and  C_11 
REMARK    3  A    between atoms: C_16  and  N_14 
REMARK    4  A    between atoms: C_15  and  C_16 
REMARK    5  A    between atoms: O_20  and  C_15 
REMARK    6  A    between atoms: C_29  and  C_16 
REMARK    7  A    between atoms: C_17  and  C_33 
REMARK    8  A    between atoms: O_22  and  C_17 
REMARK    9  A    between atoms: C_32  and  C_19 
REMARK   10  A    between atoms: N_24  and  C_32 
REMARK   11  A    between atoms: C_34  and  N_24 
REMARK   12  A    between atoms: C_33  and  C_29 
ROOT
HETATM    1  N   UNK N   1      30.058  17.558   5.152  0.00  0.00    -0.384 N 
HETATM    2  H   UNK N   1      30.166  17.809   4.206  0.00  0.00     0.160 HD
ENDROOT
BRANCH   1   3
HETATM    3  C   UNK N   1      28.754  17.389   5.746  0.00  0.00     0.178 C 
BRANCH   3   4
HETATM    4  C   UNK N   1      27.684  18.201   5.111  0.00  0.00     0.043 A 
HETATM    5  N   UNK N   1      26.392  17.831   5.303  0.00  0.00    -0.351 N 
HETATM    6  C   UNK N   1      25.382  18.478   4.674  0.00  0.00     0.122 A 
ATOM      7  HN  UNK N   1      26.179  17.054   5.929  1.00  0.00     0.166 HD
HETATM    8  C   UNK N   1      24.051  18.098   4.852  0.00  0.00     0.145 A 
HETATM    9  C   UNK N   1      25.669  19.548   3.815  0.00  0.00     0.151 A 
HETATM   10  N   UNK N   1      23.070  18.775   4.201  0.00  0.00    -0.175 N 
HETATM   11  C   UNK N   1      23.363  19.818   3.376  0.00  0.00     0.679 A 
ATOM     12  HN  UNK N   1      22.097  18.497   4.331  1.00  0.00     0.186 HD
HETATM   13  N   UNK N   1      24.658  20.199   3.184  0.00  0.00    -0.174 N 
HETATM   14  N   UNK N   1      22.325  20.504   2.718  0.00  0.00    -0.234 N 
ATOM     15  HN  UNK N   1      24.869  20.979   2.562  1.00  0.00     0.186 HD
HETATM   16  H   UNK N   1      21.410  20.143   2.733  0.00  0.00     0.174 HD
HETATM   17  H   UNK N   1      22.515  21.344   2.241  0.00  0.00     0.174 HD
HETATM   18  N   UNK N   1      26.963  19.918   3.615  0.00  0.00    -0.348 N 
HETATM   19  C   UNK N   1      27.980  19.255   4.237  0.00  0.00     0.116 A 
ATOM     20  HN  UNK N   1      27.176  20.698   2.995  1.00  0.00     0.167 HD
BRANCH   8  21
HETATM   21  N   UNK N   1      23.720  17.017   5.695  0.00  0.00    -0.383 N 
HETATM   22  H   UNK N   1      23.769  16.090   5.368  0.00  0.00     0.157 HD
HETATM   23  H   UNK N   1      23.436  17.192   6.622  0.00  0.00     0.157 HD
ENDBRANCH   8  21
ENDBRANCH   3   4
ENDBRANCH   1   3
BRANCH   1  24
HETATM   24  C   UNK N   1      31.171  17.348   5.994  0.00  0.00     0.028 A 
HETATM   25  C   UNK N   1      31.001  17.431   7.376  0.00  0.00     0.030 A 
HETATM   26  C   UNK N   1      32.115  17.573   8.206  0.00  0.00     0.019 A 
HETATM   27  C   UNK N   1      33.416  17.598   7.670  0.00  0.00     0.032 A 
HETATM   28  C   UNK N   1      33.582  17.431   6.291  0.00  0.00     0.019 A 
HETATM   29  C   UNK N   1      32.467  17.332   5.454  0.00  0.00     0.030 A 
BRANCH  27  30
HETATM   30  C   UNK N   1      34.541  18.072   8.526  0.00  0.00     0.252 C 
HETATM   31  N   UNK N   1      35.234  17.276   9.387  0.00  0.00    -0.343 N 
HETATM   32  H   UNK N   1      36.165  17.527   9.581  0.00  0.00     0.163 HD
HETATM   33  O   UNK N   1      34.925  19.222   8.376  0.00  0.00    -0.268 OA
BRANCH  31  34
HETATM   34  C   UNK N   1      34.718  16.094  10.040  0.00  0.00     0.183 C 
BRANCH  34  35
HETATM   35  C   UNK N   1      35.728  15.767  11.119  0.00  0.00     0.163 C 
HETATM   36  O   UNK N   1      35.409  15.124  12.112  0.00  0.00    -0.648 OA
BRANCH  35  37
HETATM   37  O   UNK N   1      37.021  16.102  10.945  0.00  0.00    -0.775 OA
HETATM   38  H   UNK N   1      37.358  16.887  11.327  0.00  0.00     0.167 HD
ENDBRANCH  35  37
ENDBRANCH  34  35
BRANCH  34  39
HETATM   39  C   UNK N   1      34.593  14.863   9.138  0.00  0.00     0.046 C 
BRANCH  39  40
HETATM   40  C   UNK N   1      33.250  14.179   9.046  0.00  0.00     0.112 C 
BRANCH  40  41
HETATM   41  C   UNK N   1      32.998  13.951   7.592  0.00  0.00     0.139 C 
HETATM   42  O   UNK N   1      31.861  14.017   7.153  0.00  0.00    -0.650 OA
BRANCH  41  43
HETATM   43  O   UNK N   1      34.027  13.720   6.756  0.00  0.00    -0.776 OA
HETATM   44  H   UNK N   1      33.895  13.421   5.878  0.00  0.00     0.167 HD
ENDBRANCH  41  43
ENDBRANCH  40  41
ENDBRANCH  39  40
ENDBRANCH  34  39
ENDBRANCH  31  34
ENDBRANCH  27  30
ENDBRANCH   1  24
TORSDOF 12
ENDMDL
MODEL 7
REMARK VINA RESULT:      -7.4      1.330      2.091
REMARK  12 active torsions:
REMARK  status: ('A' for Active; 'I' for Inactive)
REMARK    1  A    between atoms: N_26  and  C_7 
REMARK       I    between atoms: N_28  and  C_8 
REMARK    2  A    between atoms: C_11  and  C_18 
REMARK       I    between atoms: N_14  and  C_11 
REMARK    3  A    between atoms: C_16  and  N_14 
REMARK    4  A    between atoms: C_15  and  C_16 
REMARK    5  A    between atoms: O_20  and  C_15 
REMARK    6  A    between atoms: C_29  and  C_16 
REMARK    7  A    between atoms: C_17  and  C_33 
REMARK    8  A    between atoms: O_22  and  C_17 
REMARK    9  A    between atoms: C_32  and  C_19 
REMARK   10  A    between atoms: N_24  and  C_32 
REMARK   11  A    between atoms: C_34  and  N_24 
REMARK   12  A    between atoms: C_33  and  C_29 
ROOT
HETATM    1  N   UNK N   1      33.337  15.712   7.549  0.00  0.00    -0.384 N 
HETATM    2  H   UNK N   1      34.240  16.094   7.466  0.00  0.00     0.160 HD
ENDROOT
BRANCH   1   3
HETATM    3  C   UNK N   1      33.127  14.291   7.682  0.00  0.00     0.178 C 
BRANCH   3   4
HETATM    4  C   UNK N   1      33.755  13.691   8.888  0.00  0.00     0.043 A 
HETATM    5  N   UNK N   1      34.642  14.438   9.594  0.00  0.00    -0.351 N 
HETATM    6  C   UNK N   1      35.313  13.912  10.646  0.00  0.00     0.122 A 
ATOM      7  HN  UNK N   1      34.805  15.410   9.328  1.00  0.00     0.166 HD
HETATM    8  C   UNK N   1      36.237  14.665  11.371  0.00  0.00     0.145 A 
HETATM    9  C   UNK N   1      35.090  12.579  11.018  0.00  0.00     0.151 A 
HETATM   10  N   UNK N   1      36.888  14.097  12.418  0.00  0.00    -0.175 N 
HETATM   11  C   UNK N   1      36.655  12.804  12.773  0.00  0.00     0.679 A 
ATOM     12  HN  UNK N   1      37.564  14.649  12.948  1.00  0.00     0.186 HD
HETATM   13  N   UNK N   1      35.761  12.050  12.073  0.00  0.00    -0.174 N 
HETATM   14  N   UNK N   1      37.341  12.242  13.867  0.00  0.00    -0.234 N 
ATOM     15  HN  UNK N   1      35.595  11.081  12.343  1.00  0.00     0.186 HD
HETATM   16  H   UNK N   1      38.091  12.728  14.279  0.00  0.00     0.174 HD
HETATM   17  H   UNK N   1      37.072  11.363  14.218  0.00  0.00     0.174 HD
HETATM   18  N   UNK N   1      34.206  11.825  10.309  0.00  0.00    -0.348 N 
HETATM   19  C   UNK N   1      33.543  12.351   9.240  0.00  0.00     0.116 A 
ATOM     20  HN  UNK N   1      34.038  10.857  10.578  1.00  0.00     0.167 HD
BRANCH   8  21
HETATM   21  N   UNK N   1      36.503  16.006  11.021  0.00  0.00    -0.383 N 
HETATM   22  H   UNK N   1      37.236  16.229  10.402  0.00  0.00     0.157 HD
HETATM   23  H   UNK N   1      35.950  16.727  11.399  0.00  0.00     0.157 HD
ENDBRANCH   8  21
ENDBRANCH   3   4
ENDBRANCH   1   3
BRANCH   1  24
HETATM   24  C   UNK N   1      32.184  16.526   7.542  0.00  0.00     0.028 A 
HETATM   25  C   UNK N   1      32.055  17.528   8.504  0.00  0.00     0.030 A 
HETATM   26  C   UNK N   1      30.807  18.107   8.740  0.00  0.00     0.019 A 
HETATM   27  C   UNK N   1      29.678  17.719   7.995  0.00  0.00     0.032 A 
HETATM   28  C   UNK N   1      29.833  16.773   6.976  0.00  0.00     0.019 A 
HETATM   29  C   UNK N   1      31.073  16.162   6.766  0.00  0.00     0.030 A 
BRANCH  27  30
HETATM   30  C   UNK N   1      28.323  18.105   8.482  0.00  0.00     0.252 C 
HETATM   31  N   UNK N   1      27.453  18.885   7.782  0.00  0.00    -0.343 N 
HETATM   32  H   UNK N   1      26.493  18.753   7.952  0.00  0.00     0.163 HD
HETATM   33  O   UNK N   1      27.934  17.615   9.531  0.00  0.00    -0.268 OA
BRANCH  31  34
HETATM   34  C   UNK N   1      27.820  19.890   6.809  0.00  0.00     0.183 C 
BRANCH  34  35
HETATM   35  C   UNK N   1      26.810  21.003   6.994  0.00  0.00     0.163 C 
HETATM   36  O   UNK N   1      26.695  21.898   6.165  0.00  0.00    -0.648 OA
BRANCH  35  37
HETATM   37  O   UNK N   1      25.954  20.961   8.033  0.00  0.00    -0.775 OA
HETATM   38  H   UNK N   1      25.812  20.157   8.491  0.00  0.00     0.167 HD
ENDBRANCH  35  37
ENDBRANCH  34  35
BRANCH  34  39
HETATM   39  C   UNK N   1      27.740  19.433   5.350  0.00  0.00     0.046 C 
BRANCH  39  40
HETATM   40  C   UNK N   1      26.893  18.227   5.025  0.00  0.00     0.112 C 
BRANCH  40  41
HETATM   41  C   UNK N   1      27.597  17.507   3.924  0.00  0.00     0.139 C 
HETATM   42  O   UNK N   1      26.977  16.746   3.199  0.00  0.00    -0.650 OA
BRANCH  41  43
HETATM   43  O   UNK N   1      28.905  17.731   3.699  0.00  0.00    -0.776 OA
HETATM   44  H   UNK N   1      29.575  17.293   4.186  0.00  0.00     0.167 HD
ENDBRANCH  41  43
ENDBRANCH  40  41
ENDBRANCH  39  40
ENDBRANCH  34  39
ENDBRANCH  31  34
ENDBRANCH  27  30
ENDBRANCH   1  24
TORSDOF 12
ENDMDL
MODEL 8
REMARK VINA RESULT:      -7.4     14.164     18.092
REMARK  12 active torsions:
REMARK  status: ('A' for Active; 'I' for Inactive)
REMARK    1  A    between atoms: N_26  and  C_7 
REMARK       I    between atoms: N_28  and  C_8 
REMARK    2  A    between atoms: C_11  and  C_18 
REMARK       I    between atoms: N_14  and  C_11 
REMARK    3  A    between atoms: C_16  and  N_14 
REMARK    4  A    between atoms: C_15  and  C_16 
REMARK    5  A    between atoms: O_20  and  C_15 
REMARK    6  A    between atoms: C_29  and  C_16 
REMARK    7  A    between atoms: C_17  and  C_33 
REMARK    8  A    between atoms: O_22  and  C_17 
REMARK    9  A    between atoms: C_32  and  C_19 
REMARK   10  A    between atoms: N_24  and  C_32 
REMARK   11  A    between atoms: C_34  and  N_24 
REMARK   12  A    between atoms: C_33  and  C_29 
ROOT
HETATM    1  N   UNK N   1      27.601  23.487  -7.288  0.00  0.00    -0.384 N 
HETATM    2  H   UNK N   1      27.200  23.953  -8.056  0.00  0.00     0.160 HD
ENDROOT
BRANCH   1   3
HETATM    3  C   UNK N   1      27.076  23.636  -5.952  0.00  0.00     0.178 C 
BRANCH   3   4
HETATM    4  C   UNK N   1      26.678  25.025  -5.604  0.00  0.00     0.043 A 
HETATM    5  N   UNK N   1      27.590  25.825  -4.995  0.00  0.00    -0.351 N 
HETATM    6  C   UNK N   1      27.255  27.068  -4.573  0.00  0.00     0.122 A 
ATOM      7  HN  UNK N   1      28.542  25.486  -4.854  1.00  0.00     0.166 HD
HETATM    8  C   UNK N   1      28.179  27.894  -3.933  0.00  0.00     0.145 A 
HETATM    9  C   UNK N   1      25.949  27.540  -4.769  0.00  0.00     0.151 A 
HETATM   10  N   UNK N   1      27.799  29.132  -3.527  0.00  0.00    -0.175 N 
HETATM   11  C   UNK N   1      26.529  29.581  -3.731  0.00  0.00     0.679 A 
ATOM     12  HN  UNK N   1      28.475  29.737  -3.058  1.00  0.00     0.186 HD
HETATM   13  N   UNK N   1      25.611  28.785  -4.347  0.00  0.00    -0.174 N 
HETATM   14  N   UNK N   1      26.164  30.871  -3.302  0.00  0.00    -0.234 N 
ATOM     15  HN  UNK N   1      24.661  29.128  -4.493  1.00  0.00     0.186 HD
HETATM   16  H   UNK N   1      26.773  31.389  -2.727  0.00  0.00     0.174 HD
HETATM   17  H   UNK N   1      25.300  31.255  -3.575  0.00  0.00     0.174 HD
HETATM   18  N   UNK N   1      25.030  26.738  -5.373  0.00  0.00    -0.348 N 
HETATM   19  C   UNK N   1      25.366  25.482  -5.783  0.00  0.00     0.116 A 
ATOM     20  HN  UNK N   1      24.081  27.080  -5.521  1.00  0.00     0.167 HD
BRANCH   8  21
HETATM   21  N   UNK N   1      29.498  27.452  -3.703  0.00  0.00    -0.383 N 
HETATM   22  H   UNK N   1      29.791  27.190  -2.800  0.00  0.00     0.157 HD
HETATM   23  H   UNK N   1      30.134  27.405  -4.453  0.00  0.00     0.157 HD
ENDBRANCH   8  21
ENDBRANCH   3   4
ENDBRANCH   1   3
BRANCH   1  24
HETATM   24  C   UNK N   1      28.721  22.640  -7.438  0.00  0.00     0.028 A 
HETATM   25  C   UNK N   1      28.563  21.267  -7.251  0.00  0.00     0.030 A 
HETATM   26  C   UNK N   1      29.685  20.459  -7.052  0.00  0.00     0.019 A 
HETATM   27  C   UNK N   1      30.981  21.007  -7.072  0.00  0.00     0.032 A 
HETATM   28  C   UNK N   1      31.135  22.371  -7.342  0.00  0.00     0.019 A 
HETATM   29  C   UNK N   1      30.012  23.188  -7.500  0.00  0.00     0.030 A 
BRANCH  27  30
HETATM   30  C   UNK N   1      32.114  20.198  -6.539  0.00  0.00     0.252 C 
HETATM   31  N   UNK N   1      32.471  20.156  -5.225  0.00  0.00    -0.343 N 
HETATM   32  H   UNK N   1      32.912  19.337  -4.904  0.00  0.00     0.163 HD
HETATM   33  O   UNK N   1      32.698  19.457  -7.313  0.00  0.00    -0.268 OA
BRANCH  31  34
HETATM   34  C   UNK N   1      32.256  21.212  -4.260  0.00  0.00     0.183 C 
BRANCH  34  35
HETATM   35  C   UNK N   1      33.304  20.986  -3.190  0.00  0.00     0.163 C 
HETATM   36  O   UNK N   1      34.482  20.819  -3.482  0.00  0.00    -0.648 OA
BRANCH  35  37
HETATM   37  O   UNK N   1      32.958  21.068  -1.892  0.00  0.00    -0.775 OA
HETATM   38  H   UNK N   1      33.164  21.837  -1.399  0.00  0.00     0.167 HD
ENDBRANCH  35  37
ENDBRANCH  34  35
BRANCH  34  39
HETATM   39  C   UNK N   1      30.887  21.191  -3.577  0.00  0.00     0.046 C 
BRANCH  39  40
HETATM   40  C   UNK N   1      29.995  22.399  -3.730  0.00  0.00     0.112 C 
BRANCH  40  41
HETATM   41  C   UNK N   1      30.389  23.348  -2.647  0.00  0.00     0.139 C 
HETATM   42  O   UNK N   1      30.636  22.927  -1.528  0.00  0.00    -0.650 OA
BRANCH  41  43
HETATM   43  O   UNK N   1      30.517  24.661  -2.913  0.00  0.00    -0.776 OA
HETATM   44  H   UNK N   1      30.968  25.242  -2.333  0.00  0.00     0.167 HD
ENDBRANCH  41  43
ENDBRANCH  40  41
ENDBRANCH  39  40
ENDBRANCH  34  39
ENDBRANCH  31  34
ENDBRANCH  27  30
ENDBRANCH   1  24
TORSDOF 12
ENDMDL
MODEL 9
REMARK VINA RESULT:      -7.4      4.544     11.445
REMARK  12 active torsions:
REMARK  status: ('A' for Active; 'I' for Inactive)
REMARK    1  A    between atoms: N_26  and  C_7 
REMARK       I    between atoms: N_28  and  C_8 
REMARK    2  A    between atoms: C_11  and  C_18 
REMARK       I    between atoms: N_14  and  C_11 
REMARK    3  A    between atoms: C_16  and  N_14 
REMARK    4  A    between atoms: C_15  and  C_16 
REMARK    5  A    between atoms: O_20  and  C_15 
REMARK    6  A    between atoms: C_29  and  C_16 
REMARK    7  A    between atoms: C_17  and  C_33 
REMARK    8  A    between atoms: O_22  and  C_17 
REMARK    9  A    between atoms: C_32  and  C_19 
REMARK   10  A    between atoms: N_24  and  C_32 
REMARK   11  A    between atoms: C_34  and  N_24 
REMARK   12  A    between atoms: C_33  and  C_29 
ROOT
HETATM    1  N   UNK N   1      26.260  18.339   5.631  0.00  0.00    -0.384 N 
HETATM    2  H   UNK N   1      25.630  18.066   6.337  0.00  0.00     0.160 HD
ENDROOT
BRANCH   1   3
HETATM    3  C   UNK N   1      26.026  19.507   4.817  0.00  0.00     0.178 C 
BRANCH   3   4
HETATM    4  C   UNK N   1      24.650  19.598   4.262  0.00  0.00     0.043 A 
HETATM    5  N   UNK N   1      23.744  18.653   4.621  0.00  0.00    -0.351 N 
HETATM    6  C   UNK N   1      22.505  18.634   4.076  0.00  0.00     0.122 A 
ATOM      7  HN  UNK N   1      24.001  17.946   5.312  1.00  0.00     0.166 HD
HETATM    8  C   UNK N   1      21.570  17.659   4.425  0.00  0.00     0.145 A 
HETATM    9  C   UNK N   1      22.145  19.604   3.129  0.00  0.00     0.151 A 
HETATM   10  N   UNK N   1      20.338  17.678   3.853  0.00  0.00    -0.175 N 
HETATM   11  C   UNK N   1      20.001  18.632   2.942  0.00  0.00     0.679 A 
ATOM     12  HN  UNK N   1      19.655  16.965   4.109  1.00  0.00     0.186 HD
HETATM   13  N   UNK N   1      20.903  19.587   2.582  0.00  0.00    -0.174 N 
HETATM   14  N   UNK N   1      18.716  18.629   2.367  0.00  0.00    -0.234 N 
ATOM     15  HN  UNK N   1      20.644  20.296   1.896  1.00  0.00     0.186 HD
HETATM   16  H   UNK N   1      18.116  17.862   2.508  0.00  0.00     0.174 HD
HETATM   17  H   UNK N   1      18.417  19.395   1.825  0.00  0.00     0.174 HD
HETATM   18  N   UNK N   1      23.053  20.550   2.763  0.00  0.00    -0.348 N 
HETATM   19  C   UNK N   1      24.306  20.558   3.301  0.00  0.00     0.116 A 
ATOM     20  HN  UNK N   1      22.795  21.259   2.078  1.00  0.00     0.167 HD
BRANCH   8  21
HETATM   21  N   UNK N   1      21.895  16.656   5.362  0.00  0.00    -0.383 N 
HETATM   22  H   UNK N   1      22.042  15.726   5.073  0.00  0.00     0.157 HD
HETATM   23  H   UNK N   1      21.975  16.887   6.316  0.00  0.00     0.157 HD
ENDBRANCH   8  21
ENDBRANCH   3   4
ENDBRANCH   1   3
BRANCH   1  24
HETATM   24  C   UNK N   1      27.436  17.605   5.365  0.00  0.00     0.028 A 
HETATM   25  C   UNK N   1      27.591  16.341   5.934  0.00  0.00     0.030 A 
HETATM   26  C   UNK N   1      28.855  15.749   5.977  0.00  0.00     0.019 A 
HETATM   27  C   UNK N   1      29.974  16.395   5.421  0.00  0.00     0.032 A 
HETATM   28  C   UNK N   1      29.795  17.625   4.779  0.00  0.00     0.019 A 
HETATM   29  C   UNK N   1      28.539  18.239   4.772  0.00  0.00     0.030 A 
BRANCH  27  30
HETATM   30  C   UNK N   1      31.338  15.902   5.767  0.00  0.00     0.252 C 
HETATM   31  N   UNK N   1      32.008  16.244   6.903  0.00  0.00    -0.343 N 
HETATM   32  H   UNK N   1      32.664  15.598   7.250  0.00  0.00     0.163 HD
HETATM   33  O   UNK N   1      31.845  15.068   5.034  0.00  0.00    -0.268 OA
BRANCH  31  34
HETATM   34  C   UNK N   1      31.838  17.475   7.642  0.00  0.00     0.183 C 
BRANCH  34  35
HETATM   35  C   UNK N   1      33.180  17.730   8.297  0.00  0.00     0.163 C 
HETATM   36  O   UNK N   1      33.964  18.551   7.837  0.00  0.00    -0.648 OA
BRANCH  35  37
HETATM   37  O   UNK N   1      33.480  17.119   9.459  0.00  0.00    -0.775 OA
HETATM   38  H   UNK N   1      32.918  16.451   9.797  0.00  0.00     0.167 HD
ENDBRANCH  35  37
ENDBRANCH  34  35
BRANCH  34  39
HETATM   39  C   UNK N   1      30.786  17.420   8.753  0.00  0.00     0.046 C 
BRANCH  39  40
HETATM   40  C   UNK N   1      30.083  18.700   9.135  0.00  0.00     0.112 C 
BRANCH  40  41
HETATM   41  C   UNK N   1      28.624  18.442   8.959  0.00  0.00     0.139 C 
HETATM   42  O   UNK N   1      27.967  19.145   8.207  0.00  0.00    -0.650 OA
BRANCH  41  43
HETATM   43  O   UNK N   1      28.039  17.408   9.591  0.00  0.00    -0.776 OA
HETATM   44  H   UNK N   1      27.140  17.185   9.451  0.00  0.00     0.167 HD
ENDBRANCH  41  43
ENDBRANCH  40  41
ENDBRANCH  39  40
ENDBRANCH  34  39
ENDBRANCH  31  34
ENDBRANCH  27  30
ENDBRANCH   1  24
TORSDOF 12
ENDMDL
