MODEL 1
REMARK VINA RESULT:      -4.6      0.000      0.000
REMARK  6 active torsions:
REMARK  status: ('A' for Active; 'I' for Inactive)
REMARK    1  A    between atoms: C_1  and  C_2 
REMARK    2  A    between atoms: C_1  and  C_3 
REMARK    3  A    between atoms: C_2  and  C_4 
REMARK    4  A    between atoms: C_2  and  O_6 
REMARK    5  A    between atoms: C_4  and  N_5 
REMARK    6  A    between atoms: O_6  and  C_9 
ROOT
HETATM    1  C   UNK N   1      21.714  19.533   3.131  0.00  0.00     0.167 C 
ENDROOT
BRANCH   1   2
HETATM    2  C   UNK N   1      20.473  20.145   2.471  0.00  0.00     0.147 C 
BRANCH   2   3
HETATM    3  C   UNK N   1      20.701  20.755   1.112  0.00  0.00     0.175 C 
HETATM    4  O   UNK N   1      20.705  22.095   0.985  0.00  0.00    -0.648 OA
HETATM    5  O   UNK N   1      20.899  20.056   0.130  0.00  0.00    -0.648 OA
ENDBRANCH   2   3
ENDBRANCH   1   2
BRANCH   1   6
HETATM    6  C   UNK N   1      21.289  18.944   4.487  0.00  0.00     0.268 C 
BRANCH   6   7
HETATM    7  N   UNK N   1      21.337  17.480   4.563  0.00  0.00    -0.076 N 
HETATM    8  C   UNK N   1      21.730  17.116   5.911  0.00  0.00     0.271 C 
HETATM    9  C   UNK N   1      22.336  16.953   3.647  0.00  0.00     0.271 C 
HETATM   10  C   UNK N   1      20.051  16.858   4.285  0.00  0.00     0.271 C 
ENDBRANCH   6   7
ENDBRANCH   1   6
BRANCH   1  11
HETATM   11  O   UNK N   1      22.660  20.520   3.326  0.00  0.00    -0.314 OA
BRANCH  11  12
HETATM   12  C   UNK N   1      23.976  20.391   3.012  0.00  0.00     0.255 C 
HETATM   13  C   UNK N   1      24.937  19.685   3.916  0.00  0.00     0.126 C 
HETATM   14  O   UNK N   1      24.383  20.845   1.958  0.00  0.00    -0.266 OA
ENDBRANCH  11  12
ENDBRANCH   1  11
TORSDOF 6
ENDMDL
MODEL 2
REMARK VINA RESULT:      -4.4      9.936     12.213
REMARK  6 active torsions:
REMARK  status: ('A' for Active; 'I' for Inactive)
REMARK    1  A    between atoms: C_1  and  C_2 
REMARK    2  A    between atoms: C_1  and  C_3 
REMARK    3  A    between atoms: C_2  and  C_4 
REMARK    4  A    between atoms: C_2  and  O_6 
REMARK    5  A    between atoms: C_4  and  N_5 
REMARK    6  A    between atoms: O_6  and  C_9 
ROOT
HETATM    1  C   UNK N   1      32.116  16.836   7.804  0.00  0.00     0.167 C 
ENDROOT
BRANCH   1   2
HETATM    2  C   UNK N   1      32.835  18.062   8.378  0.00  0.00     0.147 C 
BRANCH   2   3
HETATM    3  C   UNK N   1      34.217  18.311   7.833  0.00  0.00     0.175 C 
HETATM    4  O   UNK N   1      34.594  17.701   6.693  0.00  0.00    -0.648 OA
HETATM    5  O   UNK N   1      34.993  19.068   8.395  0.00  0.00    -0.648 OA
ENDBRANCH   2   3
ENDBRANCH   1   2
BRANCH   1   6
HETATM    6  C   UNK N   1      30.736  17.289   7.297  0.00  0.00     0.268 C 
BRANCH   6   7
HETATM    7  N   UNK N   1      30.438  16.916   5.909  0.00  0.00    -0.076 N 
HETATM    8  C   UNK N   1      29.256  17.649   5.495  0.00  0.00     0.271 C 
HETATM    9  C   UNK N   1      30.142  15.496   5.815  0.00  0.00     0.271 C 
HETATM   10  C   UNK N   1      31.518  17.247   4.992  0.00  0.00     0.271 C 
ENDBRANCH   6   7
ENDBRANCH   1   6
BRANCH   1  11
HETATM   11  O   UNK N   1      31.961  15.890   8.798  0.00  0.00    -0.314 OA
BRANCH  11  12
HETATM   12  C   UNK N   1      32.655  14.725   8.861  0.00  0.00     0.255 C 
HETATM   13  C   UNK N   1      33.850  14.564   9.747  0.00  0.00     0.126 C 
HETATM   14  O   UNK N   1      32.285  13.775   8.192  0.00  0.00    -0.266 OA
ENDBRANCH  11  12
ENDBRANCH   1  11
TORSDOF 6
ENDMDL
MODEL 3
REMARK VINA RESULT:      -4.4     10.813     12.855
REMARK  6 active torsions:
REMARK  status: ('A' for Active; 'I' for Inactive)
REMARK    1  A    between atoms: C_1  and  C_2 
REMARK    2  A    between atoms: C_1  and  C_3 
REMARK    3  A    between atoms: C_2  and  C_4 
REMARK    4  A    between atoms: C_2  and  O_6 
REMARK    5  A    between atoms: C_4  and  N_5 
REMARK    6  A    between atoms: O_6  and  C_9 
ROOT
HETATM    1  C   UNK N   1      33.545  16.956   6.630  0.00  0.00     0.167 C 
ENDROOT
BRANCH   1   2
HETATM    2  C   UNK N   1      33.994  16.416   5.268  0.00  0.00     0.147 C 
BRANCH   2   3
HETATM    3  C   UNK N   1      34.905  15.218   5.318  0.00  0.00     0.175 C 
HETATM    4  O   UNK N   1      34.536  14.085   4.693  0.00  0.00    -0.648 OA
HETATM    5  O   UNK N   1      35.977  15.262   5.901  0.00  0.00    -0.648 OA
ENDBRANCH   2   3
ENDBRANCH   1   2
BRANCH   1   6
HETATM    6  C   UNK N   1      32.092  17.442   6.493  0.00  0.00     0.268 C 
BRANCH   6   7
HETATM    7  N   UNK N   1      31.175  16.939   7.523  0.00  0.00    -0.076 N 
HETATM    8  C   UNK N   1      29.874  16.752   6.909  0.00  0.00     0.271 C 
HETATM    9  C   UNK N   1      31.031  17.908   8.597  0.00  0.00     0.271 C 
HETATM   10  C   UNK N   1      31.599  15.662   8.079  0.00  0.00     0.271 C 
ENDBRANCH   6   7
ENDBRANCH   1   6
BRANCH   1  11
HETATM   11  O   UNK N   1      34.358  18.011   6.994  0.00  0.00    -0.314 OA
BRANCH  11  12
HETATM   12  C   UNK N   1      34.787  18.245   8.262  0.00  0.00     0.255 C 
HETATM   13  C   UNK N   1      34.665  17.214   9.339  0.00  0.00     0.126 C 
HETATM   14  O   UNK N   1      35.304  19.316   8.527  0.00  0.00    -0.266 OA
ENDBRANCH  11  12
ENDBRANCH   1  11
TORSDOF 6
ENDMDL
MODEL 4
REMARK VINA RESULT:      -4.4     12.817     15.187
REMARK  6 active torsions:
REMARK  status: ('A' for Active; 'I' for Inactive)
REMARK    1  A    between atoms: C_1  and  C_2 
REMARK    2  A    between atoms: C_1  and  C_3 
REMARK    3  A    between atoms: C_2  and  C_4 
REMARK    4  A    between atoms: C_2  and  O_6 
REMARK    5  A    between atoms: C_4  and  N_5 
REMARK    6  A    between atoms: O_6  and  C_9 
ROOT
HETATM    1  C   UNK N   1      34.662  16.272   9.896  0.00  0.00     0.167 C 
ENDROOT
BRANCH   1   2
HETATM    2  C   UNK N   1      35.557  16.151  11.134  0.00  0.00     0.147 C 
BRANCH   2   3
HETATM    3  C   UNK N   1      35.646  14.771  11.732  0.00  0.00     0.175 C 
HETATM    4  O   UNK N   1      34.532  14.194  12.220  0.00  0.00    -0.648 OA
HETATM    5  O   UNK N   1      36.704  14.163  11.768  0.00  0.00    -0.648 OA
ENDBRANCH   2   3
ENDBRANCH   1   2
BRANCH   1   6
HETATM    6  C   UNK N   1      35.165  15.267   8.846  0.00  0.00     0.268 C 
BRANCH   6   7
HETATM    7  N   UNK N   1      34.168  14.281   8.411  0.00  0.00    -0.076 N 
HETATM    8  C   UNK N   1      33.938  14.476   6.992  0.00  0.00     0.271 C 
HETATM    9  C   UNK N   1      32.908  14.491   9.104  0.00  0.00     0.271 C 
HETATM   10  C   UNK N   1      34.608  12.909   8.612  0.00  0.00     0.271 C 
ENDBRANCH   6   7
ENDBRANCH   1   6
BRANCH   1  11
HETATM   11  O   UNK N   1      34.750  17.556   9.393  0.00  0.00    -0.314 OA
BRANCH  11  12
HETATM   12  C   UNK N   1      34.079  17.996   8.297  0.00  0.00     0.255 C 
HETATM   13  C   UNK N   1      32.583  18.026   8.247  0.00  0.00     0.126 C 
HETATM   14  O   UNK N   1      34.709  18.395   7.334  0.00  0.00    -0.266 OA
ENDBRANCH  11  12
ENDBRANCH   1  11
TORSDOF 6
ENDMDL
MODEL 5
REMARK VINA RESULT:      -4.4     13.173     14.691
REMARK  6 active torsions:
REMARK  status: ('A' for Active; 'I' for Inactive)
REMARK    1  A    between atoms: C_1  and  C_2 
REMARK    2  A    between atoms: C_1  and  C_3 
REMARK    3  A    between atoms: C_2  and  C_4 
REMARK    4  A    between atoms: C_2  and  O_6 
REMARK    5  A    between atoms: C_4  and  N_5 
REMARK    6  A    between atoms: O_6  and  C_9 
ROOT
HETATM    1  C   UNK N   1      34.379  16.002   9.267  0.00  0.00     0.167 C 
ENDROOT
BRANCH   1   2
HETATM    2  C   UNK N   1      33.748  17.364   8.961  0.00  0.00     0.147 C 
BRANCH   2   3
HETATM    3  C   UNK N   1      34.531  18.239   8.018  0.00  0.00     0.175 C 
HETATM    4  O   UNK N   1      35.290  19.231   8.519  0.00  0.00    -0.648 OA
HETATM    5  O   UNK N   1      34.502  18.055   6.811  0.00  0.00    -0.648 OA
ENDBRANCH   2   3
ENDBRANCH   1   2
BRANCH   1   6
HETATM    6  C   UNK N   1      33.402  14.909   8.799  0.00  0.00     0.268 C 
BRANCH   6   7
HETATM    7  N   UNK N   1      33.951  13.980   7.805  0.00  0.00    -0.076 N 
HETATM    8  C   UNK N   1      33.027  13.924   6.688  0.00  0.00     0.271 C 
HETATM    9  C   UNK N   1      34.062  12.642   8.363  0.00  0.00     0.271 C 
HETATM   10  C   UNK N   1      35.248  14.400   7.295  0.00  0.00     0.271 C 
ENDBRANCH   6   7
ENDBRANCH   1   6
BRANCH   1  11
HETATM   11  O   UNK N   1      34.586  15.890  10.628  0.00  0.00    -0.314 OA
BRANCH  11  12
HETATM   12  C   UNK N   1      35.162  14.816  11.229  0.00  0.00     0.255 C 
HETATM   13  C   UNK N   1      36.530  14.340  10.852  0.00  0.00     0.126 C 
HETATM   14  O   UNK N   1      34.558  14.234  12.113  0.00  0.00    -0.266 OA
ENDBRANCH  11  12
ENDBRANCH   1  11
TORSDOF 6
ENDMDL
MODEL 6
REMARK VINA RESULT:      -4.3     10.189     12.051
REMARK  6 active torsions:
REMARK  status: ('A' for Active; 'I' for Inactive)
REMARK    1  A    between atoms: C_1  and  C_2 
REMARK    2  A    between atoms: C_1  and  C_3 
REMARK    3  A    between atoms: C_2  and  C_4 
REMARK    4  A    between atoms: C_2  and  O_6 
REMARK    5  A    between atoms: C_4  and  N_5 
REMARK    6  A    between atoms: O_6  and  C_9 
ROOT
HETATM    1  C   UNK N   1      29.385  23.581  -4.344  0.00  0.00     0.167 C 
ENDROOT
BRANCH   1   2
HETATM    2  C   UNK N   1      30.617  23.854  -3.474  0.00  0.00     0.147 C 
BRANCH   2   3
HETATM    3  C   UNK N   1      30.803  22.917  -2.309  0.00  0.00     0.175 C 
HETATM    4  O   UNK N   1      31.749  21.962  -2.379  0.00  0.00    -0.648 OA
HETATM    5  O   UNK N   1      30.123  23.019  -1.300  0.00  0.00    -0.648 OA
ENDBRANCH   2   3
ENDBRANCH   1   2
BRANCH   1   6
HETATM    6  C   UNK N   1      29.821  23.648  -5.818  0.00  0.00     0.268 C 
BRANCH   6   7
HETATM    7  N   UNK N   1      29.539  22.437  -6.597  0.00  0.00    -0.076 N 
HETATM    8  C   UNK N   1      28.114  22.403  -6.869  0.00  0.00     0.271 C 
HETATM    9  C   UNK N   1      29.879  21.247  -5.834  0.00  0.00     0.271 C 
HETATM   10  C   UNK N   1      30.241  22.410  -7.872  0.00  0.00     0.271 C 
ENDBRANCH   6   7
ENDBRANCH   1   6
BRANCH   1  11
HETATM   11  O   UNK N   1      28.428  24.546  -4.096  0.00  0.00    -0.314 OA
BRANCH  11  12
HETATM   12  C   UNK N   1      27.175  24.282  -3.644  0.00  0.00     0.255 C 
HETATM   13  C   UNK N   1      25.968  24.465  -4.510  0.00  0.00     0.126 C 
HETATM   14  O   UNK N   1      27.027  23.865  -2.509  0.00  0.00    -0.266 OA
ENDBRANCH  11  12
ENDBRANCH   1  11
TORSDOF 6
ENDMDL
MODEL 7
REMARK VINA RESULT:      -4.2     15.793     17.624
REMARK  6 active torsions:
REMARK  status: ('A' for Active; 'I' for Inactive)
REMARK    1  A    between atoms: C_1  and  C_2 
REMARK    2  A    between atoms: C_1  and  C_3 
REMARK    3  A    between atoms: C_2  and  C_4 
REMARK    4  A    between atoms: C_2  and  O_6 
REMARK    5  A    between atoms: C_4  and  N_5 
REMARK    6  A    between atoms: O_6  and  C_9 
ROOT
HETATM    1  C   UNK N   1      35.383  13.951  11.815  0.00  0.00     0.167 C 
ENDROOT
BRANCH   1   2
HETATM    2  C   UNK N   1      34.654  15.137  11.175  0.00  0.00     0.147 C 
BRANCH   2   3
HETATM    3  C   UNK N   1      35.539  16.268  10.721  0.00  0.00     0.175 C 
HETATM    4  O   UNK N   1      34.976  17.385  10.225  0.00  0.00    -0.648 OA
HETATM    5  O   UNK N   1      36.755  16.196  10.810  0.00  0.00    -0.648 OA
ENDBRANCH   2   3
ENDBRANCH   1   2
BRANCH   1   6
HETATM    6  C   UNK N   1      35.419  12.805  10.790  0.00  0.00     0.268 C 
BRANCH   6   7
HETATM    7  N   UNK N   1      36.693  12.080  10.723  0.00  0.00    -0.076 N 
HETATM    8  C   UNK N   1      36.629  10.980  11.667  0.00  0.00     0.271 C 
HETATM    9  C   UNK N   1      37.794  12.945  11.116  0.00  0.00     0.271 C 
HETATM   10  C   UNK N   1      36.959  11.528   9.403  0.00  0.00     0.271 C 
ENDBRANCH   6   7
ENDBRANCH   1   6
BRANCH   1  11
HETATM   11  O   UNK N   1      34.694  13.547  12.943  0.00  0.00    -0.314 OA
BRANCH  11  12
HETATM   12  C   UNK N   1      35.242  13.457  14.183  0.00  0.00     0.255 C 
HETATM   13  C   UNK N   1      36.636  13.923  14.465  0.00  0.00     0.126 C 
HETATM   14  O   UNK N   1      34.575  13.004  15.096  0.00  0.00    -0.266 OA
ENDBRANCH  11  12
ENDBRANCH   1  11
TORSDOF 6
ENDMDL
MODEL 8
REMARK VINA RESULT:      -4.2     11.652     13.488
REMARK  6 active torsions:
REMARK  status: ('A' for Active; 'I' for Inactive)
REMARK    1  A    between atoms: C_1  and  C_2 
REMARK    2  A    between atoms: C_1  and  C_3 
REMARK    3  A    between atoms: C_2  and  C_4 
REMARK    4  A    between atoms: C_2  and  O_6 
REMARK    5  A    between atoms: C_4  and  N_5 
REMARK    6  A    between atoms: O_6  and  C_9 
ROOT
HETATM    1  C   UNK N   1      34.156  16.300   6.449  0.00  0.00     0.167 C 
ENDROOT
BRANCH   1   2
HETATM    2  C   UNK N   1      35.215  15.257   6.824  0.00  0.00     0.147 C 
BRANCH   2   3
HETATM    3  C   UNK N   1      35.113  14.710   8.224  0.00  0.00     0.175 C 
HETATM    4  O   UNK N   1      34.545  13.506   8.419  0.00  0.00    -0.648 OA
HETATM    5  O   UNK N   1      35.551  15.331   9.179  0.00  0.00    -0.648 OA
ENDBRANCH   2   3
ENDBRANCH   1   2
BRANCH   1   6
HETATM    6  C   UNK N   1      33.900  16.195   4.936  0.00  0.00     0.268 C 
BRANCH   6   7
HETATM    7  N   UNK N   1      32.491  16.302   4.542  0.00  0.00    -0.076 N 
HETATM    8  C   UNK N   1      31.681  15.843   5.655  0.00  0.00     0.271 C 
HETATM    9  C   UNK N   1      32.213  15.445   3.401  0.00  0.00     0.271 C 
HETATM   10  C   UNK N   1      32.095  17.667   4.230  0.00  0.00     0.271 C 
ENDBRANCH   6   7
ENDBRANCH   1   6
BRANCH   1  11
HETATM   11  O   UNK N   1      34.629  17.561   6.757  0.00  0.00    -0.314 OA
BRANCH  11  12
HETATM   12  C   UNK N   1      34.214  18.295   7.822  0.00  0.00     0.255 C 
HETATM   13  C   UNK N   1      32.841  18.141   8.399  0.00  0.00     0.126 C 
HETATM   14  O   UNK N   1      34.984  19.086   8.336  0.00  0.00    -0.266 OA
ENDBRANCH  11  12
ENDBRANCH   1  11
TORSDOF 6
ENDMDL
MODEL 9
REMARK VINA RESULT:      -4.0     10.105     11.192
REMARK  6 active torsions:
REMARK  status: ('A' for Active; 'I' for Inactive)
REMARK    1  A    between atoms: C_1  and  C_2 
REMARK    2  A    between atoms: C_1  and  C_3 
REMARK    3  A    between atoms: C_2  and  C_4 
REMARK    4  A    between atoms: C_2  and  O_6 
REMARK    5  A    between atoms: C_4  and  N_5 
REMARK    6  A    between atoms: O_6  and  C_9 
ROOT
HETATM    1  C   UNK N   1      27.072  24.959  -3.978  0.00  0.00     0.167 C 
ENDROOT
BRANCH   1   2
HETATM    2  C   UNK N   1      26.053  24.241  -4.869  0.00  0.00     0.147 C 
BRANCH   2   3
HETATM    3  C   UNK N   1      26.224  24.462  -6.349  0.00  0.00     0.175 C 
HETATM    4  O   UNK N   1      25.225  24.121  -7.184  0.00  0.00    -0.648 OA
HETATM    5  O   UNK N   1      27.244  24.959  -6.802  0.00  0.00    -0.648 OA
ENDBRANCH   2   3
ENDBRANCH   1   2
BRANCH   1   6
HETATM    6  C   UNK N   1      27.785  23.898  -3.122  0.00  0.00     0.268 C 
BRANCH   6   7
HETATM    7  N   UNK N   1      29.223  23.763  -3.383  0.00  0.00    -0.076 N 
HETATM    8  C   UNK N   1      29.384  22.951  -4.575  0.00  0.00     0.271 C 
HETATM    9  C   UNK N   1      29.881  23.079  -2.282  0.00  0.00     0.271 C 
HETATM   10  C   UNK N   1      29.876  25.042  -3.618  0.00  0.00     0.271 C 
ENDBRANCH   6   7
ENDBRANCH   1   6
BRANCH   1  11
HETATM   11  O   UNK N   1      26.411  25.853  -3.158  0.00  0.00    -0.314 OA
BRANCH  11  12
HETATM   12  C   UNK N   1      26.235  27.169  -3.446  0.00  0.00     0.255 C 
HETATM   13  C   UNK N   1      26.962  27.835  -4.572  0.00  0.00     0.126 C 
HETATM   14  O   UNK N   1      25.448  27.823  -2.784  0.00  0.00    -0.266 OA
ENDBRANCH  11  12
ENDBRANCH   1  11
TORSDOF 6
ENDMDL
