REMARK  5 active torsions:
REMARK  status: ('A' for Active; 'I' for Inactive)
REMARK    1  A    between atoms: O_1  and  C_13 
REMARK    2  A    between atoms: C_8  and  N_4 
REMARK    3  A    between atoms: C_5  and  C_6 
REMARK    4  A    between atoms: C_6  and  C_8 
REMARK    5  A    between atoms: C_8  and  C_13 
ROOT
HETATM    1  N   UNK N   1       3.746  -2.711   0.000  0.00  0.00    -0.365 N 
HETATM    2  C   UNK N   1       3.797  -0.462  -0.000  0.00  0.00    -0.028 A 
HETATM    3  C   UNK N   1       2.490  -0.866  -0.000  0.00  0.00    -0.002 A 
HETATM    4  C   UNK N   1       2.491  -2.229   0.000  0.00  0.00     0.042 A 
HETATM    5  C   UNK N   1       4.566  -1.626   0.000  0.00  0.00     0.096 A 
HETATM    6  C   UNK N   1       1.311  -0.125  -0.000  0.00  0.00     0.014 A 
HETATM    7  C   UNK N   1       1.306  -2.961   0.000  0.00  0.00     0.030 A 
HETATM    8  C   UNK N   1       0.095  -0.831  -0.000  0.00  0.00     0.001 A 
HETATM    9  C   UNK N   1       0.093  -2.245   0.000  0.00  0.00     0.002 A 
HETATM   10  H   UNK N   1       4.017  -3.658   0.000  0.00  0.00     0.165 HD
ENDROOT
BRANCH   2  11
HETATM   11  C   UNK N   1       4.227   0.976  -0.000  0.00  0.00     0.076 C 
BRANCH  11  12
HETATM   12  C   UNK N   1       5.718   1.313   0.000  0.00  0.00     0.177 C 
BRANCH  12  13
HETATM   13  N   UNK N   1       6.732   0.271  -0.000  0.00  0.00    -0.417 N 
HETATM   14  H   UNK N   1       6.455  -0.711  -0.000  0.00  0.00     0.150 HD
HETATM   15  H   UNK N   1       7.721   0.521  -0.000  0.00  0.00     0.150 HD
ENDBRANCH  12  13
BRANCH  12  16
HETATM   16  C   UNK N   1       6.168   2.741   0.000  0.00  0.00     0.163 C 
HETATM   17  O   UNK N   1       5.343   3.641  -0.000  0.00  0.00    -0.648 OA
BRANCH  16  18
HETATM   18  O   UNK N   1       7.481   3.041  -0.000  0.00  0.00    -0.775 OA
HETATM   19  H   UNK N   1       8.118   2.354  -0.000  0.00  0.00     0.167 HD
ENDBRANCH  16  18
ENDBRANCH  12  16
ENDBRANCH  11  12
ENDBRANCH   2  11
TORSDOF 5
