REMARK  4 active torsions:
REMARK  status: ('A' for Active; 'I' for Inactive)
REMARK    1  A    between atoms: O_3  and  C_26 
REMARK    2  A    between atoms: N_5  and  C_8 
REMARK    3  A    between atoms: N_6  and  C_14 
REMARK    4  A    between atoms: C_21  and  C_26 
ROOT
HETATM    1  F   UNK N   1       7.930   2.228  -0.504  0.00  0.00    -0.203 F 
HETATM    2  O   UNK N   1       2.972   3.351  -0.348  0.00  0.00    -0.286 OA
HETATM    3  N   UNK N   1       3.226  -0.580   0.420  0.00  0.00    -0.350 N 
HETATM    4  C   UNK N   1       4.383   0.131   0.198  0.00  0.00     0.051 A 
HETATM    5  C   UNK N   1       2.016   0.037   0.371  0.00  0.00     0.114 A 
HETATM    6  C   UNK N   1       4.337   1.527  -0.061  0.00  0.00     0.051 A 
HETATM    7  C   UNK N   1       6.819   0.138  -0.052  0.00  0.00     0.072 A 
HETATM    8  C   UNK N   1       5.617  -0.522   0.205  0.00  0.00     0.063 A 
HETATM    9  C   UNK N   1       5.563   2.227  -0.271  0.00  0.00    -0.005 A 
HETATM   10  C   UNK N   1       1.896   1.397   0.088  0.00  0.00     0.104 A 
HETATM   11  C   UNK N   1       3.065   2.157  -0.112  0.00  0.00     0.203 A 
HETATM   12  C   UNK N   1       6.787   1.533  -0.269  0.00  0.00     0.149 A 
HETATM   13  C   UNK N   1       5.605   3.703  -0.526  0.00  0.00     0.052 C 
ENDROOT
BRANCH   7  14
HETATM   14  N   UNK N   1       8.026  -0.635  -0.143  0.00  0.00    -0.375 N 
HETATM   15  C   UNK N   1       7.950  -2.083  -0.010  0.00  0.00     0.147 C 
HETATM   16  C   UNK N   1       9.295  -2.731  -0.299  0.00  0.00     0.090 C 
HETATM   17  N   UNK N   1      10.321  -2.079   0.510  0.00  0.00    -0.414 N 
HETATM   18  C   UNK N   1       9.224  -4.204   0.045  0.00  0.00     0.033 C 
HETATM   19  C   UNK N   1      10.482  -0.658   0.155  0.00  0.00     0.134 C 
HETATM   20  H   UNK N   1      10.861  -2.551   1.236  0.00  0.00     0.153 HD
HETATM   21  C   UNK N   1       9.278  -0.040  -0.576  0.00  0.00     0.142 C 
ENDBRANCH   7  14
BRANCH   3  22
HETATM   22  C   UNK N   1       3.248  -2.017   0.754  0.00  0.00     0.090 A 
HETATM   23  C   UNK N   1       3.878  -2.843  -0.363  0.00  0.00     0.028 A 
HETATM   24  C   UNK N   1       2.380  -2.814  -0.214  0.00  0.00     0.028 A 
ENDBRANCH   3  22
BRANCH  10  25
HETATM   25  C   UNK N   1       0.530   1.977  -0.011  0.00  0.00     0.181 C 
HETATM   26  O   UNK N   1       0.367   3.159  -0.269  0.00  0.00    -0.646 OA
BRANCH  25  27
HETATM   27  O   UNK N   1      -0.549   1.186   0.153  0.00  0.00    -0.772 OA
HETATM   28  H   UNK N   1      -1.400   1.561   0.267  0.00  0.00     0.167 HD
ENDBRANCH  25  27
ENDBRANCH  10  25
TORSDOF 4
