REMARK  1 active torsions:
REMARK  status: ('A' for Active; 'I' for Inactive)
REMARK    1  A    between atoms: C_7  and  C_17 
ROOT
HETATM    1  O   UNK N   1      -0.181  -3.851  -0.196  0.00  0.00    -0.293 OA
HETATM    2  C   UNK N   1       6.766   0.999  -0.125  0.00  0.00    -0.029 C 
HETATM    3  C   UNK N   1       6.821  -0.498   0.163  0.00  0.00     0.002 C 
HETATM    4  C   UNK N   1       5.606  -1.239  -0.421  0.00  0.00     0.018 C 
HETATM    5  C   UNK N   1       4.317  -0.623   0.200  0.00  0.00     0.006 C 
HETATM    6  C   UNK N   1       8.101   1.402   0.490  0.00  0.00     0.063 C 
HETATM    7  C   UNK N   1       5.518   1.600   0.524  0.00  0.00     0.011 C 
HETATM    8  C   UNK N   1       8.207  -0.900  -0.328  0.00  0.00     0.007 C 
HETATM    9  C   UNK N   1       4.260   0.905  -0.030  0.00  0.00     0.007 C 
HETATM   10  C   UNK N   1       3.055  -1.354  -0.327  0.00  0.00    -0.012 C 
HETATM   11  C   UNK N   1       9.078   0.333  -0.026  0.00  0.00     0.013 C 
HETATM   12  C   UNK N   1       6.756   1.313  -1.634  0.00  0.00     0.016 C 
HETATM   13  C   UNK N   1       5.673  -2.716  -0.108  0.00  0.00    -0.021 C 
HETATM   14  C   UNK N   1       3.214  -2.855  -0.097  0.00  0.00    -0.046 C 
HETATM   15  C   UNK N   1       1.810  -0.854   0.422  0.00  0.00     0.022 C 
HETATM   16  C   UNK N   1       2.866  -1.105  -1.826  0.00  0.00     0.021 C 
HETATM   17  C   UNK N   1       4.562  -3.458   0.022  0.00  0.00     0.004 C 
HETATM   18  C   UNK N   1       0.538  -1.613   0.017  0.00  0.00     0.084 C 
HETATM   19  C   UNK N   1       2.139  -3.655  -0.029  0.00  0.00     0.058 C 
HETATM   20  C   UNK N   1       0.772  -3.098  -0.081  0.00  0.00     0.149 C 
ENDROOT
BRANCH   6  21
HETATM   21  C   UNK N   1       8.509   2.839   0.285  0.00  0.00     0.128 C 
HETATM   22  O   UNK N   1       7.843   3.729   0.789  0.00  0.00    -0.298 OA
HETATM   23  C   UNK N   1       9.723   3.197  -0.507  0.00  0.00     0.091 C 
ENDBRANCH   6  21
TORSDOF 1
