REMARK  3 active torsions:
REMARK  status: ('A' for Active; 'I' for Inactive)
REMARK    1  A    between atoms: N_5  and  C_9 
REMARK    2  A    between atoms: N_6  and  C_10 
REMARK    3  A    between atoms: C_9  and  C_10 
ROOT
HETATM    1  C   UNK N   1       4.196   0.484  -0.246  0.00  0.00     0.248 C 
HETATM    2  C   UNK N   1       5.554  -0.077   0.175  0.00  0.00     0.045 C 
ENDROOT
BRANCH   1   3
HETATM    3  N   UNK N   1       4.072   1.891   0.160  0.00  0.00     0.112 N 
HETATM    4  C   UNK N   1       5.175   2.678  -0.412  0.00  0.00     0.376 C 
HETATM    5  C   UNK N   1       5.015   4.127  -0.046  0.00  0.00     0.252 C 
HETATM    6  O   UNK N   1       6.000   4.833   0.094  0.00  0.00    -0.271 OA
HETATM    7  N   UNK N   1       3.776   4.653   0.114  0.00  0.00    -0.295 N 
HETATM    8  C   UNK N   1       2.670   3.881  -0.030  0.00  0.00     0.252 C 
HETATM    9  H   UNK N   1       3.677   5.607   0.337  0.00  0.00     0.171 HD
HETATM   10  O   UNK N   1       1.562   4.374   0.104  0.00  0.00    -0.271 OA
HETATM   11  C   UNK N   1       2.806   2.421  -0.366  0.00  0.00     0.376 C 
ENDBRANCH   1   3
BRANCH   1  12
HETATM   12  C   UNK N   1       3.078  -0.347   0.404  0.00  0.00     0.308 C 
BRANCH  12  13
HETATM   13  N   UNK N   1       2.965  -1.683  -0.168  0.00  0.00     0.108 N 
HETATM   14  C   UNK N   1       3.950  -2.535   0.496  0.00  0.00     0.375 C 
HETATM   15  C   UNK N   1       3.790  -3.942   0.025  0.00  0.00     0.252 C 
HETATM   16  O   UNK N   1       4.771  -4.644  -0.161  0.00  0.00    -0.271 OA
HETATM   17  N   UNK N   1       2.548  -4.446  -0.157  0.00  0.00    -0.295 N 
HETATM   18  C   UNK N   1       1.457  -3.647  -0.042  0.00  0.00     0.252 C 
HETATM   19  H   UNK N   1       2.434  -5.400  -0.373  0.00  0.00     0.171 HD
HETATM   20  O   UNK N   1       0.340  -4.138  -0.100  0.00  0.00    -0.271 OA
HETATM   21  C   UNK N   1       1.609  -2.154   0.156  0.00  0.00     0.375 C 
ENDBRANCH  12  13
ENDBRANCH   1  12
TORSDOF 3
