REMARK  1 active torsions:
REMARK  status: ('A' for Active; 'I' for Inactive)
REMARK    1  A    between atoms: N_3  and  C_10 
ROOT
HETATM    1  N   UNK N   1       3.774  -1.950   0.000  0.00  0.00    -0.358 N 
ATOM      2  HN  UNK N   1       3.749  -2.970   0.000  1.00  0.00     0.166 HD
HETATM    3  C   UNK N   1       0.025   0.227   0.000  0.00  0.00     0.005 A 
HETATM    4  C   UNK N   1       1.358   0.961  -0.000  0.00  0.00     0.043 A 
HETATM    5  C   UNK N   1       0.014  -1.299  -0.000  0.00  0.00     0.006 A 
HETATM    6  C   UNK N   1       2.613   0.145  -0.000  0.00  0.00    -0.008 A 
HETATM    7  C   UNK N   1       1.337  -2.056   0.000  0.00  0.00     0.057 A 
HETATM    8  C   UNK N   1       2.601  -1.263   0.000  0.00  0.00     0.018 A 
HETATM    9  C   UNK N   1       3.846   0.819  -0.000  0.00  0.00     0.046 A 
HETATM   10  C   UNK N   1       5.036   0.086  -0.000  0.00  0.00     0.017 A 
HETATM   11  C   UNK N   1       4.977  -1.322   0.000  0.00  0.00     0.044 A 
HETATM   12  C   UNK N   1       6.281   0.727  -0.000  0.00  0.00     0.016 A 
HETATM   13  C   UNK N   1       6.155  -2.071   0.000  0.00  0.00     0.030 A 
HETATM   14  C   UNK N   1       7.456  -0.027   0.000  0.00  0.00     0.001 A 
HETATM   15  C   UNK N   1       7.393  -1.424   0.000  0.00  0.00     0.002 A 
ENDROOT
BRANCH   9  16
HETATM   16  N   UNK N   1       3.883   2.234  -0.000  0.00  0.00    -0.398 N 
HETATM   17  H   UNK N   1       4.748   2.703  -0.000  0.00  0.00     0.156 HD
HETATM   18  H   UNK N   1       3.043   2.748  -0.000  0.00  0.00     0.156 HD
ENDBRANCH   9  16
TORSDOF 1
