REMARK  4 active torsions:
REMARK  status: ('A' for Active; 'I' for Inactive)
REMARK    1  A    between atoms: S_1  and  N_7 
REMARK    2  A    between atoms: S_1  and  C_15 
REMARK    3  A    between atoms: N_6  and  C_8 
REMARK       I    between atoms: N_6  and  C_14 
REMARK       I    between atoms: N_7  and  C_14 
REMARK    4  A    between atoms: C_18  and  C_21 
ROOT
HETATM    1  S   UNK N   1       1.580   0.556   0.112  0.00  0.00     0.266 S 
HETATM    2  O   UNK N   1       0.267   1.355   0.145  0.00  0.00    -0.200 OA
HETATM    3  O   UNK N   1       1.052   0.081  -1.251  0.00  0.00    -0.200 OA
ENDROOT
BRANCH   1   4
HETATM    4  N   UNK N   1       2.787   1.349  -0.873  0.00  0.00    -0.232 N 
HETATM    5  C   UNK N   1       3.710   2.201  -0.392  0.00  0.00     0.330 C 
HETATM    6  O   UNK N   1       4.589   2.588  -1.146  0.00  0.00    -0.246 OA
HETATM    7  N   UNK N   1       3.676   2.618   0.902  0.00  0.00    -0.338 N 
HETATM    8  H   UNK N   1       2.981   2.242   1.489  0.00  0.00     0.164 HD
HETATM    9  H   UNK N   1       2.791   1.161  -1.839  0.00  0.00     0.183 HD
BRANCH   7  10
HETATM   10  C   UNK N   1       4.600   3.585   1.471  0.00  0.00     0.086 C 
HETATM   11  C   UNK N   1       4.363   5.012   0.944  0.00  0.00     0.025 C 
HETATM   12  C   UNK N   1       5.015   5.271  -0.419  0.00  0.00     0.002 C 
HETATM   13  C   UNK N   1       6.431   4.687  -0.551  0.00  0.00     0.000 C 
HETATM   14  C   UNK N   1       6.990   4.166   0.772  0.00  0.00     0.002 C 
HETATM   15  C   UNK N   1       6.060   3.111   1.373  0.00  0.00     0.025 C 
ENDBRANCH   7  10
ENDBRANCH   1   4
BRANCH   1  16
HETATM   16  C   UNK N   1       1.752  -1.210   0.294  0.00  0.00     0.080 A 
HETATM   17  C   UNK N   1       0.666  -2.054   0.562  0.00  0.00     0.026 A 
HETATM   18  C   UNK N   1       0.853  -3.444   0.546  0.00  0.00     0.017 A 
HETATM   19  C   UNK N   1       2.119  -3.986   0.258  0.00  0.00     0.009 A 
HETATM   20  C   UNK N   1       3.197  -3.128   0.021  0.00  0.00     0.017 A 
HETATM   21  C   UNK N   1       3.012  -1.752   0.037  0.00  0.00     0.026 A 
BRANCH  19  22
HETATM   22  C   UNK N   1       2.326  -5.446   0.164  0.00  0.00     0.155 C 
HETATM   23  O   UNK N   1       3.429  -5.889  -0.120  0.00  0.00    -0.293 OA
HETATM   24  C   UNK N   1       1.196  -6.397   0.376  0.00  0.00     0.096 C 
ENDBRANCH  19  22
ENDBRANCH   1  16
TORSDOF 4
