REMARK  6 active torsions:
REMARK  status: ('A' for Active; 'I' for Inactive)
REMARK    1  A    between atoms: I_1  and  I_1 
REMARK    2  A    between atoms: I_2  and  I_2 
REMARK    3  A    between atoms: O_5  and  C_33 
REMARK    4  A    between atoms: O_6  and  C_35 
REMARK    5  A    between atoms: O_7  and  C_36 
REMARK    6  A    between atoms: O_8  and  C_46 
ROOT
HETATM    1  I   UNK N   1      11.831   2.970  -0.057  0.00  0.00     0.000 I 
ENDROOT
TORSDOF 6
