REMARK  14 active torsions:
REMARK  status: ('A' for Active; 'I' for Inactive)
REMARK    1  A    between atoms: O_2  and  C_16 
REMARK    2  A    between atoms: C_19  and  O_3 
REMARK    3  A    between atoms: C_26  and  O_4 
REMARK    4  A    between atoms: O_5  and  C_34 
REMARK    5  A    between atoms: C_9  and  C_15 
REMARK    6  A    between atoms: C_10  and  C_14 
REMARK    7  A    between atoms: C_11  and  C_16 
REMARK    8  A    between atoms: C_12  and  C_18 
REMARK    9  A    between atoms: C_13  and  C_17 
REMARK   10  A    between atoms: C_19  and  C_24 
REMARK   11  A    between atoms: C_19  and  C_25 
REMARK   12  A    between atoms: C_24  and  C_26 
REMARK   13  A    between atoms: C_26  and  C_29 
REMARK   14  A    between atoms: C_29  and  C_34 
ROOT
HETATM    1  N   UNK N   1       9.513  -3.530  -0.078  0.00  0.00    -0.361 N 
ATOM      2  HN  UNK N   1       9.623  -4.544  -0.078  1.00  0.00     0.165 HD
HETATM    3  C   UNK N   1      10.624  -2.764  -0.066  0.00  0.00     0.022 A 
HETATM    4  C   UNK N   1       8.258  -3.018  -0.091  0.00  0.00     0.024 A 
HETATM    5  C   UNK N   1      10.517  -1.354  -0.077  0.00  0.00     0.000 A 
HETATM    6  C   UNK N   1       8.074  -1.619  -0.080  0.00  0.00    -0.002 A 
HETATM    7  C   UNK N   1       9.215  -0.748  -0.065  0.00  0.00    -0.003 A 
ENDROOT
BRANCH   6   8
HETATM    8  C   UNK N   1       6.675  -1.138  -0.119  0.00  0.00     0.013 C 
HETATM    9  C   UNK N   1       6.192  -0.278  -1.020  0.00  0.00     0.006 C 
BRANCH   9  10
HETATM   10  C   UNK N   1       4.774   0.224  -0.938  0.00  0.00     0.143 C 
BRANCH  10  11
HETATM   11  O   UNK N   1       4.783   1.609  -1.095  0.00  0.00    -0.392 OA
HETATM   12  H   UNK N   1       5.621   2.086  -1.205  0.00  0.00     0.210 HD
ENDBRANCH  10  11
BRANCH  10  13
HETATM   13  C   UNK N   1       4.109  -0.164   0.398  0.00  0.00     0.068 C 
BRANCH  13  14
HETATM   14  C   UNK N   1       2.712   0.399   0.629  0.00  0.00     0.130 C 
BRANCH  14  15
HETATM   15  O   UNK N   1       2.761   1.788   0.762  0.00  0.00    -0.395 OA
HETATM   16  H   UNK N   1       3.614   2.241   0.854  0.00  0.00     0.210 HD
ENDBRANCH  14  15
BRANCH  14  17
HETATM   17  C   UNK N   1       1.752  -0.006  -0.478  0.00  0.00     0.141 C 
BRANCH  17  18
HETATM   18  C   UNK N   1       0.361   0.422  -0.146  0.00  0.00     0.141 C 
HETATM   19  O   UNK N   1      -0.206   1.240  -0.850  0.00  0.00    -0.650 OA
BRANCH  18  20
HETATM   20  O   UNK N   1      -0.267  -0.090   0.930  0.00  0.00    -0.776 OA
HETATM   21  H   UNK N   1      -0.793   0.111   1.679  0.00  0.00     0.167 HD
ENDBRANCH  18  20
ENDBRANCH  17  18
ENDBRANCH  14  17
ENDBRANCH  13  14
ENDBRANCH  10  13
ENDBRANCH   9  10
ENDBRANCH   6   8
BRANCH   4  22
HETATM   22  C   UNK N   1       7.076  -3.968  -0.177  0.00  0.00     0.028 C 
HETATM   23  C   UNK N   1       6.163  -3.860   1.032  0.00  0.00     0.016 C 
HETATM   24  C   UNK N   1       7.487  -5.422  -0.349  0.00  0.00     0.016 C 
ENDBRANCH   4  22
BRANCH   7  25
HETATM   25  C   UNK N   1       9.058   0.759   0.004  0.00  0.00    -0.024 A 
HETATM   26  C   UNK N   1       7.945   1.336   0.644  0.00  0.00     0.015 A 
HETATM   27  C   UNK N   1       7.810   2.722   0.756  0.00  0.00     0.043 A 
HETATM   28  C   UNK N   1       8.791   3.562   0.231  0.00  0.00     0.116 A 
HETATM   29  F   UNK N   1       8.664   4.906   0.342  0.00  0.00    -0.206 F 
HETATM   30  C   UNK N   1       9.904   3.015  -0.406  0.00  0.00     0.043 A 
HETATM   31  C   UNK N   1      10.037   1.627  -0.513  0.00  0.00     0.015 A 
ENDBRANCH   7  25
BRANCH   5  32
HETATM   32  C   UNK N   1      11.787  -0.545  -0.063  0.00  0.00     0.208 C 
BRANCH  32  33
HETATM   33  O   UNK N   1      11.937   0.131   1.149  0.00  0.00    -0.391 OA
HETATM   34  C   UNK N   1      12.907   1.100   0.888  0.00  0.00     0.201 C 
ENDBRANCH  32  33
ENDBRANCH   5  32
BRANCH   3  35
HETATM   35  C   UNK N   1      11.947  -3.478  -0.016  0.00  0.00     0.028 C 
HETATM   36  C   UNK N   1      12.962  -3.096   1.049  0.00  0.00     0.016 C 
HETATM   37  C   UNK N   1      12.472  -4.063  -1.310  0.00  0.00     0.016 C 
ENDBRANCH   3  35
TORSDOF 14
