REMARK  2 active torsions:
REMARK  status: ('A' for Active; 'I' for Inactive)
REMARK    1  A    between atoms: C_6  and  C_7 
REMARK    2  A    between atoms: C_6  and  C_8 
ROOT
HETATM    1  O   UNK N   1       0.802   0.345  -0.209  0.00  0.00    -0.271 OA
HETATM    2  O   UNK N   1       5.443   0.821   0.382  0.00  0.00    -0.272 OA
HETATM    3  O   UNK N   1       3.548  -3.181   0.153  0.00  0.00    -0.246 OA
HETATM    4  N   UNK N   1       2.143  -1.439  -0.011  0.00  0.00    -0.273 N 
HETATM    5  N   UNK N   1       4.480  -1.171   0.264  0.00  0.00    -0.278 N 
HETATM    6  C   UNK N   1       3.095   0.903   0.032  0.00  0.00     0.122 A 
HETATM    7  C   UNK N   1       1.940  -0.087  -0.067  0.00  0.00     0.245 A 
HETATM    8  C   UNK N   1       4.413   0.179   0.241  0.00  0.00     0.243 A 
HETATM    9  C   UNK N   1       3.394  -1.967   0.134  0.00  0.00     0.331 A 
HETATM   10  C   UNK N   1       1.007  -2.332  -0.115  0.00  0.00     0.164 C 
HETATM   11  H   UNK N   1       5.361  -1.595   0.382  0.00  0.00     0.173 HD
ENDROOT
BRANCH   6  12
HETATM   12  C   UNK N   1       3.160   1.698  -1.289  0.00  0.00     0.024 C 
HETATM   13  C   UNK N   1       4.194   2.819  -1.288  0.00  0.00     0.007 C 
ENDBRANCH   6  12
BRANCH   6  14
HETATM   14  C   UNK N   1       2.861   1.847   1.230  0.00  0.00     0.024 C 
HETATM   15  C   UNK N   1       1.680   2.796   1.042  0.00  0.00     0.007 C 
ENDBRANCH   6  14
TORSDOF 2
