REMARK  6 active torsions:
REMARK  status: ('A' for Active; 'I' for Inactive)
REMARK    1  A    between atoms: O_1  and  C_11 
REMARK    2  A    between atoms: O_1  and  C_13 
REMARK    3  A    between atoms: N_3  and  C_4 
REMARK    4  A    between atoms: N_3  and  C_10 
REMARK    5  A    between atoms: C_10  and  C_11 
REMARK    6  A    between atoms: C_13  and  C_14 
ROOT
HETATM    1  C   UNK N   1       2.109   0.897  -0.031  0.00  0.00     0.145 C 
HETATM    2  C   UNK N   1       1.451   1.892  -0.968  0.00  0.00     0.042 C 
ENDROOT
BRANCH   1   3
HETATM    3  O   UNK N   1       1.987  -0.373  -0.538  0.00  0.00    -0.311 OA
BRANCH   3   4
HETATM    4  C   UNK N   1       1.210  -1.323   0.026  0.00  0.00     0.293 C 
HETATM    5  O   UNK N   1       0.181  -1.015   0.617  0.00  0.00    -0.259 OA
BRANCH   4   6
HETATM    6  C   UNK N   1       1.638  -2.732  -0.040  0.00  0.00     0.039 A 
HETATM    7  C   UNK N   1       2.887  -3.049  -0.597  0.00  0.00     0.017 A 
HETATM    8  C   UNK N   1       3.338  -4.371  -0.612  0.00  0.00     0.001 A 
HETATM    9  C   UNK N   1       2.543  -5.385  -0.073  0.00  0.00     0.000 A 
HETATM   10  C   UNK N   1       1.296  -5.078   0.479  0.00  0.00     0.001 A 
HETATM   11  C   UNK N   1       0.846  -3.754   0.501  0.00  0.00     0.017 A 
ENDBRANCH   4   6
ENDBRANCH   3   4
ENDBRANCH   1   3
BRANCH   1  12
HETATM   12  C   UNK N   1       3.601   1.169   0.068  0.00  0.00     0.146 C 
BRANCH  12  13
HETATM   13  N   UNK N   1       3.892   2.457   0.677  0.00  0.00    -0.415 N 
HETATM   14  H   UNK N   1       3.349   2.925   1.403  0.00  0.00     0.153 HD
BRANCH  13  15
HETATM   15  C   UNK N   1       5.111   2.949   0.048  0.00  0.00     0.076 C 
HETATM   16  C   UNK N   1       6.340   2.178   0.544  0.00  0.00     0.024 C 
HETATM   17  C   UNK N   1       7.589   2.688  -0.169  0.00  0.00     0.002 C 
HETATM   18  C   UNK N   1       7.770   4.181   0.094  0.00  0.00     0.000 C 
HETATM   19  C   UNK N   1       6.535   4.957  -0.364  0.00  0.00     0.002 C 
HETATM   20  C   UNK N   1       5.285   4.434   0.340  0.00  0.00     0.024 C 
ENDBRANCH  13  15
ENDBRANCH  12  13
ENDBRANCH   1  12
TORSDOF 6
