REMARK  5 active torsions:
REMARK  status: ('A' for Active; 'I' for Inactive)
REMARK    1  A    between atoms: N_4  and  C_5 
REMARK    2  A    between atoms: N_4  and  C_9 
REMARK    3  A    between atoms: C_5  and  C_6 
REMARK    4  A    between atoms: C_6  and  C_7 
REMARK    5  A    between atoms: C_12  and  C_16 
ROOT
HETATM    1  C   UNK N   1       3.603   0.182   0.150  0.00  0.00    -0.056 A 
HETATM    2  C   UNK N   1       3.733   1.564   0.010  0.00  0.00     0.023 A 
HETATM    3  C   UNK N   1       4.745  -0.596   0.408  0.00  0.00     0.007 A 
HETATM    4  C   UNK N   1       4.984   2.181   0.117  0.00  0.00     0.048 A 
HETATM    5  C   UNK N   1       5.998   0.012   0.520  0.00  0.00     0.001 A 
HETATM    6  C   UNK N   1       6.120   1.397   0.374  0.00  0.00     0.016 A 
ENDROOT
BRANCH   1   7
HETATM    7  C   UNK N   1       2.236  -0.422  -0.001  0.00  0.00     0.062 C 
BRANCH   7   8
HETATM    8  C   UNK N   1       2.196  -1.941  -0.128  0.00  0.00     0.076 C 
HETATM    9  C   UNK N   1       2.860  -2.363  -1.432  0.00  0.00     0.032 C 
BRANCH   8  10
HETATM   10  N   UNK N   1       0.806  -2.368  -0.140  0.00  0.00    -0.417 N 
HETATM   11  H   UNK N   1       0.007  -1.809  -0.441  0.00  0.00     0.153 HD
BRANCH  10  12
HETATM   12  C   UNK N   1       0.757  -3.734   0.354  0.00  0.00     0.110 C 
HETATM   13  C   UNK N   1      -0.009  -4.600  -0.624  0.00  0.00     0.026 C 
ENDBRANCH  10  12
ENDBRANCH   8  10
ENDBRANCH   7   8
ENDBRANCH   1   7
BRANCH   4  14
HETATM   14  C   UNK N   1       5.092   3.667  -0.051  0.00  0.00     0.417 C 
HETATM   15  F   UNK N   1       4.297   4.295   0.890  0.00  0.00    -0.166 F 
HETATM   16  F   UNK N   1       6.397   4.097   0.107  0.00  0.00    -0.166 F 
HETATM   17  F   UNK N   1       4.656   4.019  -1.317  0.00  0.00    -0.166 F 
ENDBRANCH   4  14
TORSDOF 5
