REMARK  4 active torsions:
REMARK  status: ('A' for Active; 'I' for Inactive)
REMARK    1  A    between atoms: O_7  and  C_12 
REMARK    2  A    between atoms: O_8  and  C_13 
REMARK    3  A    between atoms: C_9  and  C_10 
REMARK    4  A    between atoms: C_9  and  C_11 
ROOT
HETATM    1  C   UNK N   1       3.588  -0.226  -1.391  0.00  0.00     0.086 C 
ENDROOT
BRANCH   1   2
HETATM    2  C   UNK N   1       3.916   1.077  -0.655  0.00  0.00     0.004 A 
HETATM    3  C   UNK N   1       2.900   1.912  -0.126  0.00  0.00     0.095 A 
HETATM    4  C   UNK N   1       3.227   3.132   0.485  0.00  0.00     0.069 A 
HETATM    5 Cl   UNK N   1       1.975   4.189   1.116  0.00  0.00    -0.081 Cl
HETATM    6  C   UNK N   1       4.552   3.540   0.571  0.00  0.00     0.052 A 
HETATM    7  C   UNK N   1       5.566   2.753   0.040  0.00  0.00     0.058 A 
HETATM    8 Cl   UNK N   1       7.219   3.345   0.143  0.00  0.00    -0.082 Cl
HETATM    9  C   UNK N   1       5.261   1.528  -0.584  0.00  0.00     0.065 A 
HETATM   10 Cl   UNK N   1       6.573   0.609  -1.308  0.00  0.00    -0.082 Cl
BRANCH   3  11
HETATM   11  O   UNK N   1       1.608   1.575  -0.230  0.00  0.00    -0.358 OA
HETATM   12  H   UNK N   1       0.952   2.240  -0.303  0.00  0.00     0.217 HD
ENDBRANCH   3  11
ENDBRANCH   1   2
BRANCH   1  13
HETATM   13  C   UNK N   1       3.178  -1.478  -0.612  0.00  0.00     0.004 A 
HETATM   14  C   UNK N   1       1.835  -1.694  -0.217  0.00  0.00     0.095 A 
HETATM   15  C   UNK N   1       1.468  -2.879   0.439  0.00  0.00     0.069 A 
HETATM   16 Cl   UNK N   1      -0.195  -3.162   0.924  0.00  0.00    -0.081 Cl
HETATM   17  C   UNK N   1       2.413  -3.866   0.686  0.00  0.00     0.052 A 
HETATM   18  C   UNK N   1       3.730  -3.696   0.279  0.00  0.00     0.058 A 
HETATM   19 Cl   UNK N   1       4.867  -5.007   0.569  0.00  0.00    -0.082 Cl
HETATM   20  C   UNK N   1       4.123  -2.512  -0.374  0.00  0.00     0.065 A 
HETATM   21 Cl   UNK N   1       5.787  -2.377  -0.924  0.00  0.00    -0.082 Cl
BRANCH  14  22
HETATM   22  O   UNK N   1       0.883  -0.792  -0.495  0.00  0.00    -0.358 OA
HETATM   23  H   UNK N   1       1.097   0.100  -0.689  0.00  0.00     0.217 HD
ENDBRANCH  14  22
ENDBRANCH   1  13
TORSDOF 4
