REMARK  3 active torsions:
REMARK  status: ('A' for Active; 'I' for Inactive)
REMARK    1  A    between atoms: O_4  and  C_20 
REMARK    2  A    between atoms: N_6  and  C_15 
REMARK    3  A    between atoms: C_17  and  C_20 
ROOT
HETATM    1  O   UNK N   1       8.547  -1.012  -0.000  0.00  0.00    -0.323 OA
HETATM    2  O   UNK N   1       8.637   1.201   0.000  0.00  0.00    -0.323 OA
HETATM    3  O   UNK N   1       3.853   2.922   0.000  0.00  0.00    -0.285 OA
HETATM    4  N   UNK N   1       3.676  -1.072  -0.000  0.00  0.00    -0.291 N 
HETATM    5  N   UNK N   1       2.558  -0.335  -0.000  0.00  0.00    -0.289 N 
ATOM      6  HN  UNK N   1       1.658  -0.814   0.000  1.00  0.00     0.187 HD
HETATM    7  C   UNK N   1       4.905  -0.465  -0.000  0.00  0.00     0.068 A 
HETATM    8  C   UNK N   1       4.979   0.959  -0.000  0.00  0.00     0.048 A 
HETATM    9  C   UNK N   1       7.309  -0.524  -0.000  0.00  0.00     0.107 A 
HETATM   10  C   UNK N   1       6.103  -1.220  -0.000  0.00  0.00     0.072 A 
HETATM   11  C   UNK N   1       7.366   0.812  -0.000  0.00  0.00     0.106 A 
HETATM   12  C   UNK N   1       6.231   1.604  -0.000  0.00  0.00     0.057 A 
HETATM   13  C   UNK N   1       3.804   1.701   0.000  0.00  0.00     0.219 A 
HETATM   14  C   UNK N   1       2.572   1.030   0.000  0.00  0.00     0.173 A 
HETATM   15  C   UNK N   1       9.446   0.061   0.000  0.00  0.00     0.352 A 
ENDROOT
BRANCH  14  16
HETATM   16  C   UNK N   1       1.284   1.764   0.000  0.00  0.00     0.199 C 
HETATM   17  O   UNK N   1       1.258   2.986   0.000  0.00  0.00    -0.645 OA
BRANCH  16  18
HETATM   18  O   UNK N   1       0.125   1.082   0.000  0.00  0.00    -0.771 OA
HETATM   19  H   UNK N   1      -0.691   1.544   0.000  0.00  0.00     0.167 HD
ENDBRANCH  16  18
ENDBRANCH  14  16
BRANCH   4  20
HETATM   20  C   UNK N   1       3.588  -2.541  -0.000  0.00  0.00     0.145 C 
HETATM   21  C   UNK N   1       2.156  -3.059   0.000  0.00  0.00     0.028 C 
ENDBRANCH   4  20
TORSDOF 3
