REMARK  11 active torsions:
REMARK  status: ('A' for Active; 'I' for Inactive)
REMARK    1  A    between atoms: O_1  and  C_9 
REMARK    2  A    between atoms: O_2  and  C_16 
REMARK    3  A    between atoms: O_2  and  C_19 
REMARK    4  A    between atoms: O_3  and  C_18 
REMARK    5  A    between atoms: O_3  and  C_20 
REMARK    6  A    between atoms: N_6  and  C_7 
REMARK    7  A    between atoms: N_6  and  C_8 
REMARK    8  A    between atoms: C_8  and  C_9 
REMARK    9  A    between atoms: C_9  and  C_13 
REMARK   10  A    between atoms: C_19  and  C_21 
REMARK   11  A    between atoms: C_20  and  C_22 
ROOT
HETATM    1  C   UNK N   1       8.707  -2.119  -0.254  0.00  0.00    -0.025 A 
HETATM    2  C   UNK N   1       8.514  -0.751  -0.091  0.00  0.00     0.050 A 
HETATM    3  C   UNK N   1       7.583  -2.963  -0.323  0.00  0.00     0.013 A 
HETATM    4  C   UNK N   1       7.233  -0.203   0.009  0.00  0.00     0.114 A 
HETATM    5  C   UNK N   1       6.289  -2.429  -0.196  0.00  0.00     0.041 A 
HETATM    6  C   UNK N   1       6.117  -1.043  -0.035  0.00  0.00     0.113 A 
ENDROOT
BRANCH   1   7
HETATM    7  C   UNK N   1      10.112  -2.637  -0.446  0.00  0.00     0.168 C 
BRANCH   7   8
HETATM    8  O   UNK N   1      11.064  -1.676  -0.087  0.00  0.00    -0.389 OA
HETATM    9  H   UNK N   1      11.970  -1.915   0.162  0.00  0.00     0.210 HD
ENDBRANCH   7   8
BRANCH   7  10
HETATM   10  C   UNK N   1      10.388  -3.926   0.291  0.00  0.00     0.151 C 
BRANCH  10  11
HETATM   11  N   UNK N   1      10.073  -5.029  -0.612  0.00  0.00    -0.411 N 
HETATM   12  H   UNK N   1      10.075  -4.951  -1.629  0.00  0.00     0.154 HD
BRANCH  11  13
HETATM   13  C   UNK N   1       9.757  -6.258   0.113  0.00  0.00     0.014 C 
HETATM   14  C   UNK N   1       9.431  -7.331  -0.903  0.00  0.00     0.037 C 
HETATM   15  C   UNK N   1      10.943  -6.728   0.940  0.00  0.00     0.037 C 
HETATM   16  C   UNK N   1       8.541  -6.066   1.006  0.00  0.00     0.037 C 
ENDBRANCH  11  13
ENDBRANCH  10  11
ENDBRANCH   7  10
ENDBRANCH   1   7
BRANCH   4  17
HETATM   17  O   UNK N   1       7.038   1.139   0.112  0.00  0.00    -0.272 OA
BRANCH  17  18
HETATM   18  C   UNK N   1       7.988   2.114   0.092  0.00  0.00     0.298 C 
HETATM   19  O   UNK N   1       9.180   1.833   0.075  0.00  0.00    -0.259 OA
BRANCH  18  20
HETATM   20  C   UNK N   1       7.579   3.528   0.069  0.00  0.00     0.040 A 
HETATM   21  C   UNK N   1       8.549   4.539   0.032  0.00  0.00     0.018 A 
HETATM   22  C   UNK N   1       8.168   5.881  -0.001  0.00  0.00     0.007 A 
HETATM   23  C   UNK N   1       6.813   6.222   0.002  0.00  0.00    -0.062 A 
HETATM   24  C   UNK N   1       5.839   5.219   0.036  0.00  0.00     0.007 A 
HETATM   25  C   UNK N   1       6.411   7.651  -0.032  0.00  0.00     0.048 C 
HETATM   26  C   UNK N   1       6.220   3.874   0.069  0.00  0.00     0.018 A 
ENDBRANCH  18  20
ENDBRANCH  17  18
ENDBRANCH   4  17
BRANCH   6  27
HETATM   27  O   UNK N   1       4.903  -0.447   0.052  0.00  0.00    -0.272 OA
BRANCH  27  28
HETATM   28  C   UNK N   1       3.645  -0.950   0.020  0.00  0.00     0.298 C 
HETATM   29  O   UNK N   1       3.435  -2.153  -0.021  0.00  0.00    -0.259 OA
BRANCH  28  30
HETATM   30  C   UNK N   1       2.534   0.024   0.024  0.00  0.00     0.040 A 
HETATM   31  C   UNK N   1       2.845   1.392   0.051  0.00  0.00     0.018 A 
HETATM   32  C   UNK N   1       1.837   2.353   0.042  0.00  0.00     0.007 A 
HETATM   33  C   UNK N   1       0.501   1.956   0.005  0.00  0.00    -0.062 A 
HETATM   34  C   UNK N   1       0.175   0.594  -0.020  0.00  0.00     0.007 A 
HETATM   35  C   UNK N   1      -0.570   2.986  -0.009  0.00  0.00     0.048 C 
HETATM   36  C   UNK N   1       1.189  -0.374  -0.012  0.00  0.00     0.018 A 
ENDBRANCH  28  30
ENDBRANCH  27  28
ENDBRANCH   6  27
TORSDOF 11
