REMARK  8 active torsions:
REMARK  status: ('A' for Active; 'I' for Inactive)
REMARK    1  A    between atoms: O_1  and  C_8 
REMARK    2  A    between atoms: O_2  and  C_24 
REMARK    3  A    between atoms: O_2  and  C_25 
REMARK    4  A    between atoms: C_5  and  C_11 
REMARK    5  A    between atoms: C_14  and  C_15 
REMARK    6  A    between atoms: C_18  and  C_19 
REMARK    7  A    between atoms: C_20  and  C_21 
REMARK    8  A    between atoms: C_23  and  C_24 
ROOT
HETATM    1  C   UNK N   1       2.133  -1.680   0.270  0.00  0.00     0.013 C 
HETATM    2  C   UNK N   1       3.105  -0.796   0.440  0.00  0.00     0.007 C 
ENDROOT
BRANCH   2   3
HETATM    3  C   UNK N   1       2.935   0.644   0.646  0.00  0.00    -0.062 C 
HETATM    4  C   UNK N   1       1.583   1.268   0.754  0.00  0.00     0.048 C 
HETATM    5  C   UNK N   1       4.021   1.414   0.703  0.00  0.00     0.007 C 
BRANCH   5   6
HETATM    6  C   UNK N   1       5.390   0.847   0.610  0.00  0.00     0.001 C 
HETATM    7  C   UNK N   1       6.459   1.580   0.280  0.00  0.00     0.007 C 
BRANCH   7   8
HETATM    8  C   UNK N   1       6.378   2.967  -0.212  0.00  0.00    -0.056 C 
HETATM    9  C   UNK N   1       5.178   3.429  -0.992  0.00  0.00     0.048 C 
HETATM   10  C   UNK N   1       7.397   3.790   0.065  0.00  0.00     0.088 C 
BRANCH  10  11
HETATM   11  C   UNK N   1       7.452   5.228  -0.273  0.00  0.00     0.283 C 
HETATM   12  O   UNK N   1       6.489   5.793  -0.777  0.00  0.00    -0.260 OA
BRANCH  11  13
HETATM   13  O   UNK N   1       8.568   5.924   0.032  0.00  0.00    -0.319 OA
BRANCH  13  14
HETATM   14  C   UNK N   1       8.668   7.277  -0.190  0.00  0.00     0.174 C 
HETATM   15  C   UNK N   1      10.045   7.752   0.214  0.00  0.00     0.034 C 
ENDBRANCH  13  14
ENDBRANCH  11  13
ENDBRANCH  10  11
ENDBRANCH   7   8
ENDBRANCH   5   6
ENDBRANCH   2   3
BRANCH   1  16
HETATM   16  C   UNK N   1       2.429  -3.130   0.086  0.00  0.00    -0.024 A 
HETATM   17  C   UNK N   1       1.342  -4.026  -0.021  0.00  0.00    -0.043 A 
HETATM   18  C   UNK N   1       1.576  -5.409  -0.162  0.00  0.00    -0.022 A 
HETATM   19  C   UNK N   1      -0.067  -3.511   0.026  0.00  0.00     0.049 C 
HETATM   20  C   UNK N   1       2.889  -5.904  -0.197  0.00  0.00     0.075 A 
HETATM   21  C   UNK N   1       0.429  -6.365  -0.263  0.00  0.00     0.052 C 
HETATM   22  C   UNK N   1       3.961  -5.014  -0.108  0.00  0.00     0.044 A 
HETATM   23  C   UNK N   1       3.758  -3.649   0.029  0.00  0.00    -0.049 A 
HETATM   24  C   UNK N   1       4.986  -2.802   0.113  0.00  0.00     0.049 C 
BRANCH  20  25
HETATM   25  O   UNK N   1       3.104  -7.238  -0.312  0.00  0.00    -0.355 OA
HETATM   26  C   UNK N   1       4.361  -7.801  -0.308  0.00  0.00     0.210 C 
ENDBRANCH  20  25
ENDBRANCH   1  16
TORSDOF 8
