REMARK  2 active torsions:
REMARK  status: ('A' for Active; 'I' for Inactive)
REMARK    1  A    between atoms: N_2  and  C_14 
REMARK    2  A    between atoms: C_14  and  C_18 
ROOT
HETATM    1  O   UNK N   1       4.350  -2.473   0.159  0.00  0.00    -0.267 OA
HETATM    2  N   UNK N   1       5.787  -0.801   0.665  0.00  0.00    -0.342 N 
HETATM    3  N   UNK N   1       2.625   1.747  -0.238  0.00  0.00    -0.353 N 
HETATM    4  C   UNK N   1       3.760   1.040  -0.044  0.00  0.00     0.029 A 
HETATM    5  C   UNK N   1       5.143   1.573   0.097  0.00  0.00     0.078 C 
HETATM    6  C   UNK N   1       3.487  -0.303   0.018  0.00  0.00     0.067 A 
HETATM    7  C   UNK N   1       5.958   0.616   0.990  0.00  0.00     0.132 C 
HETATM    8  C   UNK N   1       2.121  -0.432  -0.147  0.00  0.00     0.008 A 
HETATM    9  C   UNK N   1       1.624   0.846  -0.292  0.00  0.00     0.045 A 
HETATM   10  C   UNK N   1       4.561  -1.275   0.266  0.00  0.00     0.257 C 
HETATM   11  C   UNK N   1       2.511   3.193  -0.344  0.00  0.00     0.156 C 
HETATM   12  C   UNK N   1       1.288  -1.546  -0.141  0.00  0.00     0.015 A 
HETATM   13  C   UNK N   1       0.261   1.091  -0.445  0.00  0.00     0.030 A 
HETATM   14  C   UNK N   1      -0.096  -1.328  -0.293  0.00  0.00     0.001 A 
HETATM   15  C   UNK N   1      -0.606  -0.017  -0.443  0.00  0.00     0.002 A 
ENDROOT
BRANCH   2  16
HETATM   16  C   UNK N   1       6.818  -1.726   1.092  0.00  0.00     0.185 C 
BRANCH  16  17
HETATM   17  C   UNK N   1       8.054  -1.783   0.228  0.00  0.00     0.050 A 
HETATM   18  N   UNK N   1       8.741  -2.928   0.071  0.00  0.00    -0.353 N 
HETATM   19  C   UNK N   1       9.805  -2.613  -0.698  0.00  0.00     0.180 A 
ATOM     20  HN  UNK N   1       8.506  -3.844   0.452  1.00  0.00     0.166 HD
HETATM   21  N   UNK N   1       9.817  -1.304  -1.029  0.00  0.00    -0.354 N 
HETATM   22  C   UNK N   1       8.726  -0.781  -0.450  0.00  0.00     0.030 A 
HETATM   23  H   UNK N   1      10.485  -0.834  -1.578  0.00  0.00     0.166 HD
HETATM   24  C   UNK N   1       8.383   0.661  -0.561  0.00  0.00     0.070 C 
ENDBRANCH  16  17
ENDBRANCH   2  16
TORSDOF 2
