REMARK  2 active torsions:
REMARK  status: ('A' for Active; 'I' for Inactive)
REMARK    1  A    between atoms: C_10  and  O_11 
REMARK    2  A    between atoms: C_18  and  O_20 
ROOT
HETATM    1  C   UNK N   1       4.611  -1.449  -1.771  0.00  0.00     0.018 C 
HETATM    2  C   UNK N   1       4.992  -0.626  -0.548  0.00  0.00    -0.014 C 
HETATM    3  C   UNK N   1       4.411  -1.273   0.721  0.00  0.00     0.012 C 
HETATM    4  C   UNK N   1       2.871  -1.293   0.707  0.00  0.00     0.007 C 
HETATM    5  C   UNK N   1       2.236  -0.099  -0.043  0.00  0.00     0.002 C 
HETATM    6  C   UNK N   1       3.171   1.128   0.010  0.00  0.00    -0.005 C 
HETATM    7  C   UNK N   1       4.515   0.829  -0.678  0.00  0.00     0.001 C 
HETATM    8  C   UNK N   1       5.607   1.705  -0.065  0.00  0.00     0.008 C 
HETATM    9  C   UNK N   1       6.722   0.763   0.361  0.00  0.00     0.033 C 
HETATM   10  C   UNK N   1       6.499  -0.466  -0.487  0.00  0.00     0.126 C 
HETATM   11  C   UNK N   1       2.556   2.378  -0.627  0.00  0.00     0.006 C 
HETATM   12  C   UNK N   1       1.165   2.667  -0.078  0.00  0.00     0.006 C 
HETATM   13  C   UNK N   1       0.296   1.438  -0.306  0.00  0.00     0.000 C 
HETATM   14  C   UNK N   1       0.819   0.221   0.487  0.00  0.00    -0.019 C 
HETATM   15  C   UNK N   1      -0.104  -0.961   0.285  0.00  0.00    -0.018 C 
HETATM   16  C   UNK N   1      -1.350  -0.839  -0.212  0.00  0.00     0.001 C 
HETATM   17  C   UNK N   1      -1.979   0.499  -0.533  0.00  0.00     0.141 C 
HETATM   18  C   UNK N   1      -1.170   1.689  -0.011  0.00  0.00     0.041 C 
HETATM   19  C   UNK N   1       0.861   0.523   1.989  0.00  0.00     0.020 C 
ENDROOT
BRANCH  10  20
HETATM   20  O   UNK N   1       7.143  -1.587   0.044  0.00  0.00    -0.395 OA
HETATM   21  H   UNK N   1       6.692  -2.362   0.413  0.00  0.00     0.210 HD
ENDBRANCH  10  20
BRANCH  17  22
HETATM   22  O   UNK N   1      -3.265   0.554   0.002  0.00  0.00    -0.392 OA
HETATM   23  H   UNK N   1      -3.679   1.348   0.375  0.00  0.00     0.210 HD
ENDBRANCH  17  22
TORSDOF 2
