REMARK  2 active torsions:
REMARK  status: ('A' for Active; 'I' for Inactive)
REMARK    1  A    between atoms: C_3  and  C_2 
REMARK    2  A    between atoms: C_11  and  O_12 
ROOT
HETATM    1  C   UNK N   1       4.799   1.555  -0.367  0.00  0.00    -0.011 C 
HETATM    2  C   UNK N   1       3.684   2.496   0.127  0.00  0.00     0.013 C 
HETATM    3  C   UNK N   1       2.670   1.798   1.022  0.00  0.00     0.006 C 
HETATM    4  C   UNK N   1       2.060   0.642   0.244  0.00  0.00    -0.002 C 
HETATM    5  C   UNK N   1       3.167  -0.407   0.003  0.00  0.00    -0.005 C 
HETATM    6  C   UNK N   1       4.267   0.210  -0.883  0.00  0.00     0.001 C 
HETATM    7  C   UNK N   1       5.501  -0.701  -0.862  0.00  0.00     0.008 C 
HETATM    8  C   UNK N   1       6.480  -0.091   0.145  0.00  0.00     0.033 C 
HETATM    9  C   UNK N   1       5.747   1.098   0.739  0.00  0.00     0.127 C 
HETATM   10  C   UNK N   1       2.614  -1.667  -0.695  0.00  0.00     0.010 C 
HETATM   11  C   UNK N   1       1.412  -2.267   0.036  0.00  0.00     0.035 C 
HETATM   12  C   UNK N   1       0.412  -1.179   0.220  0.00  0.00    -0.072 C 
HETATM   13  C   UNK N   1      -0.785  -1.253  -0.383  0.00  0.00     0.053 C 
HETATM   14  C   UNK N   1      -1.696  -0.096  -0.362  0.00  0.00     0.149 C 
HETATM   15  O   UNK N   1      -2.856  -0.215  -0.720  0.00  0.00    -0.293 OA
HETATM   16  C   UNK N   1      -1.161   1.242   0.039  0.00  0.00     0.084 C 
HETATM   17  C   UNK N   1      -0.264   1.058   1.255  0.00  0.00     0.017 C 
HETATM   18  C   UNK N   1       0.867   0.041   0.992  0.00  0.00     0.019 C 
ENDROOT
BRANCH   1  19
HETATM   19  C   UNK N   1       5.535   2.233  -1.543  0.00  0.00     0.008 C 
HETATM   20  C   UNK N   1       6.069   3.624  -1.225  0.00  0.00     0.006 C 
ENDBRANCH   1  19
BRANCH   9  21
HETATM   21  O   UNK N   1       6.632   2.094   1.157  0.00  0.00    -0.395 OA
HETATM   22  H   UNK N   1       7.539   1.907   1.448  0.00  0.00     0.210 HD
ENDBRANCH   9  21
TORSDOF 2
