REMARK  2 active torsions:
REMARK  status: ('A' for Active; 'I' for Inactive)
REMARK    1  A    between atoms: C_5  and  O_22 
REMARK    2  A    between atoms: C_18  and  O_20 
ROOT
HETATM    1  C   UNK N   1       4.800  -0.232  -1.901  0.00  0.00     0.016 C 
HETATM    2  C   UNK N   1       5.414   0.126  -0.553  0.00  0.00    -0.036 C 
HETATM    3  C   UNK N   1       6.519  -0.906  -0.225  0.00  0.00     0.012 C 
HETATM    4  C   UNK N   1       7.930  -0.382  -0.502  0.00  0.00     0.032 C 
HETATM    5  C   UNK N   1       8.219   0.871   0.341  0.00  0.00     0.118 C 
HETATM    6  C   UNK N   1       7.017   1.823   0.452  0.00  0.00     0.037 C 
HETATM    7  C   UNK N   1       6.014   1.551  -0.668  0.00  0.00    -0.004 C 
HETATM    8  C   UNK N   1       4.939   2.633  -0.763  0.00  0.00     0.006 C 
HETATM    9  C   UNK N   1       4.033   2.600   0.461  0.00  0.00     0.006 C 
HETATM   10  C   UNK N   1       3.349   1.242   0.619  0.00  0.00    -0.005 C 
HETATM   11  C   UNK N   1       4.367   0.072   0.597  0.00  0.00    -0.002 C 
HETATM   12  C   UNK N   1       3.659  -1.301   0.745  0.00  0.00     0.007 C 
HETATM   13  C   UNK N   1       2.446  -1.473  -0.197  0.00  0.00     0.013 C 
HETATM   14  C   UNK N   1       1.485  -0.289  -0.044  0.00  0.00    -0.009 C 
HETATM   15  C   UNK N   1       2.224   0.992  -0.386  0.00  0.00     0.001 C 
HETATM   16  C   UNK N   1       1.125   2.042  -0.496  0.00  0.00     0.009 C 
HETATM   17  C   UNK N   1      -0.122   1.249  -0.927  0.00  0.00     0.038 C 
HETATM   18  C   UNK N   1       0.330  -0.209  -1.048  0.00  0.00     0.062 C 
HETATM   19  C   UNK N   1      -0.807  -1.181  -0.767  0.00  0.00     0.046 C 
HETATM   20  C   UNK N   1       0.944  -0.255   1.402  0.00  0.00     0.018 C 
ENDROOT
BRANCH  18  21
HETATM   21  O   UNK N   1       0.794  -0.424  -2.352  0.00  0.00    -0.389 OA
HETATM   22  H   UNK N   1       0.826  -0.776  -3.255  0.00  0.00     0.210 HD
ENDBRANCH  18  21
BRANCH   5  23
HETATM   23  O   UNK N   1       9.304   1.553  -0.209  0.00  0.00    -0.396 OA
HETATM   24  H   UNK N   1      10.092   1.136  -0.592  0.00  0.00     0.210 HD
ENDBRANCH   5  23
TORSDOF 2
