REMARK  2 active torsions:
REMARK  status: ('A' for Active; 'I' for Inactive)
REMARK    1  A    between atoms: N_2  and  C_3 
REMARK    2  A    between atoms: C_3  and  C_11 
ROOT
HETATM    1  C   UNK N   1       3.261  -0.274   0.132  0.00  0.00     0.193 C 
HETATM    2  C   UNK N   1       3.082  -1.118   1.413  0.00  0.00     0.047 C 
HETATM    3  C   UNK N   1       2.705  -1.078  -1.074  0.00  0.00     0.047 C 
HETATM    4  C   UNK N   1       3.714  -2.503   1.289  0.00  0.00     0.003 C 
HETATM    5  C   UNK N   1       3.305  -2.484  -1.173  0.00  0.00     0.003 C 
HETATM    6  C   UNK N   1       3.083  -3.254   0.124  0.00  0.00     0.000 C 
ENDROOT
BRANCH   1   7
HETATM    7  N   UNK N   1       2.517   0.999   0.301  0.00  0.00     0.103 N 
HETATM    8  C   UNK N   1       1.071   0.804   0.468  0.00  0.00     0.274 C 
HETATM    9  C   UNK N   1       0.428   2.120   0.903  0.00  0.00     0.030 C 
HETATM   10  C   UNK N   1       0.719   3.215  -0.124  0.00  0.00     0.003 C 
HETATM   11  C   UNK N   1       2.215   3.311  -0.409  0.00  0.00     0.030 C 
HETATM   12  C   UNK N   1       2.739   1.936  -0.807  0.00  0.00     0.274 C 
ENDBRANCH   1   7
BRANCH   1  13
HETATM   13  C   UNK N   1       4.736   0.058  -0.028  0.00  0.00     0.021 A 
HETATM   14  S   UNK N   1       5.727  -0.284  -1.314  0.00  0.00    -0.104 SA
HETATM   15  C   UNK N   1       7.127   0.443  -0.806  0.00  0.00     0.050 A 
HETATM   16  C   UNK N   1       6.838   1.004   0.446  0.00  0.00     0.008 A 
HETATM   17  C   UNK N   1       5.499   0.792   0.883  0.00  0.00     0.018 A 
ENDBRANCH   1  13
TORSDOF 2
