REMARK  6 active torsions:
REMARK  status: ('A' for Active; 'I' for Inactive)
REMARK    1  A    between atoms: O_2  and  C_9 
REMARK    2  A    between atoms: O_3  and  C_19 
REMARK    3  A    between atoms: O_4  and  C_26 
REMARK    4  A    between atoms: C_12  and  C_19 
REMARK    5  A    between atoms: C_19  and  C_22 
REMARK    6  A    between atoms: C_22  and  C_29 
ROOT
HETATM    1  O   UNK N   1       4.205  -1.325   1.193  0.00  0.00    -0.338 OA
HETATM    2  N   UNK N   1       4.884   3.905   0.660  0.00  0.00     0.090 N 
HETATM    3  C   UNK N   1       4.713   0.959   0.913  0.00  0.00     0.035 A 
HETATM    4  C   UNK N   1       5.354   1.621  -0.320  0.00  0.00     0.024 C 
HETATM    5  C   UNK N   1       5.300  -0.450   1.249  0.00  0.00     0.182 A 
HETATM    6  C   UNK N   1       6.462  -0.738   0.232  0.00  0.00     0.112 C 
HETATM    7  C   UNK N   1       4.583   2.986  -0.469  0.00  0.00     0.240 C 
HETATM    8  C   UNK N   1       5.230   0.662  -1.553  0.00  0.00     0.028 C 
HETATM    9  C   UNK N   1       5.931  -0.712  -1.254  0.00  0.00     0.062 C 
HETATM   10  C   UNK N   1       4.665   1.866   2.157  0.00  0.00     0.048 C 
HETATM   11  C   UNK N   1       3.355   0.622   0.562  0.00  0.00    -0.003 A 
HETATM   12  C   UNK N   1       6.836   1.686  -0.006  0.00  0.00    -0.015 C 
HETATM   13  C   UNK N   1       3.009   2.821  -0.540  0.00  0.00     0.076 C 
HETATM   14  C   UNK N   1       7.392   0.495   0.307  0.00  0.00     0.011 C 
HETATM   15  C   UNK N   1       5.255   3.264   1.935  0.00  0.00     0.273 C 
HETATM   16  C   UNK N   1       2.471   1.490  -0.040  0.00  0.00    -0.046 A 
HETATM   17  C   UNK N   1       3.098  -0.675   0.786  0.00  0.00     0.110 A 
HETATM   18  C   UNK N   1       6.007   4.769   0.314  0.00  0.00     0.310 C 
HETATM   19  C   UNK N   1       1.183   1.012  -0.335  0.00  0.00     0.011 A 
HETATM   20  C   UNK N   1       1.832  -1.199   0.515  0.00  0.00     0.099 A 
HETATM   21  C   UNK N   1       0.851  -0.332  -0.025  0.00  0.00     0.040 A 
ENDROOT
BRANCH   9  22
HETATM   22  C   UNK N   1       5.270  -1.911  -2.004  0.00  0.00     0.061 C 
HETATM   23  C   UNK N   1       3.764  -1.976  -1.819  0.00  0.00     0.046 C 
BRANCH  22  24
HETATM   24  O   UNK N   1       5.490  -1.694  -3.364  0.00  0.00    -0.390 OA
HETATM   25  H   UNK N   1       5.696  -1.752  -4.310  0.00  0.00     0.210 HD
ENDBRANCH  22  24
BRANCH  22  26
HETATM   26  C   UNK N   1       5.888  -3.277  -1.675  0.00  0.00     0.037 C 
BRANCH  26  27
HETATM   27  C   UNK N   1       5.418  -3.873  -0.351  0.00  0.00    -0.002 C 
HETATM   28  C   UNK N   1       6.319  -5.027   0.037  0.00  0.00     0.005 C 
ENDBRANCH  26  27
ENDBRANCH  22  26
ENDBRANCH   9  22
BRANCH   6  29
HETATM   29  O   UNK N   1       7.145  -1.922   0.602  0.00  0.00    -0.378 OA
HETATM   30  C   UNK N   1       8.316  -2.075  -0.166  0.00  0.00     0.203 C 
ENDBRANCH   6  29
BRANCH  20  31
HETATM   31  O   UNK N   1       1.559  -2.497   0.725  0.00  0.00    -0.358 OA
HETATM   32  H   UNK N   1       0.679  -2.784   0.872  0.00  0.00     0.217 HD
ENDBRANCH  20  31
TORSDOF 6
