REMARK  1 active torsions:
REMARK  status: ('A' for Active; 'I' for Inactive)
REMARK    1  A    between atoms: N_2  and  C_5 
ROOT
HETATM    1  O   UNK N   1       5.050  -1.867   0.000  0.00  0.00    -0.267 OA
HETATM    2  N   UNK N   1       3.906   0.143  -0.000  0.00  0.00    -0.267 N 
HETATM    3  N   UNK N   1       5.368   2.057  -0.000  0.00  0.00    -0.345 N 
ATOM      4  HN  UNK N   1       5.466   3.072  -0.000  1.00  0.00     0.167 HD
HETATM    5  C   UNK N   1       4.119   1.535  -0.000  0.00  0.00     0.087 A 
HETATM    6  C   UNK N   1       6.371  -0.062   0.000  0.00  0.00     0.059 A 
HETATM    7  C   UNK N   1       5.093  -0.649   0.000  0.00  0.00     0.266 A 
HETATM    8  C   UNK N   1       6.478   1.317   0.000  0.00  0.00     0.049 A 
HETATM    9  C   UNK N   1       7.545  -0.840   0.000  0.00  0.00     0.019 A 
HETATM   10  C   UNK N   1       3.086   2.571  -0.000  0.00  0.00     0.089 C 
HETATM   11  C   UNK N   1       7.728   1.942   0.000  0.00  0.00     0.030 A 
HETATM   12  C   UNK N   1       8.801  -0.221   0.000  0.00  0.00     0.001 A 
HETATM   13  C   UNK N   1       8.891   1.173   0.000  0.00  0.00     0.002 A 
ENDROOT
BRANCH   2  14
HETATM   14  C   UNK N   1       2.558  -0.569  -0.000  0.00  0.00     0.050 A 
HETATM   15  C   UNK N   1       1.209   0.000   0.000  0.00  0.00    -0.035 A 
HETATM   16  C   UNK N   1       0.087  -0.840   0.000  0.00  0.00     0.009 A 
HETATM   17  C   UNK N   1       0.794   1.413   0.000  0.00  0.00     0.050 C 
HETATM   18  C   UNK N   1       0.191  -2.217  -0.000  0.00  0.00     0.001 A 
HETATM   19  C   UNK N   1       1.440  -2.795  -0.000  0.00  0.00     0.002 A 
HETATM   20  C   UNK N   1       2.573  -1.990  -0.000  0.00  0.00     0.031 A 
ENDBRANCH   2  14
TORSDOF 1
