REMARK  1 active torsions:
REMARK  status: ('A' for Active; 'I' for Inactive)
REMARK    1  A    between atoms: C_18  and  O_22 
ROOT
HETATM    1  C   UNK N   1       0.276  -0.145  -0.501  0.00  0.00    -0.001 C 
HETATM    2  C   UNK N   1       1.451  -0.870   0.218  0.00  0.00    -0.005 C 
HETATM    3  C   UNK N   1      -1.088  -0.934  -0.433  0.00  0.00    -0.032 C 
HETATM    4  C   UNK N   1       0.157   1.336  -0.064  0.00  0.00     0.007 C 
HETATM    5  C   UNK N   1       2.733  -0.056  -0.050  0.00  0.00     0.001 C 
HETATM    6  C   UNK N   1       1.620  -2.289  -0.364  0.00  0.00     0.006 C 
HETATM    7  C   UNK N   1      -0.882  -2.382   0.103  0.00  0.00     0.002 C 
HETATM    8  C   UNK N   1      -2.123  -0.282   0.505  0.00  0.00     0.054 C 
HETATM    9  C   UNK N   1       1.479   2.106  -0.239  0.00  0.00     0.013 C 
HETATM   10  C   UNK N   1       2.630   1.378   0.466  0.00  0.00    -0.009 C 
HETATM   11  C   UNK N   1       4.049  -0.544   0.542  0.00  0.00     0.009 C 
HETATM   12  C   UNK N   1       0.305  -3.064  -0.568  0.00  0.00     0.006 C 
HETATM   13  C   UNK N   1      -2.139  -3.250  -0.038  0.00  0.00     0.089 C 
HETATM   14  C   UNK N   1      -3.423  -1.056   0.543  0.00  0.00     0.010 C 
HETATM   15  C   UNK N   1       4.042   1.886   0.132  0.00  0.00     0.062 C 
HETATM   16  C   UNK N   1       4.935   0.720   0.583  0.00  0.00     0.038 C 
HETATM   17  C   UNK N   1      -3.417  -2.527   0.306  0.00  0.00     0.157 C 
HETATM   18  C   UNK N   1      -4.583  -0.414   0.733  0.00  0.00     0.142 C 
HETATM   19  C   UNK N   1       4.415   3.192   0.816  0.00  0.00     0.046 C 
HETATM   20  O   UNK N   1       4.192   2.054  -1.250  0.00  0.00    -0.389 OA
HETATM   21  O   UNK N   1      -4.464  -3.155   0.318  0.00  0.00    -0.293 OA
HETATM   22  C   UNK N   1       2.388   1.410   1.989  0.00  0.00     0.018 C 
HETATM   23  C   UNK N   1      -1.680  -0.941  -1.851  0.00  0.00     0.016 C 
HETATM   24  H   UNK N   1       4.344   2.022  -2.208  0.00  0.00     0.210 HD
ENDROOT
BRANCH  18  25
HETATM   25  O   UNK N   1      -4.623   0.922   0.909  0.00  0.00    -0.372 OA
HETATM   26  H   UNK N   1      -3.833   1.411   1.030  0.00  0.00     0.216 HD
ENDBRANCH  18  25
TORSDOF 1
