REMARK  6 active torsions:
REMARK  status: ('A' for Active; 'I' for Inactive)
REMARK    1  A    between atoms: N_2  and  C_9 
REMARK    2  A    between atoms: N_3  and  C_4 
REMARK    3  A    between atoms: N_3  and  C_13 
REMARK       I    between atoms: N_3  and  C_14 
REMARK    4  A    between atoms: C_9  and  C_12 
REMARK    5  A    between atoms: C_12  and  C_15 
REMARK    6  A    between atoms: C_14  and  C_16 
ROOT
HETATM    1  N   UNK N   1       0.397  -0.169   1.301  0.00  0.00     0.093 N 
HETATM    2  C   UNK N   1       1.066   1.968  -0.635  0.00  0.00     0.100 C 
HETATM    3  C   UNK N   1       2.060   1.472   0.430  0.00  0.00     0.033 C 
HETATM    4  C   UNK N   1      -0.590   0.274   0.302  0.00  0.00     0.221 C 
HETATM    5  C   UNK N   1       0.045   0.862  -0.968  0.00  0.00     0.061 C 
HETATM    6  C   UNK N   1       1.359   0.879   1.653  0.00  0.00     0.279 C 
HETATM    7  C   UNK N   1       3.117   0.550  -0.152  0.00  0.00     0.014 C 
HETATM    8  C   UNK N   1      -1.627  -0.794  -0.016  0.00  0.00     0.043 C 
ENDROOT
BRANCH   2   9
HETATM    9  N   UNK N   1       0.617   3.361  -0.356  0.00  0.00    -0.313 N 
HETATM   10  C   UNK N   1       1.640   4.301  -0.256  0.00  0.00     0.224 C 
HETATM   11  O   UNK N   1       2.799   3.956  -0.450  0.00  0.00    -0.273 OA
BRANCH   9  12
HETATM   12  C   UNK N   1      -0.797   3.731  -0.219  0.00  0.00     0.037 A 
HETATM   13  C   UNK N   1      -1.826   2.776  -0.275  0.00  0.00     0.030 A 
HETATM   14  C   UNK N   1      -3.174   3.124  -0.153  0.00  0.00     0.002 A 
HETATM   15  C   UNK N   1      -3.534   4.457   0.019  0.00  0.00     0.000 A 
HETATM   16  C   UNK N   1      -2.544   5.435   0.067  0.00  0.00     0.002 A 
HETATM   17  C   UNK N   1      -1.200   5.073  -0.051  0.00  0.00     0.030 A 
ENDBRANCH   9  12
BRANCH  10  18
HETATM   18  C   UNK N   1       1.405   5.750   0.107  0.00  0.00     0.099 C 
HETATM   19  C   UNK N   1       2.691   6.537   0.318  0.00  0.00     0.014 C 
ENDBRANCH  10  18
ENDBRANCH   2   9
BRANCH   1  20
HETATM   20  C   UNK N   1       1.033  -1.480   1.111  0.00  0.00     0.277 C 
BRANCH  20  21
HETATM   21  C   UNK N   1       1.321  -1.856  -0.340  0.00  0.00     0.068 C 
BRANCH  21  22
HETATM   22  C   UNK N   1       1.297  -3.334  -0.414  0.00  0.00    -0.057 A 
HETATM   23  C   UNK N   1       2.477  -4.061  -0.228  0.00  0.00     0.007 A 
HETATM   24  C   UNK N   1       2.437  -5.458  -0.202  0.00  0.00     0.001 A 
HETATM   25  C   UNK N   1       1.217  -6.125  -0.355  0.00  0.00     0.000 A 
HETATM   26  C   UNK N   1       0.038  -5.397  -0.542  0.00  0.00     0.001 A 
HETATM   27  C   UNK N   1       0.077  -4.002  -0.566  0.00  0.00     0.007 A 
ENDBRANCH  21  22
ENDBRANCH  20  21
ENDBRANCH   1  20
TORSDOF 6
