REMARK  7 active torsions:
REMARK  status: ('A' for Active; 'I' for Inactive)
REMARK    1  A    between atoms: C_17  and  C_16 
REMARK    2  A    between atoms: C_23  and  C_16 
REMARK    3  A    between atoms: N_24  and  C_17 
REMARK    4  A    between atoms: O_28  and  C_19 
REMARK    5  A    between atoms: C_23  and  C_20 
REMARK    6  A    between atoms: C_23  and  C_22 
REMARK    7  A    between atoms: O_29  and  C_22 
ROOT
HETATM    1  C   UNK N   1       2.047  -1.223   0.000  0.00  0.00     0.143 A 
HETATM    2  C   UNK N   1       4.387   1.028   0.000  0.00  0.00     0.011 A 
HETATM    3  C   UNK N   1       0.880   1.117   0.000  0.00  0.00    -0.020 A 
HETATM    4  C   UNK N   1       0.577   1.856   0.000  0.00  0.00     0.004 A 
HETATM    5  C   UNK N   1       4.698   1.792   0.000  0.00  0.00     0.040 A 
HETATM    6  C   UNK N   1       1.328   0.860   0.000  0.00  0.00     0.037 A 
HETATM    7  C   UNK N   1       1.184  -0.027   0.000  0.00  0.00     0.118 A 
HETATM    8  C   UNK N   1       4.125   6.042   0.000  0.00  0.00     0.143 A 
HETATM    9  C   UNK N   1       2.991   5.174   0.000  0.00  0.00     0.143 A 
HETATM   10  C   UNK N   1       4.310   4.626   0.000  0.00  0.00     0.143 A 
HETATM   11  C   UNK N   1       3.623   6.697   0.000  0.00  0.00     0.187 A 
HETATM   12  C   UNK N   1       2.489   5.828   0.000  0.00  0.00     0.187 A 
HETATM   13  C   UNK N   1       3.994   3.864   0.000  0.00  0.00     0.195 A 
HETATM   14  C   UNK N   1       3.263   0.191   0.000  0.00  0.00     0.065 A 
HETATM   15  C   UNK N   1       3.562   0.941   0.000  0.00  0.00    -0.046 A 
HETATM   16  C   UNK N   1       1.850   0.967   0.000  0.00  0.00     0.046 A 
HETATM   17  C   UNK N   1       2.448   0.177   0.000  0.00  0.00     0.091 A 
HETATM   18  C   UNK N   1       1.136   2.458   0.000  0.00  0.00     0.171 A 
HETATM   19  C   UNK N   1       4.179   2.448   0.000  0.00  0.00     0.102 A 
HETATM   20  C   UNK N   1       3.042   1.587   0.000  0.00  0.00    -0.003 A 
HETATM   21  C   UNK N   1       3.332   2.351   0.000  0.00  0.00     0.110 A 
HETATM   22  C   UNK N   1       1.957   2.294   0.000  0.00  0.00     0.175 A 
HETATM   23  C   UNK N   1       2.164   1.454   0.000  0.00  0.00     0.030 A 
HETATM   24  N   UNK N   1       1.907  -0.410   0.000  0.00  0.00    -0.411 N 
HETATM   25  N   UNK N   1       3.808   5.281   0.000  0.00  0.00    -0.406 N 
HETATM   26  O   UNK N   1       0.882   3.242   0.000  0.00  0.00    -0.389 OA
HETATM   27  O   UNK N   1       2.805   6.590   0.000  0.00  0.00    -0.388 OA
HETATM   28  O   UNK N   1       4.495   3.210   0.000  0.00  0.00    -0.347 OA
HETATM   29  O   UNK N   1       2.621   2.795   0.000  0.00  0.00    -0.338 OA
HETATM   30  H   UNK N   1       1.532   3.962   0.000  0.00  0.00     0.210 HD
ENDROOT
TORSDOF 7
