REMARK  8 active torsions:
REMARK  status: ('A' for Active; 'I' for Inactive)
REMARK    1  A    between atoms: O_1  and  C_12 
REMARK    2  A    between atoms: N_4  and  C_13 
REMARK    3  A    between atoms: C_6  and  N_5 
REMARK    4  A    between atoms: N_5  and  C_14 
REMARK       I    between atoms: N_5  and  C_15 
REMARK    5  A    between atoms: C_6  and  C_12 
REMARK    6  A    between atoms: C_13  and  C_16 
REMARK    7  A    between atoms: C_15  and  C_17 
REMARK    8  A    between atoms: C_16  and  C_20 
ROOT
HETATM    1  N   UNK N   1      -0.457  -0.595  -0.129  0.00  0.00     0.089 N 
HETATM    2  C   UNK N   1      -1.150   2.343   0.193  0.00  0.00     0.134 C 
HETATM    3  C   UNK N   1      -1.489   1.479  -1.066  0.00  0.00     0.049 C 
HETATM    4  C   UNK N   1      -1.116   1.360   1.387  0.00  0.00     0.073 C 
HETATM    5  C   UNK N   1      -0.506   0.327  -1.273  0.00  0.00     0.279 C 
HETATM    6  C   UNK N   1      -0.260   0.093   1.159  0.00  0.00     0.275 C 
HETATM    7  C   UNK N   1      -2.922   0.906  -1.040  0.00  0.00     0.015 C 
ENDROOT
BRANCH   2   8
HETATM    8  N   UNK N   1       0.146   3.128   0.048  0.00  0.00    -0.298 N 
HETATM    9  C   UNK N   1       0.221   4.525   0.089  0.00  0.00     0.225 C 
HETATM   10  O   UNK N   1      -0.763   5.216   0.310  0.00  0.00    -0.273 OA
BRANCH   8  11
HETATM   11  C   UNK N   1       1.427   2.453  -0.046  0.00  0.00     0.038 A 
HETATM   12  C   UNK N   1       2.310   2.733  -1.108  0.00  0.00     0.030 A 
HETATM   13  C   UNK N   1       3.641   2.298  -1.068  0.00  0.00     0.002 A 
HETATM   14  C   UNK N   1       4.118   1.603   0.044  0.00  0.00     0.000 A 
HETATM   15  C   UNK N   1       3.266   1.340   1.116  0.00  0.00     0.002 A 
HETATM   16  C   UNK N   1       1.941   1.785   1.079  0.00  0.00     0.030 A 
ENDBRANCH   8  11
BRANCH   9  17
HETATM   17  C   UNK N   1       1.521   5.263  -0.098  0.00  0.00     0.099 C 
HETATM   18  C   UNK N   1       1.888   6.074   1.128  0.00  0.00     0.014 C 
ENDBRANCH   9  17
ENDBRANCH   2   8
BRANCH   2  19
HETATM   19  C   UNK N   1      -2.381   3.254   0.343  0.00  0.00     0.288 C 
HETATM   20  O   UNK N   1      -2.725   3.955  -0.604  0.00  0.00    -0.262 OA
BRANCH  19  21
HETATM   21  O   UNK N   1      -3.129   3.239   1.475  0.00  0.00    -0.324 OA
HETATM   22  C   UNK N   1      -4.265   4.007   1.602  0.00  0.00     0.213 C 
ENDBRANCH  19  21
ENDBRANCH   2  19
BRANCH   1  23
HETATM   23  C   UNK N   1      -1.597  -1.513  -0.123  0.00  0.00     0.277 C 
BRANCH  23  24
HETATM   24  C   UNK N   1      -1.557  -2.462   1.070  0.00  0.00     0.068 C 
BRANCH  24  25
HETATM   25  C   UNK N   1      -1.533  -3.880   0.628  0.00  0.00    -0.057 A 
HETATM   26  C   UNK N   1      -0.348  -4.459   0.158  0.00  0.00     0.007 A 
HETATM   27  C   UNK N   1      -0.335  -5.802  -0.233  0.00  0.00     0.001 A 
HETATM   28  C   UNK N   1      -1.505  -6.564  -0.156  0.00  0.00     0.000 A 
HETATM   29  C   UNK N   1      -2.688  -5.985   0.315  0.00  0.00     0.001 A 
HETATM   30  C   UNK N   1      -2.699  -4.646   0.712  0.00  0.00     0.007 A 
ENDBRANCH  24  25
ENDBRANCH  23  24
ENDBRANCH   1  23
TORSDOF 8
