MODEL 1
REMARK VINA RESULT:      -5.5      0.000      0.000
REMARK  8 active torsions:
REMARK  status: ('A' for Active; 'I' for Inactive)
REMARK    1  A    between atoms: N_2  and  C_9 
REMARK    2  A    between atoms: N_2  and  C_11 
REMARK    3  A    between atoms: N_2  and  C_12 
REMARK    4  A    between atoms: N_3  and  C_8 
REMARK    5  A    between atoms: N_3  and  C_13 
REMARK    6  A    between atoms: C_6  and  C_7 
REMARK    7  A    between atoms: C_6  and  C_8 
REMARK    8  A    between atoms: C_7  and  C_9 
ROOT
HETATM    1 Cl   UNK N   1      27.024  30.965  -3.117  0.00  0.00    -0.084 Cl
HETATM    2  N   UNK N   1      28.006  28.384  -7.420  0.00  0.00    -0.365 N 
ATOM      3  HN  UNK N   1      28.655  29.133  -7.658  1.00  0.00     0.165 HD
HETATM    4  C   UNK N   1      26.241  26.346  -6.782  0.00  0.00     0.042 A 
HETATM    5  C   UNK N   1      26.398  27.431  -5.910  0.00  0.00     0.017 A 
HETATM    6  C   UNK N   1      26.983  26.295  -7.964  0.00  0.00     0.047 A 
HETATM    7  C   UNK N   1      27.307  28.455  -6.257  0.00  0.00     0.046 A 
HETATM    8  C   UNK N   1      25.701  27.501  -4.697  0.00  0.00     0.018 A 
HETATM    9  C   UNK N   1      27.859  27.334  -8.275  0.00  0.00     0.090 A 
HETATM   10  C   UNK N   1      27.498  29.536  -5.391  0.00  0.00     0.054 A 
HETATM   11  C   UNK N   1      25.896  28.587  -3.839  0.00  0.00     0.025 A 
HETATM   12  C   UNK N   1      26.792  29.602  -4.187  0.00  0.00     0.036 A 
ENDROOT
BRANCH   4  13
HETATM   13  N   UNK N   1      25.424  25.256  -6.426  0.00  0.00    -0.385 N 
HETATM   14  H   UNK N   1      24.443  25.304  -6.497  0.00  0.00     0.160 HD
BRANCH  13  15
HETATM   15  C   UNK N   1      26.083  24.072  -5.956  0.00  0.00     0.077 C 
HETATM   16  C   UNK N   1      25.780  22.825  -6.770  0.00  0.00     0.032 C 
BRANCH  15  17
HETATM   17  C   UNK N   1      26.185  24.007  -4.434  0.00  0.00     0.026 C 
BRANCH  17  18
HETATM   18  C   UNK N   1      27.581  24.209  -3.880  0.00  0.00     0.032 C 
BRANCH  18  19
HETATM   19  C   UNK N   1      28.637  24.457  -4.964  0.00  0.00     0.272 C 
BRANCH  19  20
HETATM   20  N   UNK N   1      29.945  23.896  -4.596  0.00  0.00     0.087 N 
BRANCH  20  21
HETATM   21  C   UNK N   1      29.828  22.438  -4.451  0.00  0.00     0.268 C 
HETATM   22  C   UNK N   1      29.676  21.774  -5.806  0.00  0.00     0.037 C 
ENDBRANCH  20  21
BRANCH  20  23
HETATM   23  C   UNK N   1      30.372  24.586  -3.369  0.00  0.00     0.268 C 
HETATM   24  C   UNK N   1      30.831  26.028  -3.550  0.00  0.00     0.037 C 
ENDBRANCH  20  23
ENDBRANCH  19  20
ENDBRANCH  18  19
ENDBRANCH  17  18
ENDBRANCH  15  17
ENDBRANCH  13  15
ENDBRANCH   4  13
TORSDOF 8
ENDMDL
MODEL 2
REMARK VINA RESULT:      -5.2     13.208     15.613
REMARK  8 active torsions:
REMARK  status: ('A' for Active; 'I' for Inactive)
REMARK    1  A    between atoms: N_2  and  C_9 
REMARK    2  A    between atoms: N_2  and  C_11 
REMARK    3  A    between atoms: N_2  and  C_12 
REMARK    4  A    between atoms: N_3  and  C_8 
REMARK    5  A    between atoms: N_3  and  C_13 
REMARK    6  A    between atoms: C_6  and  C_7 
REMARK    7  A    between atoms: C_6  and  C_8 
REMARK    8  A    between atoms: C_7  and  C_9 
ROOT
HETATM    1 Cl   UNK N   1      26.775  20.208   3.820  0.00  0.00    -0.084 Cl
HETATM    2  N   UNK N   1      27.859  18.821   8.622  0.00  0.00    -0.365 N 
ATOM      3  HN  UNK N   1      27.089  19.423   8.912  1.00  0.00     0.165 HD
HETATM    4  C   UNK N   1      29.954  17.186   7.839  0.00  0.00     0.042 A 
HETATM    5  C   UNK N   1      29.229  17.899   6.876  0.00  0.00     0.017 A 
HETATM    6  C   UNK N   1      29.610  17.298   9.188  0.00  0.00     0.047 A 
HETATM    7  C   UNK N   1      28.163  18.723   7.300  0.00  0.00     0.046 A 
HETATM    8  C   UNK N   1      29.519  17.786   5.510  0.00  0.00     0.018 A 
HETATM    9  C   UNK N   1      28.560  18.134   9.565  0.00  0.00     0.090 A 
HETATM   10  C   UNK N   1      27.410  19.426   6.356  0.00  0.00     0.054 A 
HETATM   11  C   UNK N   1      28.762  18.494   4.573  0.00  0.00     0.025 A 
HETATM   12  C   UNK N   1      27.711  19.313   4.996  0.00  0.00     0.036 A 
ENDROOT
BRANCH   4  13
HETATM   13  N   UNK N   1      30.956  16.276   7.450  0.00  0.00    -0.385 N 
HETATM   14  H   UNK N   1      30.773  15.556   6.804  0.00  0.00     0.160 HD
BRANCH  13  15
HETATM   15  C   UNK N   1      32.254  16.444   8.036  0.00  0.00     0.077 C 
HETATM   16  C   UNK N   1      32.740  17.883   8.069  0.00  0.00     0.032 C 
BRANCH  15  17
HETATM   17  C   UNK N   1      33.212  15.302   7.708  0.00  0.00     0.026 C 
BRANCH  17  18
HETATM   18  C   UNK N   1      34.536  15.733   7.109  0.00  0.00     0.032 C 
BRANCH  18  19
HETATM   19  C   UNK N   1      34.489  15.904   5.586  0.00  0.00     0.272 C 
BRANCH  19  20
HETATM   20  N   UNK N   1      33.431  15.088   4.973  0.00  0.00     0.087 N 
BRANCH  20  21
HETATM   21  C   UNK N   1      34.041  14.029   4.158  0.00  0.00     0.268 C 
HETATM   22  C   UNK N   1      33.560  14.111   2.722  0.00  0.00     0.037 C 
ENDBRANCH  20  21
BRANCH  20  23
HETATM   23  C   UNK N   1      32.574  16.010   4.211  0.00  0.00     0.268 C 
HETATM   24  C   UNK N   1      32.940  17.487   4.313  0.00  0.00     0.037 C 
ENDBRANCH  20  23
ENDBRANCH  19  20
ENDBRANCH  18  19
ENDBRANCH  17  18
ENDBRANCH  15  17
ENDBRANCH  13  15
ENDBRANCH   4  13
TORSDOF 8
ENDMDL
MODEL 3
REMARK VINA RESULT:      -5.2      1.888      3.118
REMARK  8 active torsions:
REMARK  status: ('A' for Active; 'I' for Inactive)
REMARK    1  A    between atoms: N_2  and  C_9 
REMARK    2  A    between atoms: N_2  and  C_11 
REMARK    3  A    between atoms: N_2  and  C_12 
REMARK    4  A    between atoms: N_3  and  C_8 
REMARK    5  A    between atoms: N_3  and  C_13 
REMARK    6  A    between atoms: C_6  and  C_7 
REMARK    7  A    between atoms: C_6  and  C_8 
REMARK    8  A    between atoms: C_7  and  C_9 
ROOT
HETATM    1 Cl   UNK N   1      30.178  30.262  -8.448  0.00  0.00    -0.084 Cl
HETATM    2  N   UNK N   1      27.102  29.804  -4.389  0.00  0.00    -0.365 N 
ATOM      3  HN  UNK N   1      27.488  30.690  -4.064  1.00  0.00     0.165 HD
HETATM    4  C   UNK N   1      26.052  27.394  -5.265  0.00  0.00     0.042 A 
HETATM    5  C   UNK N   1      27.033  28.044  -6.024  0.00  0.00     0.017 A 
HETATM    6  C   UNK N   1      25.603  27.971  -4.074  0.00  0.00     0.047 A 
HETATM    7  C   UNK N   1      27.550  29.274  -5.557  0.00  0.00     0.046 A 
HETATM    8  C   UNK N   1      27.483  27.518  -7.242  0.00  0.00     0.018 A 
HETATM    9  C   UNK N   1      26.150  29.179  -3.643  0.00  0.00     0.090 A 
HETATM   10  C   UNK N   1      28.513  29.951  -6.310  0.00  0.00     0.054 A 
HETATM   11  C   UNK N   1      28.447  28.202  -7.986  0.00  0.00     0.025 A 
HETATM   12  C   UNK N   1      28.962  29.416  -7.519  0.00  0.00     0.036 A 
ENDROOT
BRANCH   4  13
HETATM   13  N   UNK N   1      25.437  26.222  -5.744  0.00  0.00    -0.385 N 
HETATM   14  H   UNK N   1      24.550  26.244  -6.170  0.00  0.00     0.160 HD
BRANCH  13  15
HETATM   15  C   UNK N   1      26.161  24.994  -5.585  0.00  0.00     0.077 C 
HETATM   16  C   UNK N   1      26.102  24.075  -6.794  0.00  0.00     0.032 C 
BRANCH  15  17
HETATM   17  C   UNK N   1      26.080  24.429  -4.169  0.00  0.00     0.026 C 
BRANCH  17  18
HETATM   18  C   UNK N   1      27.419  24.155  -3.515  0.00  0.00     0.032 C 
BRANCH  18  19
HETATM   19  C   UNK N   1      28.535  25.094  -3.992  0.00  0.00     0.272 C 
BRANCH  19  20
HETATM   20  N   UNK N   1      29.839  24.736  -3.416  0.00  0.00     0.087 N 
BRANCH  20  21
HETATM   21  C   UNK N   1      30.883  25.583  -4.008  0.00  0.00     0.268 C 
HETATM   22  C   UNK N   1      30.274  26.620  -4.933  0.00  0.00     0.037 C 
ENDBRANCH  20  21
BRANCH  20  23
HETATM   23  C   UNK N   1      30.028  23.297  -3.657  0.00  0.00     0.268 C 
HETATM   24  C   UNK N   1      30.876  22.562  -2.626  0.00  0.00     0.037 C 
ENDBRANCH  20  23
ENDBRANCH  19  20
ENDBRANCH  18  19
ENDBRANCH  17  18
ENDBRANCH  15  17
ENDBRANCH  13  15
ENDBRANCH   4  13
TORSDOF 8
ENDMDL
MODEL 4
REMARK VINA RESULT:      -5.1      1.364      2.014
REMARK  8 active torsions:
REMARK  status: ('A' for Active; 'I' for Inactive)
REMARK    1  A    between atoms: N_2  and  C_9 
REMARK    2  A    between atoms: N_2  and  C_11 
REMARK    3  A    between atoms: N_2  and  C_12 
REMARK    4  A    between atoms: N_3  and  C_8 
REMARK    5  A    between atoms: N_3  and  C_13 
REMARK    6  A    between atoms: C_6  and  C_7 
REMARK    7  A    between atoms: C_6  and  C_8 
REMARK    8  A    between atoms: C_7  and  C_9 
ROOT
HETATM    1 Cl   UNK N   1      26.320  29.525  -3.544  0.00  0.00    -0.084 Cl
HETATM    2  N   UNK N   1      27.854  27.594  -8.024  0.00  0.00    -0.365 N 
ATOM      3  HN  UNK N   1      28.501  28.380  -8.080  1.00  0.00     0.165 HD
HETATM    4  C   UNK N   1      26.097  25.457  -7.878  0.00  0.00     0.042 A 
HETATM    5  C   UNK N   1      26.122  26.410  -6.852  0.00  0.00     0.017 A 
HETATM    6  C   UNK N   1      26.966  25.585  -8.964  0.00  0.00     0.047 A 
HETATM    7  C   UNK N   1      27.029  27.488  -6.948  0.00  0.00     0.046 A 
HETATM    8  C   UNK N   1      25.293  26.296  -5.728  0.00  0.00     0.018 A 
HETATM    9  C   UNK N   1      27.836  26.673  -9.027  0.00  0.00     0.090 A 
HETATM   10  C   UNK N   1      27.088  28.439  -5.926  0.00  0.00     0.054 A 
HETATM   11  C   UNK N   1      25.358  27.253  -4.712  0.00  0.00     0.025 A 
HETATM   12  C   UNK N   1      26.252  28.323  -4.812  0.00  0.00     0.036 A 
ENDROOT
BRANCH   4  13
HETATM   13  N   UNK N   1      25.282  24.313  -7.771  0.00  0.00    -0.385 N 
HETATM   14  H   UNK N   1      24.300  24.383  -7.746  0.00  0.00     0.160 HD
BRANCH  13  15
HETATM   15  C   UNK N   1      25.945  23.043  -7.702  0.00  0.00     0.077 C 
HETATM   16  C   UNK N   1      25.087  21.869  -8.141  0.00  0.00     0.032 C 
BRANCH  15  17
HETATM   17  C   UNK N   1      26.883  22.923  -6.503  0.00  0.00     0.026 C 
BRANCH  17  18
HETATM   18  C   UNK N   1      28.359  22.903  -6.850  0.00  0.00     0.032 C 
BRANCH  18  19
HETATM   19  C   UNK N   1      29.234  23.643  -5.831  0.00  0.00     0.272 C 
BRANCH  19  20
HETATM   20  N   UNK N   1      29.081  23.097  -4.475  0.00  0.00     0.087 N 
BRANCH  20  21
HETATM   21  C   UNK N   1      28.867  24.199  -3.527  0.00  0.00     0.268 C 
HETATM   22  C   UNK N   1      28.751  25.522  -4.258  0.00  0.00     0.037 C 
ENDBRANCH  20  21
BRANCH  20  23
HETATM   23  C   UNK N   1      30.286  22.298  -4.201  0.00  0.00     0.268 C 
HETATM   24  C   UNK N   1      31.584  23.087  -4.075  0.00  0.00     0.037 C 
ENDBRANCH  20  23
ENDBRANCH  19  20
ENDBRANCH  18  19
ENDBRANCH  17  18
ENDBRANCH  15  17
ENDBRANCH  13  15
ENDBRANCH   4  13
TORSDOF 8
ENDMDL
MODEL 5
REMARK VINA RESULT:      -5.1     16.340     18.755
REMARK  8 active torsions:
REMARK  status: ('A' for Active; 'I' for Inactive)
REMARK    1  A    between atoms: N_2  and  C_9 
REMARK    2  A    between atoms: N_2  and  C_11 
REMARK    3  A    between atoms: N_2  and  C_12 
REMARK    4  A    between atoms: N_3  and  C_8 
REMARK    5  A    between atoms: N_3  and  C_13 
REMARK    6  A    between atoms: C_6  and  C_7 
REMARK    7  A    between atoms: C_6  and  C_8 
REMARK    8  A    between atoms: C_7  and  C_9 
ROOT
HETATM    1 Cl   UNK N   1      23.125  11.557  12.986  0.00  0.00    -0.084 Cl
HETATM    2  N   UNK N   1      24.613  13.318   8.421  0.00  0.00    -0.365 N 
ATOM      3  HN  UNK N   1      25.565  13.086   8.702  1.00  0.00     0.165 HD
HETATM    4  C   UNK N   1      22.028  13.952   7.652  0.00  0.00     0.042 A 
HETATM    5  C   UNK N   1      22.264  13.402   8.919  0.00  0.00     0.017 A 
HETATM    6  C   UNK N   1      23.098  14.168   6.781  0.00  0.00     0.047 A 
HETATM    7  C   UNK N   1      23.590  13.084   9.286  0.00  0.00     0.046 A 
HETATM    8  C   UNK N   1      21.213  13.135   9.806  0.00  0.00     0.018 A 
HETATM    9  C   UNK N   1      24.394  13.853   7.189  0.00  0.00     0.090 A 
HETATM   10  C   UNK N   1      23.847  12.513  10.535  0.00  0.00     0.054 A 
HETATM   11  C   UNK N   1      21.480  12.565  11.054  0.00  0.00     0.025 A 
HETATM   12  C   UNK N   1      22.795  12.257  11.418  0.00  0.00     0.036 A 
ENDROOT
BRANCH   4  13
HETATM   13  N   UNK N   1      20.713  14.187   7.208  0.00  0.00    -0.385 N 
HETATM   14  H   UNK N   1      20.042  13.466   7.185  0.00  0.00     0.160 HD
BRANCH  13  15
HETATM   15  C   UNK N   1      20.393  15.521   6.792  0.00  0.00     0.077 C 
HETATM   16  C   UNK N   1      20.236  16.509   7.936  0.00  0.00     0.032 C 
BRANCH  15  17
HETATM   17  C   UNK N   1      19.457  15.565   5.586  0.00  0.00     0.026 C 
BRANCH  17  18
HETATM   18  C   UNK N   1      20.075  15.093   4.285  0.00  0.00     0.032 C 
BRANCH  18  19
HETATM   19  C   UNK N   1      21.265  15.948   3.830  0.00  0.00     0.272 C 
BRANCH  19  20
HETATM   20  N   UNK N   1      20.932  17.379   3.794  0.00  0.00     0.087 N 
BRANCH  20  21
HETATM   21  C   UNK N   1      20.270  17.694   2.521  0.00  0.00     0.268 C 
HETATM   22  C   UNK N   1      19.363  18.900   2.671  0.00  0.00     0.037 C 
ENDBRANCH  20  21
BRANCH  20  23
HETATM   23  C   UNK N   1      22.189  18.112   4.012  0.00  0.00     0.268 C 
HETATM   24  C   UNK N   1      22.873  17.864   5.352  0.00  0.00     0.037 C 
ENDBRANCH  20  23
ENDBRANCH  19  20
ENDBRANCH  18  19
ENDBRANCH  17  18
ENDBRANCH  15  17
ENDBRANCH  13  15
ENDBRANCH   4  13
TORSDOF 8
ENDMDL
MODEL 6
REMARK VINA RESULT:      -5.0     13.340     15.165
REMARK  8 active torsions:
REMARK  status: ('A' for Active; 'I' for Inactive)
REMARK    1  A    between atoms: N_2  and  C_9 
REMARK    2  A    between atoms: N_2  and  C_11 
REMARK    3  A    between atoms: N_2  and  C_12 
REMARK    4  A    between atoms: N_3  and  C_8 
REMARK    5  A    between atoms: N_3  and  C_13 
REMARK    6  A    between atoms: C_6  and  C_7 
REMARK    7  A    between atoms: C_6  and  C_8 
REMARK    8  A    between atoms: C_7  and  C_9 
ROOT
HETATM    1 Cl   UNK N   1      26.646  20.562   3.623  0.00  0.00    -0.084 Cl
HETATM    2  N   UNK N   1      21.723  20.405   2.249  0.00  0.00    -0.365 N 
ATOM      3  HN  UNK N   1      21.951  21.113   1.551  1.00  0.00     0.165 HD
HETATM    4  C   UNK N   1      21.096  18.485   4.144  0.00  0.00     0.042 A 
HETATM    5  C   UNK N   1      22.407  18.969   4.050  0.00  0.00     0.017 A 
HETATM    6  C   UNK N   1      20.115  18.967   3.275  0.00  0.00     0.047 A 
HETATM    7  C   UNK N   1      22.702  19.946   3.072  0.00  0.00     0.046 A 
HETATM    8  C   UNK N   1      23.427  18.484   4.877  0.00  0.00     0.018 A 
HETATM    9  C   UNK N   1      20.446  19.942   2.334  0.00  0.00     0.090 A 
HETATM   10  C   UNK N   1      24.007  20.427   2.944  0.00  0.00     0.054 A 
HETATM   11  C   UNK N   1      24.730  18.973   4.743  0.00  0.00     0.025 A 
HETATM   12  C   UNK N   1      25.017  19.943   3.779  0.00  0.00     0.036 A 
ENDROOT
BRANCH   4  13
HETATM   13  N   UNK N   1      20.783  17.439   5.034  0.00  0.00    -0.385 N 
HETATM   14  H   UNK N   1      20.833  17.562   6.009  0.00  0.00     0.160 HD
BRANCH  13  15
HETATM   15  C   UNK N   1      20.389  16.187   4.456  0.00  0.00     0.077 C 
HETATM   16  C   UNK N   1      18.989  15.737   4.842  0.00  0.00     0.032 C 
BRANCH  15  17
HETATM   17  C   UNK N   1      21.535  15.183   4.361  0.00  0.00     0.026 C 
BRANCH  17  18
HETATM   18  C   UNK N   1      22.370  15.050   5.620  0.00  0.00     0.032 C 
BRANCH  18  19
HETATM   19  C   UNK N   1      21.931  13.890   6.522  0.00  0.00     0.272 C 
BRANCH  19  20
HETATM   20  N   UNK N   1      21.884  14.282   7.938  0.00  0.00     0.087 N 
BRANCH  20  21
HETATM   21  C   UNK N   1      22.228  13.127   8.777  0.00  0.00     0.268 C 
HETATM   22  C   UNK N   1      21.557  13.228  10.133  0.00  0.00     0.037 C 
ENDBRANCH  20  21
BRANCH  20  23
HETATM   23  C   UNK N   1      20.536  14.820   8.183  0.00  0.00     0.268 C 
HETATM   24  C   UNK N   1      20.470  16.305   8.518  0.00  0.00     0.037 C 
ENDBRANCH  20  23
ENDBRANCH  19  20
ENDBRANCH  18  19
ENDBRANCH  17  18
ENDBRANCH  15  17
ENDBRANCH  13  15
ENDBRANCH   4  13
TORSDOF 8
ENDMDL
MODEL 7
REMARK VINA RESULT:      -4.9     15.186     17.716
REMARK  8 active torsions:
REMARK  status: ('A' for Active; 'I' for Inactive)
REMARK    1  A    between atoms: N_2  and  C_9 
REMARK    2  A    between atoms: N_2  and  C_11 
REMARK    3  A    between atoms: N_2  and  C_12 
REMARK    4  A    between atoms: N_3  and  C_8 
REMARK    5  A    between atoms: N_3  and  C_13 
REMARK    6  A    between atoms: C_6  and  C_7 
REMARK    7  A    between atoms: C_6  and  C_8 
REMARK    8  A    between atoms: C_7  and  C_9 
ROOT
HETATM    1 Cl   UNK N   1      35.405  11.834   7.989  0.00  0.00    -0.084 Cl
HETATM    2  N   UNK N   1      34.717  16.878   7.503  0.00  0.00    -0.365 N 
ATOM      3  HN  UNK N   1      35.643  16.909   7.076  1.00  0.00     0.165 HD
HETATM    4  C   UNK N   1      32.203  16.802   8.664  0.00  0.00     0.042 A 
HETATM    5  C   UNK N   1      32.945  15.621   8.528  0.00  0.00     0.017 A 
HETATM    6  C   UNK N   1      32.734  18.009   8.204  0.00  0.00     0.047 A 
HETATM    7  C   UNK N   1      34.223  15.686   7.930  0.00  0.00     0.046 A 
HETATM    8  C   UNK N   1      32.433  14.385   8.942  0.00  0.00     0.018 A 
HETATM    9  C   UNK N   1      34.005  18.031   7.632  0.00  0.00     0.090 A 
HETATM   10  C   UNK N   1      34.971  14.518   7.763  0.00  0.00     0.054 A 
HETATM   11  C   UNK N   1      33.190  13.222   8.773  0.00  0.00     0.025 A 
HETATM   12  C   UNK N   1      34.457  13.290   8.186  0.00  0.00     0.036 A 
ENDROOT
BRANCH   4  13
HETATM   13  N   UNK N   1      30.886  16.765   9.160  0.00  0.00    -0.385 N 
HETATM   14  H   UNK N   1      30.631  16.166   9.898  0.00  0.00     0.160 HD
BRANCH  13  15
HETATM   15  C   UNK N   1      29.931  17.640   8.543  0.00  0.00     0.077 C 
HETATM   16  C   UNK N   1      29.156  18.506   9.521  0.00  0.00     0.032 C 
BRANCH  15  17
HETATM   17  C   UNK N   1      29.240  17.014   7.333  0.00  0.00     0.026 C 
BRANCH  17  18
HETATM   18  C   UNK N   1      29.670  17.577   5.993  0.00  0.00     0.032 C 
BRANCH  18  19
HETATM   19  C   UNK N   1      30.167  16.506   5.014  0.00  0.00     0.272 C 
BRANCH  19  20
HETATM   20  N   UNK N   1      31.493  15.993   5.387  0.00  0.00     0.087 N 
BRANCH  20  21
HETATM   21  C   UNK N   1      32.506  16.554   4.483  0.00  0.00     0.268 C 
HETATM   22  C   UNK N   1      33.616  15.552   4.230  0.00  0.00     0.037 C 
ENDBRANCH  20  21
BRANCH  20  23
HETATM   23  C   UNK N   1      31.405  14.525   5.348  0.00  0.00     0.268 C 
HETATM   24  C   UNK N   1      30.040  13.956   4.978  0.00  0.00     0.037 C 
ENDBRANCH  20  23
ENDBRANCH  19  20
ENDBRANCH  18  19
ENDBRANCH  17  18
ENDBRANCH  15  17
ENDBRANCH  13  15
ENDBRANCH   4  13
TORSDOF 8
ENDMDL
MODEL 8
REMARK VINA RESULT:      -4.8     16.435     18.869
REMARK  8 active torsions:
REMARK  status: ('A' for Active; 'I' for Inactive)
REMARK    1  A    between atoms: N_2  and  C_9 
REMARK    2  A    between atoms: N_2  and  C_11 
REMARK    3  A    between atoms: N_2  and  C_12 
REMARK    4  A    between atoms: N_3  and  C_8 
REMARK    5  A    between atoms: N_3  and  C_13 
REMARK    6  A    between atoms: C_6  and  C_7 
REMARK    7  A    between atoms: C_6  and  C_8 
REMARK    8  A    between atoms: C_7  and  C_9 
ROOT
HETATM    1 Cl   UNK N   1      22.934  11.560  13.194  0.00  0.00    -0.084 Cl
HETATM    2  N   UNK N   1      24.929  13.259   8.802  0.00  0.00    -0.365 N 
ATOM      3  HN  UNK N   1      25.844  13.052   9.200  1.00  0.00     0.165 HD
HETATM    4  C   UNK N   1      22.444  13.827   7.716  0.00  0.00     0.042 A 
HETATM    5  C   UNK N   1      22.536  13.307   9.013  0.00  0.00     0.017 A 
HETATM    6  C   UNK N   1      23.608  14.047   6.975  0.00  0.00     0.047 A 
HETATM    7  C   UNK N   1      23.814  13.023   9.543  0.00  0.00     0.046 A 
HETATM    8  C   UNK N   1      21.391  13.037   9.775  0.00  0.00     0.018 A 
HETATM    9  C   UNK N   1      24.850  13.766   7.541  0.00  0.00     0.090 A 
HETATM   10  C   UNK N   1      23.929  12.482  10.826  0.00  0.00     0.054 A 
HETATM   11  C   UNK N   1      21.516  12.498  11.058  0.00  0.00     0.025 A 
HETATM   12  C   UNK N   1      22.783  12.223  11.582  0.00  0.00     0.036 A 
ENDROOT
BRANCH   4  13
HETATM   13  N   UNK N   1      21.188  14.028   7.113  0.00  0.00    -0.385 N 
HETATM   14  H   UNK N   1      20.562  13.282   6.970  0.00  0.00     0.160 HD
BRANCH  13  15
HETATM   15  C   UNK N   1      20.860  15.366   6.717  0.00  0.00     0.077 C 
HETATM   16  C   UNK N   1      20.588  16.310   7.877  0.00  0.00     0.032 C 
BRANCH  15  17
HETATM   17  C   UNK N   1      20.017  15.426   5.446  0.00  0.00     0.026 C 
BRANCH  17  18
HETATM   18  C   UNK N   1      20.797  15.258   4.157  0.00  0.00     0.032 C 
BRANCH  18  19
HETATM   19  C   UNK N   1      19.971  14.642   3.020  0.00  0.00     0.272 C 
BRANCH  19  20
HETATM   20  N   UNK N   1      20.419  15.109   1.700  0.00  0.00     0.087 N 
BRANCH  20  21
HETATM   21  C   UNK N   1      21.795  14.653   1.463  0.00  0.00     0.268 C 
HETATM   22  C   UNK N   1      21.807  13.409   0.596  0.00  0.00     0.037 C 
ENDBRANCH  20  21
BRANCH  20  23
HETATM   23  C   UNK N   1      20.263  16.572   1.693  0.00  0.00     0.268 C 
HETATM   24  C   UNK N   1      19.919  17.192   0.344  0.00  0.00     0.037 C 
ENDBRANCH  20  23
ENDBRANCH  19  20
ENDBRANCH  18  19
ENDBRANCH  17  18
ENDBRANCH  15  17
ENDBRANCH  13  15
ENDBRANCH   4  13
TORSDOF 8
ENDMDL
MODEL 9
REMARK VINA RESULT:      -4.8      2.427      4.757
REMARK  8 active torsions:
REMARK  status: ('A' for Active; 'I' for Inactive)
REMARK    1  A    between atoms: N_2  and  C_9 
REMARK    2  A    between atoms: N_2  and  C_11 
REMARK    3  A    between atoms: N_2  and  C_12 
REMARK    4  A    between atoms: N_3  and  C_8 
REMARK    5  A    between atoms: N_3  and  C_13 
REMARK    6  A    between atoms: C_6  and  C_7 
REMARK    7  A    between atoms: C_6  and  C_8 
REMARK    8  A    between atoms: C_7  and  C_9 
ROOT
HETATM    1 Cl   UNK N   1      25.374  24.890  -8.878  0.00  0.00    -0.084 Cl
HETATM    2  N   UNK N   1      25.363  27.812  -4.682  0.00  0.00    -0.365 N 
ATOM      3  HN  UNK N   1      24.484  27.359  -4.434  1.00  0.00     0.165 HD
HETATM    4  C   UNK N   1      27.750  29.049  -5.351  0.00  0.00     0.042 A 
HETATM    5  C   UNK N   1      27.202  28.083  -6.204  0.00  0.00     0.017 A 
HETATM    6  C   UNK N   1      27.092  29.376  -4.163  0.00  0.00     0.047 A 
HETATM    7  C   UNK N   1      25.986  27.464  -5.839  0.00  0.00     0.046 A 
HETATM    8  C   UNK N   1      27.850  27.700  -7.386  0.00  0.00     0.018 A 
HETATM    9  C   UNK N   1      25.886  28.751  -3.847  0.00  0.00     0.090 A 
HETATM   10  C   UNK N   1      25.433  26.481  -6.663  0.00  0.00     0.054 A 
HETATM   11  C   UNK N   1      27.287  26.717  -8.204  0.00  0.00     0.025 A 
HETATM   12  C   UNK N   1      26.081  26.110  -7.844  0.00  0.00     0.036 A 
ENDROOT
BRANCH   4  13
HETATM   13  N   UNK N   1      29.010  29.614  -5.626  0.00  0.00    -0.385 N 
HETATM   14  H   UNK N   1      29.165  30.154  -6.435  0.00  0.00     0.160 HD
BRANCH  13  15
HETATM   15  C   UNK N   1      30.056  29.370  -4.677  0.00  0.00     0.077 C 
HETATM   16  C   UNK N   1      30.939  30.575  -4.398  0.00  0.00     0.032 C 
BRANCH  15  17
HETATM   17  C   UNK N   1      30.657  27.971  -4.794  0.00  0.00     0.026 C 
BRANCH  17  18
HETATM   18  C   UNK N   1      30.386  27.060  -3.613  0.00  0.00     0.032 C 
BRANCH  18  19
HETATM   19  C   UNK N   1      30.600  25.574  -3.927  0.00  0.00     0.272 C 
BRANCH  19  20
HETATM   20  N   UNK N   1      29.494  24.743  -3.431  0.00  0.00     0.087 N 
BRANCH  20  21
HETATM   21  C   UNK N   1      29.815  23.325  -3.644  0.00  0.00     0.268 C 
HETATM   22  C   UNK N   1      30.621  22.776  -2.482  0.00  0.00     0.037 C 
ENDBRANCH  20  21
BRANCH  20  23
HETATM   23  C   UNK N   1      28.280  25.192  -4.130  0.00  0.00     0.268 C 
HETATM   24  C   UNK N   1      26.973  24.574  -3.644  0.00  0.00     0.037 C 
ENDBRANCH  20  23
ENDBRANCH  19  20
ENDBRANCH  18  19
ENDBRANCH  17  18
ENDBRANCH  15  17
ENDBRANCH  13  15
ENDBRANCH   4  13
TORSDOF 8
ENDMDL
