MODEL 1
REMARK VINA RESULT:      -5.0      0.000      0.000
REMARK  4 active torsions:
REMARK  status: ('A' for Active; 'I' for Inactive)
REMARK    1  A    between atoms: O_1  and  C_8 
REMARK    2  A    between atoms: O_2  and  C_10 
REMARK    3  A    between atoms: C_6  and  C_10 
REMARK    4  A    between atoms: C_7  and  C_13 
ROOT
HETATM    1  N   UNK N   1      21.620  12.116  11.687  0.00  0.00    -0.367 N 
ATOM      2  HN  UNK N   1      20.930  11.958  12.420  1.00  0.00     0.165 HD
HETATM    3  C   UNK N   1      22.099  12.562   9.372  0.00  0.00    -0.003 A 
HETATM    4  C   UNK N   1      23.506  12.551   9.676  0.00  0.00     0.046 A 
HETATM    5  C   UNK N   1      23.898  12.314  11.015  0.00  0.00     0.101 A 
HETATM    6  C   UNK N   1      22.934  12.099  12.005  0.00  0.00     0.039 A 
HETATM    7  C   UNK N   1      21.198  12.339  10.419  0.00  0.00     0.098 A 
HETATM    8  C   UNK N   1      23.337  11.849  13.418  0.00  0.00     0.071 C 
ENDROOT
BRANCH   3   9
HETATM    9  C   UNK N   1      21.407  12.787   8.042  0.00  0.00     0.205 C 
BRANCH   9  10
HETATM   10  O   UNK N   1      20.327  13.657   8.013  0.00  0.00    -0.396 OA
HETATM   11  H   UNK N   1      20.268  14.335   7.321  0.00  0.00     0.209 HD
ENDBRANCH   9  10
ENDBRANCH   3   9
BRANCH   4  12
HETATM   12  C   UNK N   1      24.630  12.764   8.722  0.00  0.00     0.273 C 
HETATM   13  O   UNK N   1      25.240  13.804   8.578  0.00  0.00    -0.301 OA
ENDBRANCH   4  12
BRANCH   5  14
HETATM   14  O   UNK N   1      25.205  12.295  11.346  0.00  0.00    -0.358 OA
HETATM   15  H   UNK N   1      25.802  12.887  10.933  0.00  0.00     0.217 HD
ENDBRANCH   5  14
TORSDOF 4
ENDMDL
MODEL 2
REMARK VINA RESULT:      -4.8     10.294     11.710
REMARK  4 active torsions:
REMARK  status: ('A' for Active; 'I' for Inactive)
REMARK    1  A    between atoms: O_1  and  C_8 
REMARK    2  A    between atoms: O_2  and  C_10 
REMARK    3  A    between atoms: C_6  and  C_10 
REMARK    4  A    between atoms: C_7  and  C_13 
ROOT
HETATM    1  N   UNK N   1      33.347  14.908  10.517  0.00  0.00    -0.367 N 
ATOM      2  HN  UNK N   1      33.077  14.118  11.102  1.00  0.00     0.165 HD
HETATM    3  C   UNK N   1      32.887  16.323   8.627  0.00  0.00    -0.003 A 
HETATM    4  C   UNK N   1      34.082  17.071   8.914  0.00  0.00     0.046 A 
HETATM    5  C   UNK N   1      34.865  16.679  10.025  0.00  0.00     0.101 A 
HETATM    6  C   UNK N   1      34.476  15.591  10.814  0.00  0.00     0.039 A 
HETATM    7  C   UNK N   1      32.567  15.248   9.464  0.00  0.00     0.098 A 
HETATM    8  C   UNK N   1      35.294  15.170  11.986  0.00  0.00     0.071 C 
ENDROOT
BRANCH   3   9
HETATM    9  C   UNK N   1      31.875  16.520   7.515  0.00  0.00     0.205 C 
BRANCH   9  10
HETATM   10  O   UNK N   1      30.947  17.541   7.657  0.00  0.00    -0.396 OA
HETATM   11  H   UNK N   1      31.155  18.313   8.208  0.00  0.00     0.209 HD
ENDBRANCH   9  10
ENDBRANCH   3   9
BRANCH   4  12
HETATM   12  C   UNK N   1      34.607  18.243   8.159  0.00  0.00     0.273 C 
HETATM   13  O   UNK N   1      35.218  19.174   8.643  0.00  0.00    -0.301 OA
ENDBRANCH   4  12
BRANCH   5  14
HETATM   14  O   UNK N   1      35.993  17.350  10.332  0.00  0.00    -0.358 OA
HETATM   15  H   UNK N   1      35.982  18.286  10.379  0.00  0.00     0.217 HD
ENDBRANCH   5  14
TORSDOF 4
ENDMDL
MODEL 3
REMARK VINA RESULT:      -4.8      9.247     10.333
REMARK  4 active torsions:
REMARK  status: ('A' for Active; 'I' for Inactive)
REMARK    1  A    between atoms: O_1  and  C_8 
REMARK    2  A    between atoms: O_2  and  C_10 
REMARK    3  A    between atoms: C_6  and  C_10 
REMARK    4  A    between atoms: C_7  and  C_13 
ROOT
HETATM    1  N   UNK N   1      22.816  17.961   4.129  0.00  0.00    -0.367 N 
ATOM      2  HN  UNK N   1      23.300  17.309   4.745  1.00  0.00     0.165 HD
HETATM    3  C   UNK N   1      20.898  18.471   2.768  0.00  0.00    -0.003 A 
HETATM    4  C   UNK N   1      21.487  19.742   2.440  0.00  0.00     0.046 A 
HETATM    5  C   UNK N   1      22.749  20.057   2.996  0.00  0.00     0.101 A 
HETATM    6  C   UNK N   1      23.396  19.147   3.840  0.00  0.00     0.039 A 
HETATM    7  C   UNK N   1      21.608  17.617   3.619  0.00  0.00     0.098 A 
HETATM    8  C   UNK N   1      24.726  19.470   4.430  0.00  0.00     0.071 C 
ENDROOT
BRANCH   3   9
HETATM    9  C   UNK N   1      19.575  17.882   2.320  0.00  0.00     0.205 C 
BRANCH   9  10
HETATM   10  O   UNK N   1      18.430  18.644   2.508  0.00  0.00    -0.396 OA
HETATM   11  H   UNK N   1      17.563  18.283   2.265  0.00  0.00     0.209 HD
ENDBRANCH   9  10
ENDBRANCH   3   9
BRANCH   4  12
HETATM   12  C   UNK N   1      20.909  20.796   1.560  0.00  0.00     0.273 C 
HETATM   13  O   UNK N   1      21.158  20.939   0.380  0.00  0.00    -0.301 OA
ENDBRANCH   4  12
BRANCH   5  14
HETATM   14  O   UNK N   1      23.339  21.236   2.717  0.00  0.00    -0.358 OA
HETATM   15  H   UNK N   1      23.289  21.592   1.851  0.00  0.00     0.217 HD
ENDBRANCH   5  14
TORSDOF 4
ENDMDL
MODEL 4
REMARK VINA RESULT:      -4.8     21.613     23.446
REMARK  4 active torsions:
REMARK  status: ('A' for Active; 'I' for Inactive)
REMARK    1  A    between atoms: O_1  and  C_8 
REMARK    2  A    between atoms: O_2  and  C_10 
REMARK    3  A    between atoms: C_6  and  C_10 
REMARK    4  A    between atoms: C_7  and  C_13 
ROOT
HETATM    1  N   UNK N   1      42.959  23.935   1.979  0.00  0.00    -0.367 N 
ATOM      2  HN  UNK N   1      43.180  24.872   1.645  1.00  0.00     0.165 HD
HETATM    3  C   UNK N   1      43.644  21.958   3.167  0.00  0.00    -0.003 A 
HETATM    4  C   UNK N   1      42.358  21.368   2.897  0.00  0.00     0.046 A 
HETATM    5  C   UNK N   1      41.419  22.124   2.158  0.00  0.00     0.101 A 
HETATM    6  C   UNK N   1      41.743  23.409   1.709  0.00  0.00     0.039 A 
HETATM    7  C   UNK N   1      43.890  23.247   2.683  0.00  0.00     0.098 A 
HETATM    8  C   UNK N   1      40.759  24.213   0.929  0.00  0.00     0.071 C 
ENDROOT
BRANCH   3   9
HETATM    9  C   UNK N   1      44.824  21.381   3.924  0.00  0.00     0.205 C 
BRANCH   9  10
HETATM   10  O   UNK N   1      45.868  22.236   4.246  0.00  0.00    -0.396 OA
HETATM   11  H   UNK N   1      45.738  22.933   4.909  0.00  0.00     0.209 HD
ENDBRANCH   9  10
ENDBRANCH   3   9
BRANCH   4  12
HETATM   12  C   UNK N   1      41.889  20.018   3.315  0.00  0.00     0.273 C 
HETATM   13  O   UNK N   1      40.859  19.789   3.918  0.00  0.00    -0.301 OA
ENDBRANCH   4  12
BRANCH   5  14
HETATM   14  O   UNK N   1      40.203  21.612   1.881  0.00  0.00    -0.358 OA
HETATM   15  H   UNK N   1      40.129  20.758   1.503  0.00  0.00     0.217 HD
ENDBRANCH   5  14
TORSDOF 4
ENDMDL
MODEL 5
REMARK VINA RESULT:      -4.7      1.663      3.164
REMARK  4 active torsions:
REMARK  status: ('A' for Active; 'I' for Inactive)
REMARK    1  A    between atoms: O_1  and  C_8 
REMARK    2  A    between atoms: O_2  and  C_10 
REMARK    3  A    between atoms: C_6  and  C_10 
REMARK    4  A    between atoms: C_7  and  C_13 
ROOT
HETATM    1  N   UNK N   1      24.701  12.507  11.262  0.00  0.00    -0.367 N 
ATOM      2  HN  UNK N   1      25.490  12.448  11.905  1.00  0.00     0.165 HD
HETATM    3  C   UNK N   1      23.874  12.998   9.057  0.00  0.00    -0.003 A 
HETATM    4  C   UNK N   1      22.544  12.670   9.499  0.00  0.00     0.046 A 
HETATM    5  C   UNK N   1      22.367  12.267  10.843  0.00  0.00     0.101 A 
HETATM    6  C   UNK N   1      23.464  12.193  11.708  0.00  0.00     0.039 A 
HETATM    7  C   UNK N   1      24.918  12.898   9.983  0.00  0.00     0.098 A 
HETATM    8  C   UNK N   1      23.288  11.769  13.126  0.00  0.00     0.071 C 
ENDROOT
BRANCH   3   9
HETATM    9  C   UNK N   1      24.347  13.453   7.690  0.00  0.00     0.205 C 
BRANCH   9  10
HETATM   10  O   UNK N   1      25.571  14.099   7.609  0.00  0.00    -0.396 OA
HETATM   11  H   UNK N   1      26.216  14.009   8.329  0.00  0.00     0.209 HD
ENDBRANCH   9  10
ENDBRANCH   3   9
BRANCH   4  12
HETATM   12  C   UNK N   1      21.297  12.707   8.685  0.00  0.00     0.273 C 
HETATM   13  O   UNK N   1      20.370  13.474   8.855  0.00  0.00    -0.301 OA
ENDBRANCH   4  12
BRANCH   5  14
HETATM   14  O   UNK N   1      21.139  11.951  11.301  0.00  0.00    -0.358 OA
HETATM   15  H   UNK N   1      20.572  12.624  11.622  0.00  0.00     0.217 HD
ENDBRANCH   5  14
TORSDOF 4
ENDMDL
MODEL 6
REMARK VINA RESULT:      -4.7      8.607      9.982
REMARK  4 active torsions:
REMARK  status: ('A' for Active; 'I' for Inactive)
REMARK    1  A    between atoms: O_1  and  C_8 
REMARK    2  A    between atoms: O_2  and  C_10 
REMARK    3  A    between atoms: C_6  and  C_10 
REMARK    4  A    between atoms: C_7  and  C_13 
ROOT
HETATM    1  N   UNK N   1      19.719  18.007   3.423  0.00  0.00    -0.367 N 
ATOM      2  HN  UNK N   1      18.883  17.438   3.550  1.00  0.00     0.165 HD
HETATM    3  C   UNK N   1      20.824  19.819   2.291  0.00  0.00    -0.003 A 
HETATM    4  C   UNK N   1      22.006  19.567   3.073  0.00  0.00     0.046 A 
HETATM    5  C   UNK N   1      21.972  18.513   4.015  0.00  0.00     0.101 A 
HETATM    6  C   UNK N   1      20.813  17.745   4.173  0.00  0.00     0.039 A 
HETATM    7  C   UNK N   1      19.706  19.006   2.509  0.00  0.00     0.098 A 
HETATM    8  C   UNK N   1      20.767  16.631   5.163  0.00  0.00     0.071 C 
ENDROOT
BRANCH   3   9
HETATM    9  C   UNK N   1      20.585  20.870   1.225  0.00  0.00     0.205 C 
BRANCH   9  10
HETATM   10  O   UNK N   1      20.644  20.471  -0.103  0.00  0.00    -0.396 OA
HETATM   11  H   UNK N   1      19.980  20.788  -0.735  0.00  0.00     0.209 HD
ENDBRANCH   9  10
ENDBRANCH   3   9
BRANCH   4  12
HETATM   12  C   UNK N   1      23.298  20.306   3.005  0.00  0.00     0.273 C 
HETATM   13  O   UNK N   1      23.414  21.514   2.962  0.00  0.00    -0.301 OA
ENDBRANCH   4  12
BRANCH   5  14
HETATM   14  O   UNK N   1      23.055  18.240   4.769  0.00  0.00    -0.358 OA
HETATM   15  H   UNK N   1      23.737  17.696   4.429  0.00  0.00     0.217 HD
ENDBRANCH   5  14
TORSDOF 4
ENDMDL
MODEL 7
REMARK VINA RESULT:      -4.6      9.444     11.421
REMARK  4 active torsions:
REMARK  status: ('A' for Active; 'I' for Inactive)
REMARK    1  A    between atoms: O_1  and  C_8 
REMARK    2  A    between atoms: O_2  and  C_10 
REMARK    3  A    between atoms: C_6  and  C_10 
REMARK    4  A    between atoms: C_7  and  C_13 
ROOT
HETATM    1  N   UNK N   1      30.817  17.177   5.389  0.00  0.00    -0.367 N 
ATOM      2  HN  UNK N   1      30.189  17.065   4.595  1.00  0.00     0.165 HD
HETATM    3  C   UNK N   1      31.116  17.332   7.772  0.00  0.00    -0.003 A 
HETATM    4  C   UNK N   1      32.533  17.484   7.569  0.00  0.00     0.046 A 
HETATM    5  C   UNK N   1      33.023  17.472   6.243  0.00  0.00     0.101 A 
HETATM    6  C   UNK N   1      32.143  17.317   5.166  0.00  0.00     0.039 A 
HETATM    7  C   UNK N   1      30.303  17.182   6.643  0.00  0.00     0.098 A 
HETATM    8  C   UNK N   1      32.650  17.304   3.764  0.00  0.00     0.071 C 
ENDROOT
BRANCH   3   9
HETATM    9  C   UNK N   1      30.329  17.308   9.067  0.00  0.00     0.205 C 
BRANCH   9  10
HETATM   10  O   UNK N   1      30.219  18.493   9.781  0.00  0.00    -0.396 OA
HETATM   11  H   UNK N   1      30.773  18.641  10.563  0.00  0.00     0.209 HD
ENDBRANCH   9  10
ENDBRANCH   3   9
BRANCH   4  12
HETATM   12  C   UNK N   1      33.573  17.656   8.621  0.00  0.00     0.273 C 
HETATM   13  O   UNK N   1      34.485  18.458   8.582  0.00  0.00    -0.301 OA
ENDBRANCH   4  12
BRANCH   5  14
HETATM   14  O   UNK N   1      34.343  17.611   6.005  0.00  0.00    -0.358 OA
HETATM   15  H   UNK N   1      34.685  18.440   5.732  0.00  0.00     0.217 HD
ENDBRANCH   5  14
TORSDOF 4
ENDMDL
MODEL 8
REMARK VINA RESULT:      -4.5     12.464     14.491
REMARK  4 active torsions:
REMARK  status: ('A' for Active; 'I' for Inactive)
REMARK    1  A    between atoms: O_1  and  C_8 
REMARK    2  A    between atoms: O_2  and  C_10 
REMARK    3  A    between atoms: C_6  and  C_10 
REMARK    4  A    between atoms: C_7  and  C_13 
ROOT
HETATM    1  N   UNK N   1      34.530   9.960  16.495  0.00  0.00    -0.367 N 
ATOM      2  HN  UNK N   1      34.281   9.011  16.219  1.00  0.00     0.165 HD
HETATM    3  C   UNK N   1      35.342  11.466  18.186  0.00  0.00    -0.003 A 
HETATM    4  C   UNK N   1      35.212  12.557  17.255  0.00  0.00     0.046 A 
HETATM    5  C   UNK N   1      34.732  12.273  15.956  0.00  0.00     0.101 A 
HETATM    6  C   UNK N   1      34.396  10.962  15.598  0.00  0.00     0.039 A 
HETATM    7  C   UNK N   1      34.986  10.185  17.751  0.00  0.00     0.098 A 
HETATM    8  C   UNK N   1      33.890  10.653  14.231  0.00  0.00     0.071 C 
ENDROOT
BRANCH   3   9
HETATM    9  C   UNK N   1      35.824  11.483  19.623  0.00  0.00     0.205 C 
BRANCH   9  10
HETATM   10  O   UNK N   1      35.520  12.595  20.395  0.00  0.00    -0.396 OA
HETATM   11  H   UNK N   1      36.173  12.943  21.023  0.00  0.00     0.209 HD
ENDBRANCH   9  10
ENDBRANCH   3   9
BRANCH   4  12
HETATM   12  C   UNK N   1      35.532  13.990  17.507  0.00  0.00     0.273 C 
HETATM   13  O   UNK N   1      35.205  14.619  18.492  0.00  0.00    -0.301 OA
ENDBRANCH   4  12
BRANCH   5  14
HETATM   14  O   UNK N   1      34.594  13.263  15.051  0.00  0.00    -0.358 OA
HETATM   15  H   UNK N   1      33.767  13.403  14.633  0.00  0.00     0.217 HD
ENDBRANCH   5  14
TORSDOF 4
ENDMDL
MODEL 9
REMARK VINA RESULT:      -4.4      8.642      9.891
REMARK  4 active torsions:
REMARK  status: ('A' for Active; 'I' for Inactive)
REMARK    1  A    between atoms: O_1  and  C_8 
REMARK    2  A    between atoms: O_2  and  C_10 
REMARK    3  A    between atoms: C_6  and  C_10 
REMARK    4  A    between atoms: C_7  and  C_13 
ROOT
HETATM    1  N   UNK N   1      26.847  20.530   5.824  0.00  0.00    -0.367 N 
ATOM      2  HN  UNK N   1      26.236  21.344   5.770  1.00  0.00     0.165 HD
HETATM    3  C   UNK N   1      28.117  18.994   7.173  0.00  0.00    -0.003 A 
HETATM    4  C   UNK N   1      28.521  18.302   5.977  0.00  0.00     0.046 A 
HETATM    5  C   UNK N   1      28.047  18.782   4.734  0.00  0.00     0.101 A 
HETATM    6  C   UNK N   1      27.209  19.901   4.683  0.00  0.00     0.039 A 
HETATM    7  C   UNK N   1      27.277  20.105   7.037  0.00  0.00     0.098 A 
HETATM    8  C   UNK N   1      26.704  20.416   3.378  0.00  0.00     0.071 C 
ENDROOT
BRANCH   3   9
HETATM    9  C   UNK N   1      28.470  18.700   8.617  0.00  0.00     0.205 C 
BRANCH   9  10
HETATM   10  O   UNK N   1      27.487  18.150   9.426  0.00  0.00    -0.396 OA
HETATM   11  H   UNK N   1      27.701  17.877  10.332  0.00  0.00     0.209 HD
ENDBRANCH   9  10
ENDBRANCH   3   9
BRANCH   4  12
HETATM   12  C   UNK N   1      29.404  17.105   5.892  0.00  0.00     0.273 C 
HETATM   13  O   UNK N   1      30.516  17.087   5.404  0.00  0.00    -0.301 OA
ENDBRANCH   4  12
BRANCH   5  14
HETATM   14  O   UNK N   1      28.399  18.166   3.589  0.00  0.00    -0.358 OA
HETATM   15  H   UNK N   1      29.260  17.808   3.495  0.00  0.00     0.217 HD
ENDBRANCH   5  14
TORSDOF 4
ENDMDL
