MODEL 1
REMARK VINA RESULT:      -7.4      0.000      0.000
REMARK  11 active torsions:
REMARK  status: ('A' for Active; 'I' for Inactive)
REMARK    1  A    between atoms: C_1  and  N_2 
REMARK    2  A    between atoms: C_1  and  C_3 
REMARK    3  A    between atoms: C_1  and  C_28 
REMARK    4  A    between atoms: C_3  and  C_4 
REMARK    5  A    between atoms: C_4  and  S_5 
REMARK    6  A    between atoms: S_5  and  C_7 
REMARK    7  A    between atoms: C_8  and  C_7 
REMARK    8  A    between atoms: C_10  and  N_11 
REMARK    9  A    between atoms: C_16  and  N_17 
REMARK   10  A    between atoms: C_24  and  O_25 
REMARK   11  A    between atoms: C_26  and  O_27 
ROOT
HETATM    1  C   UNK N   1      22.327  16.399   6.288  0.00  0.00     0.164 C 
HETATM    2  O   UNK N   1      22.583  15.435   7.288  0.00  0.00    -0.355 OA
HETATM    3  C   UNK N   1      21.303  14.955   7.627  0.00  0.00     0.262 C 
HETATM    4  C   UNK N   1      20.505  16.229   7.820  0.00  0.00     0.198 C 
HETATM    5  C   UNK N   1      20.992  17.073   6.655  0.00  0.00     0.180 C 
ENDROOT
BRANCH   3   6
HETATM    6  N   UNK N   1      21.391  14.077   8.799  0.00  0.00    -0.297 N 
HETATM    7  C   UNK N   1      20.346  13.768   9.612  0.00  0.00     0.188 A 
HETATM    8  N   UNK N   1      20.743  13.017  10.676  0.00  0.00    -0.346 N 
HETATM    9  C   UNK N   1      22.072  12.887  10.512  0.00  0.00     0.122 A 
ATOM     10  HN  UNK N   1      20.166  12.639  11.426  1.00  0.00     0.167 HD
HETATM   11  C   UNK N   1      23.004  12.250  11.311  0.00  0.00     0.131 A 
HETATM   12  C   UNK N   1      22.460  13.523   9.388  0.00  0.00     0.142 A 
HETATM   13  N   UNK N   1      24.313  12.288  10.922  0.00  0.00    -0.337 N 
HETATM   14  C   UNK N   1      24.689  12.942   9.774  0.00  0.00     0.183 A 
ATOM     15  HN  UNK N   1      25.021  11.825  11.493  1.00  0.00     0.168 HD
HETATM   16  N   UNK N   1      23.757  13.573   8.997  0.00  0.00    -0.336 N 
ATOM     17  HN  UNK N   1      24.029  14.067   8.147  1.00  0.00     0.168 HD
BRANCH  11  18
HETATM   18  N   UNK N   1      22.624  11.595  12.499  0.00  0.00    -0.383 N 
HETATM   19  H   UNK N   1      22.701  10.615  12.568  0.00  0.00     0.157 HD
HETATM   20  H   UNK N   1      22.283  12.115  13.261  0.00  0.00     0.157 HD
ENDBRANCH  11  18
ENDBRANCH   3   6
BRANCH   4  21
HETATM   21  O   UNK N   1      19.121  16.038   7.781  0.00  0.00    -0.388 OA
HETATM   22  H   UNK N   1      18.456  16.651   8.131  0.00  0.00     0.210 HD
ENDBRANCH   4  21
BRANCH   1  23
HETATM   23  C   UNK N   1      22.218  15.667   4.938  0.00  0.00     0.097 C 
BRANCH  23  24
HETATM   24  S   UNK N   1      20.635  16.070   4.119  0.00  0.00    -0.221 SA
HETATM   25  C   UNK N   1      19.238  14.901   4.252  0.00  0.00     0.078 C 
BRANCH  24  26
HETATM   26  C   UNK N   1      20.707  17.226   2.726  0.00  0.00     0.065 C 
BRANCH  26  27
HETATM   27  C   UNK N   1      21.354  18.496   3.247  0.00  0.00     0.045 C 
BRANCH  27  28
HETATM   28  C   UNK N   1      20.477  19.726   3.087  0.00  0.00     0.177 C 
BRANCH  28  29
HETATM   29  N   UNK N   1      19.239  19.367   2.412  0.00  0.00    -0.417 N 
HETATM   30  H   UNK N   1      18.831  18.448   2.237  0.00  0.00     0.150 HD
HETATM   31  H   UNK N   1      18.695  20.154   2.059  0.00  0.00     0.150 HD
ENDBRANCH  28  29
BRANCH  28  32
HETATM   32  C   UNK N   1      21.208  20.808   2.340  0.00  0.00     0.196 C 
HETATM   33  O   UNK N   1      22.329  21.355   2.849  0.00  0.00    -0.646 OA
HETATM   34  O   UNK N   1      20.784  21.198   1.262  0.00  0.00    -0.646 OA
ENDBRANCH  28  32
ENDBRANCH  27  28
ENDBRANCH  26  27
ENDBRANCH  24  26
ENDBRANCH  23  24
ENDBRANCH   1  23
BRANCH   5  35
HETATM   35  O   UNK N   1      21.177  18.395   7.072  0.00  0.00    -0.390 OA
HETATM   36  H   UNK N   1      20.871  19.313   7.141  0.00  0.00     0.210 HD
ENDBRANCH   5  35
TORSDOF 11
ENDMDL
MODEL 2
REMARK VINA RESULT:      -7.3     10.704     14.320
REMARK  11 active torsions:
REMARK  status: ('A' for Active; 'I' for Inactive)
REMARK    1  A    between atoms: C_1  and  N_2 
REMARK    2  A    between atoms: C_1  and  C_3 
REMARK    3  A    between atoms: C_1  and  C_28 
REMARK    4  A    between atoms: C_3  and  C_4 
REMARK    5  A    between atoms: C_4  and  S_5 
REMARK    6  A    between atoms: S_5  and  C_7 
REMARK    7  A    between atoms: C_8  and  C_7 
REMARK    8  A    between atoms: C_10  and  N_11 
REMARK    9  A    between atoms: C_16  and  N_17 
REMARK   10  A    between atoms: C_24  and  O_25 
REMARK   11  A    between atoms: C_26  and  O_27 
ROOT
HETATM    1  C   UNK N   1      34.027  15.516   9.569  0.00  0.00     0.164 C 
HETATM    2  O   UNK N   1      32.691  15.746   9.169  0.00  0.00    -0.355 OA
HETATM    3  C   UNK N   1      32.818  16.340   7.899  0.00  0.00     0.262 C 
HETATM    4  C   UNK N   1      33.862  17.415   8.132  0.00  0.00     0.198 C 
HETATM    5  C   UNK N   1      34.862  16.683   9.011  0.00  0.00     0.180 C 
ENDROOT
BRANCH   3   6
HETATM    6  N   UNK N   1      31.510  16.815   7.434  0.00  0.00    -0.297 N 
HETATM    7  C   UNK N   1      31.119  16.846   6.133  0.00  0.00     0.188 A 
HETATM    8  N   UNK N   1      29.897  17.429   5.990  0.00  0.00    -0.346 N 
HETATM    9  C   UNK N   1      29.550  17.780   7.241  0.00  0.00     0.122 A 
ATOM     10  HN  UNK N   1      29.365  17.568   5.132  1.00  0.00     0.167 HD
HETATM   11  C   UNK N   1      28.422  18.440   7.694  0.00  0.00     0.131 A 
HETATM   12  C   UNK N   1      30.517  17.413   8.106  0.00  0.00     0.142 A 
HETATM   13  N   UNK N   1      28.326  18.699   9.032  0.00  0.00    -0.337 N 
HETATM   14  C   UNK N   1      29.323  18.319   9.898  0.00  0.00     0.183 A 
ATOM     15  HN  UNK N   1      27.504  19.184   9.393  1.00  0.00     0.168 HD
HETATM   16  N   UNK N   1      30.436  17.672   9.434  0.00  0.00    -0.336 N 
ATOM     17  HN  UNK N   1      31.183  17.392  10.069  1.00  0.00     0.168 HD
BRANCH  11  18
HETATM   18  N   UNK N   1      27.407  18.850   6.807  0.00  0.00    -0.383 N 
HETATM   19  H   UNK N   1      26.682  18.228   6.567  0.00  0.00     0.157 HD
HETATM   20  H   UNK N   1      27.422  19.757   6.427  0.00  0.00     0.157 HD
ENDBRANCH  11  18
ENDBRANCH   3   6
BRANCH   4  21
HETATM   21  O   UNK N   1      34.452  17.891   6.958  0.00  0.00    -0.388 OA
HETATM   22  H   UNK N   1      35.365  17.722   6.677  0.00  0.00     0.210 HD
ENDBRANCH   4  21
BRANCH   1  23
HETATM   23  C   UNK N   1      34.482  14.177   8.961  0.00  0.00     0.097 C 
BRANCH  23  24
HETATM   24  S   UNK N   1      36.306  14.086   8.912  0.00  0.00    -0.221 SA
HETATM   25  C   UNK N   1      37.131  13.538   7.377  0.00  0.00     0.078 C 
BRANCH  24  26
HETATM   26  C   UNK N   1      37.158  13.907  10.500  0.00  0.00     0.065 C 
BRANCH  26  27
HETATM   27  C   UNK N   1      36.163  13.283  11.460  0.00  0.00     0.045 C 
BRANCH  27  28
HETATM   28  C   UNK N   1      35.608  14.268  12.475  0.00  0.00     0.177 C 
BRANCH  28  29
HETATM   29  N   UNK N   1      36.313  15.537  12.369  0.00  0.00    -0.417 N 
HETATM   30  H   UNK N   1      35.949  16.489  12.359  0.00  0.00     0.150 HD
HETATM   31  H   UNK N   1      37.327  15.462  12.291  0.00  0.00     0.150 HD
ENDBRANCH  28  29
BRANCH  28  32
HETATM   32  C   UNK N   1      35.704  13.709  13.869  0.00  0.00     0.196 C 
HETATM   33  O   UNK N   1      34.661  13.057  14.418  0.00  0.00    -0.646 OA
HETATM   34  O   UNK N   1      36.734  13.846  14.511  0.00  0.00    -0.646 OA
ENDBRANCH  28  32
ENDBRANCH  27  28
ENDBRANCH  26  27
ENDBRANCH  24  26
ENDBRANCH  23  24
ENDBRANCH   1  23
BRANCH   5  35
HETATM   35  O   UNK N   1      35.310  17.532  10.027  0.00  0.00    -0.390 OA
HETATM   36  H   UNK N   1      35.479  18.421  10.376  0.00  0.00     0.210 HD
ENDBRANCH   5  35
TORSDOF 11
ENDMDL
MODEL 3
REMARK VINA RESULT:      -7.2     10.628     14.459
REMARK  11 active torsions:
REMARK  status: ('A' for Active; 'I' for Inactive)
REMARK    1  A    between atoms: C_1  and  N_2 
REMARK    2  A    between atoms: C_1  and  C_3 
REMARK    3  A    between atoms: C_1  and  C_28 
REMARK    4  A    between atoms: C_3  and  C_4 
REMARK    5  A    between atoms: C_4  and  S_5 
REMARK    6  A    between atoms: S_5  and  C_7 
REMARK    7  A    between atoms: C_8  and  C_7 
REMARK    8  A    between atoms: C_10  and  N_11 
REMARK    9  A    between atoms: C_16  and  N_17 
REMARK   10  A    between atoms: C_24  and  O_25 
REMARK   11  A    between atoms: C_26  and  O_27 
ROOT
HETATM    1  C   UNK N   1      34.054  15.571   9.593  0.00  0.00     0.164 C 
HETATM    2  O   UNK N   1      32.714  15.782   9.197  0.00  0.00    -0.355 OA
HETATM    3  C   UNK N   1      32.828  16.363   7.920  0.00  0.00     0.262 C 
HETATM    4  C   UNK N   1      33.860  17.452   8.136  0.00  0.00     0.198 C 
HETATM    5  C   UNK N   1      34.873  16.741   9.017  0.00  0.00     0.180 C 
ENDROOT
BRANCH   3   6
HETATM    6  N   UNK N   1      31.512  16.818   7.457  0.00  0.00    -0.297 N 
HETATM    7  C   UNK N   1      31.117  16.840   6.156  0.00  0.00     0.188 A 
HETATM    8  N   UNK N   1      29.887  17.405   6.015  0.00  0.00    -0.346 N 
HETATM    9  C   UNK N   1      29.538  17.755   7.266  0.00  0.00     0.122 A 
ATOM     10  HN  UNK N   1      29.351  17.534   5.158  1.00  0.00     0.167 HD
HETATM   11  C   UNK N   1      28.401  18.399   7.720  0.00  0.00     0.131 A 
HETATM   12  C   UNK N   1      30.512  17.404   8.129  0.00  0.00     0.142 A 
HETATM   13  N   UNK N   1      28.304  18.661   9.057  0.00  0.00    -0.337 N 
HETATM   14  C   UNK N   1      29.308  18.297   9.922  0.00  0.00     0.183 A 
ATOM     15  HN  UNK N   1      27.476  19.134   9.418  1.00  0.00     0.168 HD
HETATM   16  N   UNK N   1      30.430  17.664   9.457  0.00  0.00    -0.336 N 
ATOM     17  HN  UNK N   1      31.183  17.397  10.091  1.00  0.00     0.168 HD
BRANCH  11  18
HETATM   18  N   UNK N   1      27.379  18.792   6.834  0.00  0.00    -0.383 N 
HETATM   19  H   UNK N   1      26.927  19.658   6.955  0.00  0.00     0.157 HD
HETATM   20  H   UNK N   1      27.116  18.200   6.093  0.00  0.00     0.157 HD
ENDBRANCH  11  18
ENDBRANCH   3   6
BRANCH   4  21
HETATM   21  O   UNK N   1      34.439  17.922   6.954  0.00  0.00    -0.388 OA
HETATM   22  H   UNK N   1      34.405  18.837   6.633  0.00  0.00     0.210 HD
ENDBRANCH   4  21
BRANCH   1  23
HETATM   23  C   UNK N   1      34.521  14.230   8.998  0.00  0.00     0.097 C 
BRANCH  23  24
HETATM   24  S   UNK N   1      35.429  13.259  10.250  0.00  0.00    -0.221 SA
HETATM   25  C   UNK N   1      34.735  11.669  10.822  0.00  0.00     0.078 C 
BRANCH  24  26
HETATM   26  C   UNK N   1      36.579  14.168  11.314  0.00  0.00     0.065 C 
BRANCH  26  27
HETATM   27  C   UNK N   1      35.836  14.466  12.603  0.00  0.00     0.045 C 
BRANCH  27  28
HETATM   28  C   UNK N   1      36.447  13.789  13.819  0.00  0.00     0.177 C 
BRANCH  28  29
HETATM   29  N   UNK N   1      37.386  12.762  13.393  0.00  0.00    -0.417 N 
HETATM   30  H   UNK N   1      37.900  12.666  12.518  0.00  0.00     0.150 HD
HETATM   31  H   UNK N   1      37.554  12.022  14.075  0.00  0.00     0.150 HD
ENDBRANCH  28  29
BRANCH  28  32
HETATM   32  C   UNK N   1      35.375  13.213  14.704  0.00  0.00     0.196 C 
HETATM   33  O   UNK N   1      35.504  13.244  16.045  0.00  0.00    -0.646 OA
HETATM   34  O   UNK N   1      34.379  12.711  14.206  0.00  0.00    -0.646 OA
ENDBRANCH  28  32
ENDBRANCH  27  28
ENDBRANCH  26  27
ENDBRANCH  24  26
ENDBRANCH  23  24
ENDBRANCH   1  23
BRANCH   5  35
HETATM   35  O   UNK N   1      35.317  17.607  10.022  0.00  0.00    -0.390 OA
HETATM   36  H   UNK N   1      35.235  18.429  10.530  0.00  0.00     0.210 HD
ENDBRANCH   5  35
TORSDOF 11
ENDMDL
MODEL 4
REMARK VINA RESULT:      -7.2      7.334     10.716
REMARK  11 active torsions:
REMARK  status: ('A' for Active; 'I' for Inactive)
REMARK    1  A    between atoms: C_1  and  N_2 
REMARK    2  A    between atoms: C_1  and  C_3 
REMARK    3  A    between atoms: C_1  and  C_28 
REMARK    4  A    between atoms: C_3  and  C_4 
REMARK    5  A    between atoms: C_4  and  S_5 
REMARK    6  A    between atoms: S_5  and  C_7 
REMARK    7  A    between atoms: C_8  and  C_7 
REMARK    8  A    between atoms: C_10  and  N_11 
REMARK    9  A    between atoms: C_16  and  N_17 
REMARK   10  A    between atoms: C_24  and  O_25 
REMARK   11  A    between atoms: C_26  and  O_27 
ROOT
HETATM    1  C   UNK N   1      28.128  17.879   6.453  0.00  0.00     0.164 C 
HETATM    2  O   UNK N   1      27.080  17.947   5.507  0.00  0.00    -0.355 OA
HETATM    3  C   UNK N   1      27.062  19.302   5.123  0.00  0.00     0.262 C 
HETATM    4  C   UNK N   1      27.093  20.030   6.452  0.00  0.00     0.198 C 
HETATM    5  C   UNK N   1      28.114  19.211   7.224  0.00  0.00     0.180 C 
ENDROOT
BRANCH   3   6
HETATM    6  N   UNK N   1      25.892  19.568   4.280  0.00  0.00    -0.297 N 
HETATM    7  C   UNK N   1      25.884  20.414   3.216  0.00  0.00     0.188 A 
HETATM    8  N   UNK N   1      24.637  20.542   2.685  0.00  0.00    -0.346 N 
HETATM    9  C   UNK N   1      23.864  19.767   3.467  0.00  0.00     0.122 A 
ATOM     10  HN  UNK N   1      24.352  21.098   1.880  1.00  0.00     0.167 HD
HETATM   11  C   UNK N   1      22.500  19.541   3.417  0.00  0.00     0.131 A 
HETATM   12  C   UNK N   1      24.615  19.184   4.422  0.00  0.00     0.142 A 
HETATM   13  N   UNK N   1      21.953  18.716   4.358  0.00  0.00    -0.337 N 
HETATM   14  C   UNK N   1      22.735  18.133   5.326  0.00  0.00     0.183 A 
ATOM     15  HN  UNK N   1      20.950  18.532   4.344  1.00  0.00     0.168 HD
HETATM   16  N   UNK N   1      24.082  18.370   5.366  0.00  0.00    -0.336 N 
ATOM     17  HN  UNK N   1      24.669  17.946   6.084  1.00  0.00     0.168 HD
BRANCH  11  18
HETATM   18  N   UNK N   1      21.691  20.153   2.439  0.00  0.00    -0.383 N 
HETATM   19  H   UNK N   1      21.741  19.855   1.502  0.00  0.00     0.157 HD
HETATM   20  H   UNK N   1      21.076  20.878   2.692  0.00  0.00     0.157 HD
ENDBRANCH  11  18
ENDBRANCH   3   6
BRANCH   4  21
HETATM   21  O   UNK N   1      27.473  21.371   6.350  0.00  0.00    -0.388 OA
HETATM   22  H   UNK N   1      28.325  21.693   6.017  0.00  0.00     0.210 HD
ENDBRANCH   4  21
BRANCH   1  23
HETATM   23  C   UNK N   1      29.451  17.703   5.686  0.00  0.00     0.097 C 
BRANCH  23  24
HETATM   24  S   UNK N   1      30.637  16.729   6.675  0.00  0.00    -0.221 SA
HETATM   25  C   UNK N   1      31.000  15.005   6.193  0.00  0.00     0.078 C 
BRANCH  24  26
HETATM   26  C   UNK N   1      30.892  17.250   8.391  0.00  0.00     0.065 C 
BRANCH  26  27
HETATM   27  C   UNK N   1      32.191  18.035   8.419  0.00  0.00     0.045 C 
BRANCH  27  28
HETATM   28  C   UNK N   1      33.425  17.151   8.479  0.00  0.00     0.177 C 
BRANCH  28  29
HETATM   29  N   UNK N   1      33.203  16.052   9.405  0.00  0.00    -0.417 N 
HETATM   30  H   UNK N   1      33.727  15.780  10.237  0.00  0.00     0.150 HD
HETATM   31  H   UNK N   1      32.400  15.462   9.190  0.00  0.00     0.150 HD
ENDBRANCH  28  29
BRANCH  28  32
HETATM   32  C   UNK N   1      34.637  17.954   8.869  0.00  0.00     0.196 C 
HETATM   33  O   UNK N   1      35.405  17.573   9.908  0.00  0.00    -0.646 OA
HETATM   34  O   UNK N   1      34.929  18.961   8.241  0.00  0.00    -0.646 OA
ENDBRANCH  28  32
ENDBRANCH  27  28
ENDBRANCH  26  27
ENDBRANCH  24  26
ENDBRANCH  23  24
ENDBRANCH   1  23
BRANCH   5  35
HETATM   35  O   UNK N   1      27.685  19.042   8.544  0.00  0.00    -0.390 OA
HETATM   36  H   UNK N   1      27.794  18.660   9.429  0.00  0.00     0.210 HD
ENDBRANCH   5  35
TORSDOF 11
ENDMDL
MODEL 5
REMARK VINA RESULT:      -7.0      9.184     11.660
REMARK  11 active torsions:
REMARK  status: ('A' for Active; 'I' for Inactive)
REMARK    1  A    between atoms: C_1  and  N_2 
REMARK    2  A    between atoms: C_1  and  C_3 
REMARK    3  A    between atoms: C_1  and  C_28 
REMARK    4  A    between atoms: C_3  and  C_4 
REMARK    5  A    between atoms: C_4  and  S_5 
REMARK    6  A    between atoms: S_5  and  C_7 
REMARK    7  A    between atoms: C_8  and  C_7 
REMARK    8  A    between atoms: C_10  and  N_11 
REMARK    9  A    between atoms: C_16  and  N_17 
REMARK   10  A    between atoms: C_24  and  O_25 
REMARK   11  A    between atoms: C_26  and  O_27 
ROOT
HETATM    1  C   UNK N   1      32.416  15.807   5.201  0.00  0.00     0.164 C 
HETATM    2  O   UNK N   1      31.502  16.676   5.839  0.00  0.00    -0.355 OA
HETATM    3  C   UNK N   1      30.322  16.535   5.084  0.00  0.00     0.262 C 
HETATM    4  C   UNK N   1      30.815  16.675   3.657  0.00  0.00     0.198 C 
HETATM    5  C   UNK N   1      32.094  15.857   3.696  0.00  0.00     0.180 C 
ENDROOT
BRANCH   3   6
HETATM    6  N   UNK N   1      29.331  17.527   5.514  0.00  0.00    -0.297 N 
HETATM    7  C   UNK N   1      28.804  18.490   4.712  0.00  0.00     0.188 A 
HETATM    8  N   UNK N   1      27.988  19.331   5.405  0.00  0.00    -0.346 N 
HETATM    9  C   UNK N   1      28.042  18.875   6.670  0.00  0.00     0.122 A 
ATOM     10  HN  UNK N   1      27.458  20.125   5.049  1.00  0.00     0.167 HD
HETATM   11  C   UNK N   1      27.435  19.364   7.812  0.00  0.00     0.131 A 
HETATM   12  C   UNK N   1      28.847  17.796   6.735  0.00  0.00     0.142 A 
HETATM   13  N   UNK N   1      27.677  18.719   8.992  0.00  0.00    -0.337 N 
HETATM   14  C   UNK N   1      28.502  17.621   9.039  0.00  0.00     0.183 A 
ATOM     15  HN  UNK N   1      27.241  19.058   9.849  1.00  0.00     0.168 HD
HETATM   16  N   UNK N   1      29.100  17.153   7.901  0.00  0.00    -0.336 N 
ATOM     17  HN  UNK N   1      29.719  16.342   7.928  1.00  0.00     0.168 HD
BRANCH  11  18
HETATM   18  N   UNK N   1      26.604  20.502   7.771  0.00  0.00    -0.383 N 
HETATM   19  H   UNK N   1      26.722  21.222   8.432  0.00  0.00     0.157 HD
HETATM   20  H   UNK N   1      25.907  20.577   7.081  0.00  0.00     0.157 HD
ENDBRANCH  11  18
ENDBRANCH   3   6
BRANCH   4  21
HETATM   21  O   UNK N   1      29.917  16.192   2.702  0.00  0.00    -0.388 OA
HETATM   22  H   UNK N   1      29.930  16.405   1.755  0.00  0.00     0.210 HD
ENDBRANCH   4  21
BRANCH   1  23
HETATM   23  C   UNK N   1      32.198  14.391   5.762  0.00  0.00     0.097 C 
BRANCH  23  24
HETATM   24  S   UNK N   1      33.457  14.005   7.027  0.00  0.00    -0.221 SA
HETATM   25  C   UNK N   1      34.384  12.434   6.916  0.00  0.00     0.078 C 
BRANCH  24  26
HETATM   26  C   UNK N   1      33.284  14.831   8.630  0.00  0.00     0.065 C 
BRANCH  26  27
HETATM   27  C   UNK N   1      34.401  15.855   8.714  0.00  0.00     0.045 C 
BRANCH  27  28
HETATM   28  C   UNK N   1      33.902  17.268   8.969  0.00  0.00     0.177 C 
BRANCH  28  29
HETATM   29  N   UNK N   1      32.457  17.318   8.810  0.00  0.00    -0.417 N 
HETATM   30  H   UNK N   1      31.792  18.041   9.086  0.00  0.00     0.150 HD
HETATM   31  H   UNK N   1      32.044  16.505   8.352  0.00  0.00     0.150 HD
ENDBRANCH  28  29
BRANCH  28  32
HETATM   32  C   UNK N   1      34.584  18.247   8.052  0.00  0.00     0.196 C 
HETATM   33  O   UNK N   1      35.314  19.262   8.556  0.00  0.00    -0.646 OA
HETATM   34  O   UNK N   1      34.476  18.126   6.842  0.00  0.00    -0.646 OA
ENDBRANCH  28  32
ENDBRANCH  27  28
ENDBRANCH  26  27
ENDBRANCH  24  26
ENDBRANCH  23  24
ENDBRANCH   1  23
BRANCH   5  35
HETATM   35  O   UNK N   1      33.096  16.511   2.972  0.00  0.00    -0.390 OA
HETATM   36  H   UNK N   1      33.998  16.549   2.617  0.00  0.00     0.210 HD
ENDBRANCH   5  35
TORSDOF 11
ENDMDL
MODEL 6
REMARK VINA RESULT:      -6.7      5.048      6.453
REMARK  11 active torsions:
REMARK  status: ('A' for Active; 'I' for Inactive)
REMARK    1  A    between atoms: C_1  and  N_2 
REMARK    2  A    between atoms: C_1  and  C_3 
REMARK    3  A    between atoms: C_1  and  C_28 
REMARK    4  A    between atoms: C_3  and  C_4 
REMARK    5  A    between atoms: C_4  and  S_5 
REMARK    6  A    between atoms: S_5  and  C_7 
REMARK    7  A    between atoms: C_8  and  C_7 
REMARK    8  A    between atoms: C_10  and  N_11 
REMARK    9  A    between atoms: C_16  and  N_17 
REMARK   10  A    between atoms: C_24  and  O_25 
REMARK   11  A    between atoms: C_26  and  O_27 
ROOT
HETATM    1  C   UNK N   1      24.950  17.504   4.239  0.00  0.00     0.164 C 
HETATM    2  O   UNK N   1      26.267  17.127   4.586  0.00  0.00    -0.355 OA
HETATM    3  C   UNK N   1      26.565  17.933   5.702  0.00  0.00     0.262 C 
HETATM    4  C   UNK N   1      26.140  19.315   5.243  0.00  0.00     0.198 C 
HETATM    5  C   UNK N   1      24.830  19.011   4.535  0.00  0.00     0.180 C 
ENDROOT
BRANCH   3   6
HETATM    6  N   UNK N   1      27.980  17.790   6.060  0.00  0.00    -0.297 N 
HETATM    7  C   UNK N   1      28.953  17.370   5.208  0.00  0.00     0.188 A 
HETATM    8  N   UNK N   1      30.151  17.236   5.841  0.00  0.00    -0.346 N 
HETATM    9  C   UNK N   1      29.888  17.563   7.119  0.00  0.00     0.122 A 
ATOM     10  HN  UNK N   1      31.043  16.951   5.439  1.00  0.00     0.167 HD
HETATM   11  C   UNK N   1      30.725  17.572   8.219  0.00  0.00     0.131 A 
HETATM   12  C   UNK N   1      28.588  17.894   7.250  0.00  0.00     0.142 A 
HETATM   13  N   UNK N   1      30.192  17.927   9.426  0.00  0.00    -0.337 N 
HETATM   14  C   UNK N   1      28.864  18.260   9.540  0.00  0.00     0.183 A 
ATOM     15  HN  UNK N   1      30.788  17.944  10.254  1.00  0.00     0.168 HD
HETATM   16  N   UNK N   1      28.047  18.241   8.443  0.00  0.00    -0.336 N 
ATOM     17  HN  UNK N   1      27.058  18.480   8.521  1.00  0.00     0.168 HD
BRANCH  11  18
HETATM   18  N   UNK N   1      32.083  17.212   8.110  0.00  0.00    -0.383 N 
HETATM   19  H   UNK N   1      32.487  16.604   8.771  0.00  0.00     0.157 HD
HETATM   20  H   UNK N   1      32.629  17.569   7.373  0.00  0.00     0.157 HD
ENDBRANCH  11  18
ENDBRANCH   3   6
BRANCH   4  21
HETATM   21  O   UNK N   1      25.967  20.226   6.287  0.00  0.00    -0.388 OA
HETATM   22  H   UNK N   1      25.997  21.192   6.205  0.00  0.00     0.210 HD
ENDBRANCH   4  21
BRANCH   1  23
HETATM   23  C   UNK N   1      23.977  16.695   5.115  0.00  0.00     0.097 C 
BRANCH  23  24
HETATM   24  S   UNK N   1      22.329  17.484   5.134  0.00  0.00    -0.221 SA
HETATM   25  C   UNK N   1      21.289  17.344   6.629  0.00  0.00     0.078 C 
BRANCH  24  26
HETATM   26  C   UNK N   1      21.551  17.790   3.527  0.00  0.00     0.065 C 
BRANCH  26  27
HETATM   27  C   UNK N   1      20.786  19.094   3.656  0.00  0.00     0.045 C 
BRANCH  27  28
HETATM   28  C   UNK N   1      20.332  19.659   2.320  0.00  0.00     0.177 C 
BRANCH  28  29
HETATM   29  N   UNK N   1      20.061  18.573   1.391  0.00  0.00    -0.417 N 
HETATM   30  H   UNK N   1      19.421  17.784   1.474  0.00  0.00     0.150 HD
HETATM   31  H   UNK N   1      20.595  18.605   0.522  0.00  0.00     0.150 HD
ENDBRANCH  28  29
BRANCH  28  32
HETATM   32  C   UNK N   1      21.361  20.605   1.764  0.00  0.00     0.196 C 
HETATM   33  O   UNK N   1      22.169  21.301   2.589  0.00  0.00    -0.646 OA
HETATM   34  O   UNK N   1      21.468  20.749   0.556  0.00  0.00    -0.646 OA
ENDBRANCH  28  32
ENDBRANCH  27  28
ENDBRANCH  26  27
ENDBRANCH  24  26
ENDBRANCH  23  24
ENDBRANCH   1  23
BRANCH   5  35
HETATM   35  O   UNK N   1      24.741  19.764   3.361  0.00  0.00    -0.390 OA
HETATM   36  H   UNK N   1      25.027  20.507   2.806  0.00  0.00     0.210 HD
ENDBRANCH   5  35
TORSDOF 11
ENDMDL
MODEL 7
REMARK VINA RESULT:      -6.5     10.101     12.352
REMARK  11 active torsions:
REMARK  status: ('A' for Active; 'I' for Inactive)
REMARK    1  A    between atoms: C_1  and  N_2 
REMARK    2  A    between atoms: C_1  and  C_3 
REMARK    3  A    between atoms: C_1  and  C_28 
REMARK    4  A    between atoms: C_3  and  C_4 
REMARK    5  A    between atoms: C_4  and  S_5 
REMARK    6  A    between atoms: S_5  and  C_7 
REMARK    7  A    between atoms: C_8  and  C_7 
REMARK    8  A    between atoms: C_10  and  N_11 
REMARK    9  A    between atoms: C_16  and  N_17 
REMARK   10  A    between atoms: C_24  and  O_25 
REMARK   11  A    between atoms: C_26  and  O_27 
ROOT
HETATM    1  C   UNK N   1      33.788  15.362   6.930  0.00  0.00     0.164 C 
HETATM    2  O   UNK N   1      34.441  14.788   8.044  0.00  0.00    -0.355 OA
HETATM    3  C   UNK N   1      34.023  15.585   9.127  0.00  0.00     0.262 C 
HETATM    4  C   UNK N   1      34.242  16.994   8.613  0.00  0.00     0.198 C 
HETATM    5  C   UNK N   1      33.733  16.880   7.186  0.00  0.00     0.180 C 
ENDROOT
BRANCH   3   6
HETATM    6  N   UNK N   1      34.775  15.225  10.333  0.00  0.00    -0.297 N 
HETATM    7  C   UNK N   1      35.567  16.081  11.033  0.00  0.00     0.188 A 
HETATM    8  N   UNK N   1      36.220  15.446  12.046  0.00  0.00    -0.346 N 
HETATM    9  C   UNK N   1      35.828  14.164  11.940  0.00  0.00     0.122 A 
ATOM     10  HN  UNK N   1      36.860  15.850  12.728  1.00  0.00     0.167 HD
HETATM   11  C   UNK N   1      36.200  13.061  12.686  0.00  0.00     0.131 A 
HETATM   12  C   UNK N   1      34.964  14.031  10.914  0.00  0.00     0.142 A 
HETATM   13  N   UNK N   1      35.664  11.850  12.350  0.00  0.00    -0.337 N 
HETATM   14  C   UNK N   1      34.786  11.734  11.300  0.00  0.00     0.183 A 
ATOM     15  HN  UNK N   1      35.921  11.020  12.885  1.00  0.00     0.168 HD
HETATM   16  N   UNK N   1      34.431  12.834  10.567  0.00  0.00    -0.336 N 
ATOM     17  HN  UNK N   1      33.785  12.756   9.781  1.00  0.00     0.168 HD
BRANCH  11  18
HETATM   18  N   UNK N   1      37.116  13.172  13.752  0.00  0.00    -0.383 N 
HETATM   19  H   UNK N   1      38.083  13.185  13.571  0.00  0.00     0.157 HD
HETATM   20  H   UNK N   1      36.788  13.238  14.677  0.00  0.00     0.157 HD
ENDBRANCH  11  18
ENDBRANCH   3   6
BRANCH   4  21
HETATM   21  O   UNK N   1      33.549  17.970   9.335  0.00  0.00    -0.388 OA
HETATM   22  H   UNK N   1      33.715  18.213  10.259  0.00  0.00     0.210 HD
ENDBRANCH   4  21
BRANCH   1  23
HETATM   23  C   UNK N   1      32.371  14.768   6.851  0.00  0.00     0.097 C 
BRANCH  23  24
HETATM   24  S   UNK N   1      31.459  15.481   5.437  0.00  0.00    -0.221 SA
HETATM   25  C   UNK N   1      32.087  15.214   3.743  0.00  0.00     0.078 C 
BRANCH  24  26
HETATM   26  C   UNK N   1      30.399  16.908   5.784  0.00  0.00     0.065 C 
BRANCH  26  27
HETATM   27  C   UNK N   1      29.709  16.626   7.107  0.00  0.00     0.045 C 
BRANCH  27  28
HETATM   28  C   UNK N   1      29.839  17.764   8.106  0.00  0.00     0.177 C 
BRANCH  28  29
HETATM   29  N   UNK N   1      30.616  17.326   9.255  0.00  0.00    -0.417 N 
HETATM   30  H   UNK N   1      31.576  17.548   9.520  0.00  0.00     0.150 HD
HETATM   31  H   UNK N   1      30.126  16.701   9.895  0.00  0.00     0.150 HD
ENDBRANCH  28  29
BRANCH  28  32
HETATM   32  C   UNK N   1      28.483  18.262   8.525  0.00  0.00     0.196 C 
HETATM   33  O   UNK N   1      27.801  17.646   9.510  0.00  0.00    -0.646 OA
HETATM   34  O   UNK N   1      27.991  19.232   7.968  0.00  0.00    -0.646 OA
ENDBRANCH  28  32
ENDBRANCH  27  28
ENDBRANCH  26  27
ENDBRANCH  24  26
ENDBRANCH  23  24
ENDBRANCH   1  23
BRANCH   5  35
HETATM   35  O   UNK N   1      34.581  17.582   6.324  0.00  0.00    -0.390 OA
HETATM   36  H   UNK N   1      35.225  18.288   6.156  0.00  0.00     0.210 HD
ENDBRANCH   5  35
TORSDOF 11
ENDMDL
MODEL 8
REMARK VINA RESULT:      -6.5     11.137     14.562
REMARK  11 active torsions:
REMARK  status: ('A' for Active; 'I' for Inactive)
REMARK    1  A    between atoms: C_1  and  N_2 
REMARK    2  A    between atoms: C_1  and  C_3 
REMARK    3  A    between atoms: C_1  and  C_28 
REMARK    4  A    between atoms: C_3  and  C_4 
REMARK    5  A    between atoms: C_4  and  S_5 
REMARK    6  A    between atoms: S_5  and  C_7 
REMARK    7  A    between atoms: C_8  and  C_7 
REMARK    8  A    between atoms: C_10  and  N_11 
REMARK    9  A    between atoms: C_16  and  N_17 
REMARK   10  A    between atoms: C_24  and  O_25 
REMARK   11  A    between atoms: C_26  and  O_27 
ROOT
HETATM    1  C   UNK N   1      34.131  15.480   9.470  0.00  0.00     0.164 C 
HETATM    2  O   UNK N   1      32.787  15.681   9.085  0.00  0.00    -0.355 OA
HETATM    3  C   UNK N   1      32.887  16.374   7.863  0.00  0.00     0.262 C 
HETATM    4  C   UNK N   1      33.883  17.473   8.180  0.00  0.00     0.198 C 
HETATM    5  C   UNK N   1      34.914  16.721   9.004  0.00  0.00     0.180 C 
ENDROOT
BRANCH   3   6
HETATM    6  N   UNK N   1      31.560  16.824   7.432  0.00  0.00    -0.297 N 
HETATM    7  C   UNK N   1      31.135  16.846   6.140  0.00  0.00     0.188 A 
HETATM    8  N   UNK N   1      29.899  17.407   6.028  0.00  0.00    -0.346 N 
HETATM    9  C   UNK N   1      29.578  17.754   7.287  0.00  0.00     0.122 A 
ATOM     10  HN  UNK N   1      29.344  17.535   5.183  1.00  0.00     0.167 HD
HETATM   11  C   UNK N   1      28.450  18.394   7.768  0.00  0.00     0.131 A 
HETATM   12  C   UNK N   1      30.573  17.405   8.127  0.00  0.00     0.142 A 
HETATM   13  N   UNK N   1      28.384  18.654   9.108  0.00  0.00    -0.337 N 
HETATM   14  C   UNK N   1      29.409  18.293   9.948  0.00  0.00     0.183 A 
ATOM     15  HN  UNK N   1      27.562  19.124   9.488  1.00  0.00     0.168 HD
HETATM   16  N   UNK N   1      30.521  17.665   9.457  0.00  0.00    -0.336 N 
ATOM     17  HN  UNK N   1      31.289  17.399  10.073  1.00  0.00     0.168 HD
BRANCH  11  18
HETATM   18  N   UNK N   1      27.406  18.784   6.906  0.00  0.00    -0.383 N 
HETATM   19  H   UNK N   1      27.469  18.600   5.941  0.00  0.00     0.157 HD
HETATM   20  H   UNK N   1      26.613  19.240   7.269  0.00  0.00     0.157 HD
ENDBRANCH  11  18
ENDBRANCH   3   6
BRANCH   4  21
HETATM   21  O   UNK N   1      34.451  18.060   7.047  0.00  0.00    -0.388 OA
HETATM   22  H   UNK N   1      34.891  17.585   6.324  0.00  0.00     0.210 HD
ENDBRANCH   4  21
BRANCH   1  23
HETATM   23  C   UNK N   1      34.644  14.211   8.766  0.00  0.00     0.097 C 
BRANCH  23  24
HETATM   24  S   UNK N   1      35.295  13.021   9.989  0.00  0.00    -0.221 SA
HETATM   25  C   UNK N   1      34.359  11.489  10.331  0.00  0.00     0.078 C 
BRANCH  24  26
HETATM   26  C   UNK N   1      36.430  13.673  11.241  0.00  0.00     0.065 C 
BRANCH  26  27
HETATM   27  C   UNK N   1      37.629  12.743  11.267  0.00  0.00     0.045 C 
BRANCH  27  28
HETATM   28  C   UNK N   1      38.774  13.214  10.385  0.00  0.00     0.177 C 
BRANCH  28  29
HETATM   29  N   UNK N   1      38.553  14.595   9.983  0.00  0.00    -0.417 N 
HETATM   30  H   UNK N   1      39.222  15.304   9.682  0.00  0.00     0.150 HD
HETATM   31  H   UNK N   1      37.581  14.901  10.007  0.00  0.00     0.150 HD
ENDBRANCH  28  29
BRANCH  28  32
HETATM   32  C   UNK N   1      38.926  12.317   9.186  0.00  0.00     0.196 C 
HETATM   33  O   UNK N   1      39.397  11.062   9.324  0.00  0.00    -0.646 OA
HETATM   34  O   UNK N   1      38.622  12.727   8.076  0.00  0.00    -0.646 OA
ENDBRANCH  28  32
ENDBRANCH  27  28
ENDBRANCH  26  27
ENDBRANCH  24  26
ENDBRANCH  23  24
ENDBRANCH   1  23
BRANCH   5  35
HETATM   35  O   UNK N   1      35.325  17.510  10.082  0.00  0.00    -0.390 OA
HETATM   36  H   UNK N   1      36.006  18.016  10.552  0.00  0.00     0.210 HD
ENDBRANCH   5  35
TORSDOF 11
ENDMDL
MODEL 9
REMARK VINA RESULT:      -6.5      1.956      2.378
REMARK  11 active torsions:
REMARK  status: ('A' for Active; 'I' for Inactive)
REMARK    1  A    between atoms: C_1  and  N_2 
REMARK    2  A    between atoms: C_1  and  C_3 
REMARK    3  A    between atoms: C_1  and  C_28 
REMARK    4  A    between atoms: C_3  and  C_4 
REMARK    5  A    between atoms: C_4  and  S_5 
REMARK    6  A    between atoms: S_5  and  C_7 
REMARK    7  A    between atoms: C_8  and  C_7 
REMARK    8  A    between atoms: C_10  and  N_11 
REMARK    9  A    between atoms: C_16  and  N_17 
REMARK   10  A    between atoms: C_24  and  O_25 
REMARK   11  A    between atoms: C_26  and  O_27 
ROOT
HETATM    1  C   UNK N   1      21.855  15.504   6.377  0.00  0.00     0.164 C 
HETATM    2  O   UNK N   1      22.247  14.584   7.374  0.00  0.00    -0.355 OA
HETATM    3  C   UNK N   1      21.060  14.335   8.089  0.00  0.00     0.262 C 
HETATM    4  C   UNK N   1      20.522  15.729   8.345  0.00  0.00     0.198 C 
HETATM    5  C   UNK N   1      20.775  16.404   7.007  0.00  0.00     0.180 C 
ENDROOT
BRANCH   3   6
HETATM    6  N   UNK N   1      21.352  13.537   9.285  0.00  0.00    -0.297 N 
HETATM    7  C   UNK N   1      20.421  13.132  10.189  0.00  0.00     0.188 A 
HETATM    8  N   UNK N   1      20.992  12.496  11.247  0.00  0.00    -0.346 N 
HETATM    9  C   UNK N   1      22.311  12.537  10.986  0.00  0.00     0.122 A 
ATOM     10  HN  UNK N   1      20.528  12.082  12.055  1.00  0.00     0.167 HD
HETATM   11  C   UNK N   1      23.376  12.073  11.735  0.00  0.00     0.131 A 
HETATM   12  C   UNK N   1      22.526  13.162   9.811  0.00  0.00     0.142 A 
HETATM   13  N   UNK N   1      24.637  12.266  11.244  0.00  0.00    -0.337 N 
HETATM   14  C   UNK N   1      24.836  12.906  10.045  0.00  0.00     0.183 A 
ATOM     15  HN  UNK N   1      25.440  11.932  11.776  1.00  0.00     0.168 HD
HETATM   16  N   UNK N   1      23.772  13.366   9.318  0.00  0.00    -0.336 N 
ATOM     17  HN  UNK N   1      23.912  13.848   8.430  1.00  0.00     0.168 HD
BRANCH  11  18
HETATM   18  N   UNK N   1      23.177  11.433  12.974  0.00  0.00    -0.383 N 
HETATM   19  H   UNK N   1      22.923  11.960  13.766  0.00  0.00     0.157 HD
HETATM   20  H   UNK N   1      23.291  10.459  13.049  0.00  0.00     0.157 HD
ENDBRANCH  11  18
ENDBRANCH   3   6
BRANCH   4  21
HETATM   21  O   UNK N   1      19.169  15.755   8.692  0.00  0.00    -0.388 OA
HETATM   22  H   UNK N   1      18.639  14.987   8.958  0.00  0.00     0.210 HD
ENDBRANCH   4  21
BRANCH   1  23
HETATM   23  C   UNK N   1      21.281  14.707   5.192  0.00  0.00     0.097 C 
BRANCH  23  24
HETATM   24  S   UNK N   1      22.307  14.953   3.701  0.00  0.00    -0.221 SA
HETATM   25  C   UNK N   1      23.596  16.247   3.708  0.00  0.00     0.078 C 
BRANCH  24  26
HETATM   26  C   UNK N   1      21.607  14.396   2.126  0.00  0.00     0.065 C 
BRANCH  26  27
HETATM   27  C   UNK N   1      20.231  15.027   2.013  0.00  0.00     0.045 C 
BRANCH  27  28
HETATM   28  C   UNK N   1      20.277  16.532   1.806  0.00  0.00     0.177 C 
BRANCH  28  29
HETATM   29  N   UNK N   1      19.436  17.193   2.792  0.00  0.00    -0.417 N 
HETATM   30  H   UNK N   1      19.224  18.183   2.914  0.00  0.00     0.150 HD
HETATM   31  H   UNK N   1      18.990  16.571   3.466  0.00  0.00     0.150 HD
ENDBRANCH  28  29
BRANCH  28  32
HETATM   32  C   UNK N   1      19.856  16.889   0.406  0.00  0.00     0.196 C 
HETATM   33  O   UNK N   1      20.446  17.911  -0.247  0.00  0.00    -0.646 OA
HETATM   34  O   UNK N   1      18.973  16.252  -0.147  0.00  0.00    -0.646 OA
ENDBRANCH  28  32
ENDBRANCH  27  28
ENDBRANCH  26  27
ENDBRANCH  24  26
ENDBRANCH  23  24
ENDBRANCH   1  23
BRANCH   5  35
HETATM   35  O   UNK N   1      21.241  17.705   7.214  0.00  0.00    -0.390 OA
HETATM   36  H   UNK N   1      21.430  18.600   6.890  0.00  0.00     0.210 HD
ENDBRANCH   5  35
TORSDOF 11
ENDMDL
