MODEL 1
REMARK VINA RESULT:      -4.9      0.000      0.000
REMARK  7 active torsions:
REMARK  status: ('A' for Active; 'I' for Inactive)
REMARK    1  A    between atoms: O_3  and  C_2 
REMARK    2  A    between atoms: C_4  and  C_2 
REMARK    3  A    between atoms: C_4  and  N_5 
REMARK    4  A    between atoms: C_6  and  C_4 
REMARK    5  A    between atoms: C_7  and  C_6 
REMARK    6  A    between atoms: C_7  and  C_8 
REMARK    7  A    between atoms: N_9  and  C_8 
REMARK       I    between atoms: C_10  and  N_9 
REMARK       I    between atoms: N_13  and  C_10 
ROOT
HETATM    1  C   UNK N   1      31.658  17.833   8.642  0.00  0.00     0.023 C 
ENDROOT
BRANCH   1   2
HETATM    2  C   UNK N   1      32.507  16.625   8.287  0.00  0.00     0.037 C 
BRANCH   2   3
HETATM    3  C   UNK N   1      33.980  16.892   8.565  0.00  0.00     0.173 C 
BRANCH   3   4
HETATM    4  C   UNK N   1      34.480  18.075   7.779  0.00  0.00     0.163 C 
HETATM    5  O   UNK N   1      34.373  18.090   6.564  0.00  0.00    -0.648 OA
BRANCH   4   6
HETATM    6  O   UNK N   1      35.064  19.115   8.408  0.00  0.00    -0.775 OA
HETATM    7  H   UNK N   1      34.958  19.244   9.329  0.00  0.00     0.167 HD
ENDBRANCH   4   6
ENDBRANCH   3   4
BRANCH   3   8
HETATM    8  N   UNK N   1      34.158  17.112   9.989  0.00  0.00    -0.418 N 
HETATM    9  H   UNK N   1      33.372  17.009  10.630  0.00  0.00     0.150 HD
HETATM   10  H   UNK N   1      35.077  17.372  10.352  0.00  0.00     0.150 HD
ENDBRANCH   3   8
ENDBRANCH   2   3
ENDBRANCH   1   2
BRANCH   1  11
HETATM   11  C   UNK N   1      30.266  17.386   9.071  0.00  0.00     0.138 C 
BRANCH  11  12
HETATM   12  N   UNK N   1      29.355  17.353   7.949  0.00  0.00    -0.227 N 
HETATM   13  C   UNK N   1      28.124  18.061   7.937  0.00  0.00     0.665 C 
HETATM   14  N   UNK N   1      27.726  18.702   8.979  0.00  0.00    -0.235 N 
HETATM   15  N   UNK N   1      27.349  18.101   6.760  0.00  0.00    -0.235 N 
HETATM   16  H   UNK N   1      28.212  18.637   9.833  0.00  0.00     0.174 HD
ATOM     17  HN  UNK N   1      26.894  19.288   8.919  1.00  0.00     0.174 HD
HETATM   18  H   UNK N   1      26.428  18.447   6.750  0.00  0.00     0.174 HD
HETATM   19  H   UNK N   1      27.743  17.770   5.920  0.00  0.00     0.174 HD
HETATM   20  H   UNK N   1      29.599  16.817   7.160  0.00  0.00     0.177 HD
ENDBRANCH  11  12
ENDBRANCH   1  11
TORSDOF 7
ENDMDL
MODEL 2
REMARK VINA RESULT:      -4.9      3.620      5.732
REMARK  7 active torsions:
REMARK  status: ('A' for Active; 'I' for Inactive)
REMARK    1  A    between atoms: O_3  and  C_2 
REMARK    2  A    between atoms: C_4  and  C_2 
REMARK    3  A    between atoms: C_4  and  N_5 
REMARK    4  A    between atoms: C_6  and  C_4 
REMARK    5  A    between atoms: C_7  and  C_6 
REMARK    6  A    between atoms: C_7  and  C_8 
REMARK    7  A    between atoms: N_9  and  C_8 
REMARK       I    between atoms: C_10  and  N_9 
REMARK       I    between atoms: N_13  and  C_10 
ROOT
HETATM    1  C   UNK N   1      30.842  17.108   8.062  0.00  0.00     0.023 C 
ENDROOT
BRANCH   1   2
HETATM    2  C   UNK N   1      30.508  18.360   8.854  0.00  0.00     0.037 C 
BRANCH   2   3
HETATM    3  C   UNK N   1      29.426  18.080   9.889  0.00  0.00     0.173 C 
BRANCH   3   4
HETATM    4  C   UNK N   1      28.068  17.986   9.246  0.00  0.00     0.163 C 
HETATM    5  O   UNK N   1      27.443  16.938   9.290  0.00  0.00    -0.648 OA
BRANCH   4   6
HETATM    6  O   UNK N   1      27.540  19.047   8.604  0.00  0.00    -0.775 OA
HETATM    7  H   UNK N   1      27.509  19.078   7.668  0.00  0.00     0.167 HD
ENDBRANCH   4   6
ENDBRANCH   3   4
BRANCH   3   8
HETATM    8  N   UNK N   1      29.748  16.848  10.586  0.00  0.00    -0.418 N 
HETATM    9  H   UNK N   1      30.263  16.872  11.466  0.00  0.00     0.150 HD
HETATM   10  H   UNK N   1      29.458  15.951  10.194  0.00  0.00     0.150 HD
ENDBRANCH   3   8
ENDBRANCH   2   3
ENDBRANCH   1   2
BRANCH   1  11
HETATM   11  C   UNK N   1      32.334  17.065   7.755  0.00  0.00     0.138 C 
BRANCH  11  12
HETATM   12  N   UNK N   1      33.101  16.700   8.925  0.00  0.00    -0.227 N 
HETATM   13  C   UNK N   1      34.298  17.368   9.298  0.00  0.00     0.665 C 
HETATM   14  N   UNK N   1      34.798  18.284   8.547  0.00  0.00    -0.235 N 
HETATM   15  N   UNK N   1      34.920  17.058  10.524  0.00  0.00    -0.235 N 
HETATM   16  H   UNK N   1      34.423  18.474   7.657  0.00  0.00     0.174 HD
ATOM     17  HN  UNK N   1      35.597  18.823   8.879  1.00  0.00     0.174 HD
HETATM   18  H   UNK N   1      35.821  17.382  10.750  0.00  0.00     0.174 HD
HETATM   19  H   UNK N   1      34.438  16.498  11.175  0.00  0.00     0.174 HD
HETATM   20  H   UNK N   1      32.780  15.957   9.486  0.00  0.00     0.177 HD
ENDBRANCH  11  12
ENDBRANCH   1  11
TORSDOF 7
ENDMDL
MODEL 3
REMARK VINA RESULT:      -4.8      3.185      6.326
REMARK  7 active torsions:
REMARK  status: ('A' for Active; 'I' for Inactive)
REMARK    1  A    between atoms: O_3  and  C_2 
REMARK    2  A    between atoms: C_4  and  C_2 
REMARK    3  A    between atoms: C_4  and  N_5 
REMARK    4  A    between atoms: C_6  and  C_4 
REMARK    5  A    between atoms: C_7  and  C_6 
REMARK    6  A    between atoms: C_7  and  C_8 
REMARK    7  A    between atoms: N_9  and  C_8 
REMARK       I    between atoms: C_10  and  N_9 
REMARK       I    between atoms: N_13  and  C_10 
ROOT
HETATM    1  C   UNK N   1      35.577  15.854   9.789  0.00  0.00     0.023 C 
ENDROOT
BRANCH   1   2
HETATM    2  C   UNK N   1      34.284  16.003   9.007  0.00  0.00     0.037 C 
BRANCH   2   3
HETATM    3  C   UNK N   1      33.777  17.438   9.057  0.00  0.00     0.173 C 
BRANCH   3   4
HETATM    4  C   UNK N   1      34.536  18.318   8.099  0.00  0.00     0.163 C 
HETATM    5  O   UNK N   1      34.421  18.152   6.896  0.00  0.00    -0.648 OA
BRANCH   4   6
HETATM    6  O   UNK N   1      35.359  19.280   8.562  0.00  0.00    -0.775 OA
HETATM    7  H   UNK N   1      35.541  19.361   9.478  0.00  0.00     0.167 HD
ENDBRANCH   4   6
ENDBRANCH   3   4
BRANCH   3   8
HETATM    8  N   UNK N   1      32.359  17.448   8.745  0.00  0.00    -0.418 N 
HETATM    9  H   UNK N   1      31.708  17.982   9.320  0.00  0.00     0.150 HD
HETATM   10  H   UNK N   1      32.010  16.916   7.946  0.00  0.00     0.150 HD
ENDBRANCH   3   8
ENDBRANCH   2   3
ENDBRANCH   1   2
BRANCH   1  11
HETATM   11  C   UNK N   1      35.315  16.048  11.278  0.00  0.00     0.138 C 
BRANCH  11  12
HETATM   12  N   UNK N   1      36.261  15.306  12.079  0.00  0.00    -0.227 N 
HETATM   13  C   UNK N   1      36.007  13.987  12.543  0.00  0.00     0.665 C 
HETATM   14  N   UNK N   1      34.869  13.427  12.333  0.00  0.00    -0.235 N 
HETATM   15  N   UNK N   1      37.025  13.266  13.199  0.00  0.00    -0.235 N 
HETATM   16  H   UNK N   1      34.119  13.929  11.938  0.00  0.00     0.174 HD
ATOM     17  HN  UNK N   1      34.740  12.446  12.581  1.00  0.00     0.174 HD
HETATM   18  H   UNK N   1      36.849  12.418  13.666  0.00  0.00     0.174 HD
HETATM   19  H   UNK N   1      37.943  13.624  13.191  0.00  0.00     0.174 HD
HETATM   20  H   UNK N   1      37.117  15.731  12.314  0.00  0.00     0.177 HD
ENDBRANCH  11  12
ENDBRANCH   1  11
TORSDOF 7
ENDMDL
MODEL 4
REMARK VINA RESULT:      -4.8     11.471     12.558
REMARK  7 active torsions:
REMARK  status: ('A' for Active; 'I' for Inactive)
REMARK    1  A    between atoms: O_3  and  C_2 
REMARK    2  A    between atoms: C_4  and  C_2 
REMARK    3  A    between atoms: C_4  and  N_5 
REMARK    4  A    between atoms: C_6  and  C_4 
REMARK    5  A    between atoms: C_7  and  C_6 
REMARK    6  A    between atoms: C_7  and  C_8 
REMARK    7  A    between atoms: N_9  and  C_8 
REMARK       I    between atoms: C_10  and  N_9 
REMARK       I    between atoms: N_13  and  C_10 
ROOT
HETATM    1  C   UNK N   1      20.797  15.543   8.515  0.00  0.00     0.023 C 
ENDROOT
BRANCH   1   2
HETATM    2  C   UNK N   1      19.592  16.336   8.041  0.00  0.00     0.037 C 
BRANCH   2   3
HETATM    3  C   UNK N   1      19.104  17.290   9.123  0.00  0.00     0.173 C 
BRANCH   3   4
HETATM    4  C   UNK N   1      19.842  18.601   9.068  0.00  0.00     0.163 C 
HETATM    5  O   UNK N   1      20.433  18.927   8.051  0.00  0.00    -0.648 OA
BRANCH   4   6
HETATM    6  O   UNK N   1      19.873  19.413  10.144  0.00  0.00    -0.775 OA
HETATM    7  H   UNK N   1      20.175  20.297  10.073  0.00  0.00     0.167 HD
ENDBRANCH   4   6
ENDBRANCH   3   4
BRANCH   3   8
HETATM    8  N   UNK N   1      17.677  17.500   8.958  0.00  0.00    -0.418 N 
HETATM    9  H   UNK N   1      17.171  18.124   9.587  0.00  0.00     0.150 HD
HETATM   10  H   UNK N   1      17.176  17.021   8.209  0.00  0.00     0.150 HD
ENDBRANCH   3   8
ENDBRANCH   2   3
ENDBRANCH   1   2
BRANCH   1  11
HETATM   11  C   UNK N   1      20.368  14.500   9.540  0.00  0.00     0.138 C 
BRANCH  11  12
HETATM   12  N   UNK N   1      21.447  13.589   9.846  0.00  0.00    -0.227 N 
HETATM   13  C   UNK N   1      21.298  12.493  10.738  0.00  0.00     0.665 C 
HETATM   14  N   UNK N   1      20.201  12.320  11.385  0.00  0.00    -0.235 N 
HETATM   15  N   UNK N   1      22.346  11.561  10.884  0.00  0.00    -0.235 N 
HETATM   16  H   UNK N   1      19.480  12.990  11.354  0.00  0.00     0.174 HD
ATOM     17  HN  UNK N   1      20.075  11.473  11.940  1.00  0.00     0.174 HD
HETATM   18  H   UNK N   1      22.346  10.881  11.595  0.00  0.00     0.174 HD
HETATM   19  H   UNK N   1      23.102  11.592  10.254  0.00  0.00     0.174 HD
HETATM   20  H   UNK N   1      22.322  13.733   9.417  0.00  0.00     0.177 HD
ENDBRANCH  11  12
ENDBRANCH   1  11
TORSDOF 7
ENDMDL
MODEL 5
REMARK VINA RESULT:      -4.6      2.235      3.063
REMARK  7 active torsions:
REMARK  status: ('A' for Active; 'I' for Inactive)
REMARK    1  A    between atoms: O_3  and  C_2 
REMARK    2  A    between atoms: C_4  and  C_2 
REMARK    3  A    between atoms: C_4  and  N_5 
REMARK    4  A    between atoms: C_6  and  C_4 
REMARK    5  A    between atoms: C_7  and  C_6 
REMARK    6  A    between atoms: C_7  and  C_8 
REMARK    7  A    between atoms: N_9  and  C_8 
REMARK       I    between atoms: C_10  and  N_9 
REMARK       I    between atoms: N_13  and  C_10 
ROOT
HETATM    1  C   UNK N   1      32.851  15.589   8.515  0.00  0.00     0.023 C 
ENDROOT
BRANCH   1   2
HETATM    2  C   UNK N   1      34.347  15.335   8.577  0.00  0.00     0.037 C 
BRANCH   2   3
HETATM    3  C   UNK N   1      34.816  15.181  10.017  0.00  0.00     0.173 C 
BRANCH   3   4
HETATM    4  C   UNK N   1      35.726  16.312  10.419  0.00  0.00     0.163 C 
HETATM    5  O   UNK N   1      35.382  17.468  10.232  0.00  0.00    -0.648 OA
BRANCH   4   6
HETATM    6  O   UNK N   1      36.930  16.058  10.970  0.00  0.00    -0.775 OA
HETATM    7  H   UNK N   1      37.145  15.203  11.286  0.00  0.00     0.167 HD
ENDBRANCH   4   6
ENDBRANCH   3   4
BRANCH   3   8
HETATM    8  N   UNK N   1      33.655  15.125  10.888  0.00  0.00    -0.418 N 
HETATM    9  H   UNK N   1      32.789  14.695  10.566  0.00  0.00     0.150 HD
HETATM   10  H   UNK N   1      33.706  15.520  11.828  0.00  0.00     0.150 HD
ENDBRANCH   3   8
ENDBRANCH   2   3
ENDBRANCH   1   2
BRANCH   1  11
HETATM   11  C   UNK N   1      32.578  16.981   7.957  0.00  0.00     0.138 C 
BRANCH  11  12
HETATM   12  N   UNK N   1      31.882  17.805   8.917  0.00  0.00    -0.227 N 
HETATM   13  C   UNK N   1      30.467  17.941   8.931  0.00  0.00     0.665 C 
HETATM   14  N   UNK N   1      29.747  17.393   8.019  0.00  0.00    -0.235 N 
HETATM   15  N   UNK N   1      29.842  18.647   9.979  0.00  0.00    -0.235 N 
HETATM   16  H   UNK N   1      30.160  16.952   7.240  0.00  0.00     0.174 HD
ATOM     17  HN  UNK N   1      28.731  17.414   8.102  1.00  0.00     0.174 HD
HETATM   18  H   UNK N   1      28.890  18.893   9.949  0.00  0.00     0.174 HD
HETATM   19  H   UNK N   1      30.375  18.901  10.767  0.00  0.00     0.174 HD
HETATM   20  H   UNK N   1      32.409  18.293   9.590  0.00  0.00     0.177 HD
ENDBRANCH  11  12
ENDBRANCH   1  11
TORSDOF 7
ENDMDL
MODEL 6
REMARK VINA RESULT:      -4.6     10.668     12.167
REMARK  7 active torsions:
REMARK  status: ('A' for Active; 'I' for Inactive)
REMARK    1  A    between atoms: O_3  and  C_2 
REMARK    2  A    between atoms: C_4  and  C_2 
REMARK    3  A    between atoms: C_4  and  N_5 
REMARK    4  A    between atoms: C_6  and  C_4 
REMARK    5  A    between atoms: C_7  and  C_6 
REMARK    6  A    between atoms: C_7  and  C_8 
REMARK    7  A    between atoms: N_9  and  C_8 
REMARK       I    between atoms: C_10  and  N_9 
REMARK       I    between atoms: N_13  and  C_10 
ROOT
HETATM    1  C   UNK N   1      21.325  14.796   8.996  0.00  0.00     0.023 C 
ENDROOT
BRANCH   1   2
HETATM    2  C   UNK N   1      19.910  15.326   9.152  0.00  0.00     0.037 C 
BRANCH   2   3
HETATM    3  C   UNK N   1      19.656  16.493   8.207  0.00  0.00     0.173 C 
BRANCH   3   4
HETATM    4  C   UNK N   1      19.211  17.719   8.960  0.00  0.00     0.163 C 
HETATM    5  O   UNK N   1      20.022  18.582   9.254  0.00  0.00    -0.648 OA
BRANCH   4   6
HETATM    6  O   UNK N   1      17.923  17.863   9.330  0.00  0.00    -0.775 OA
HETATM    7  H   UNK N   1      17.241  17.926   8.691  0.00  0.00     0.167 HD
ENDBRANCH   4   6
ENDBRANCH   3   4
BRANCH   3   8
HETATM    8  N   UNK N   1      20.870  16.766   7.458  0.00  0.00    -0.418 N 
HETATM    9  H   UNK N   1      20.883  16.666   6.443  0.00  0.00     0.150 HD
HETATM   10  H   UNK N   1      21.715  17.060   7.949  0.00  0.00     0.150 HD
ENDBRANCH   3   8
ENDBRANCH   2   3
ENDBRANCH   1   2
BRANCH   1  11
HETATM   11  C   UNK N   1      21.527  13.573   9.881  0.00  0.00     0.138 C 
BRANCH  11  12
HETATM   12  N   UNK N   1      22.915  13.416  10.253  0.00  0.00    -0.227 N 
HETATM   13  C   UNK N   1      23.382  12.329  11.040  0.00  0.00     0.665 C 
HETATM   14  N   UNK N   1      22.557  11.474  11.531  0.00  0.00    -0.235 N 
HETATM   15  N   UNK N   1      24.766  12.159  11.249  0.00  0.00    -0.235 N 
HETATM   16  H   UNK N   1      21.584  11.605  11.458  0.00  0.00     0.174 HD
ATOM     17  HN  UNK N   1      22.917  10.646  12.005  1.00  0.00     0.174 HD
HETATM   18  H   UNK N   1      25.121  11.517  11.904  0.00  0.00     0.174 HD
HETATM   19  H   UNK N   1      25.397  12.701  10.722  0.00  0.00     0.174 HD
HETATM   20  H   UNK N   1      23.564  14.091   9.949  0.00  0.00     0.177 HD
ENDBRANCH  11  12
ENDBRANCH   1  11
TORSDOF 7
ENDMDL
MODEL 7
REMARK VINA RESULT:      -4.4      9.174     12.014
REMARK  7 active torsions:
REMARK  status: ('A' for Active; 'I' for Inactive)
REMARK    1  A    between atoms: O_3  and  C_2 
REMARK    2  A    between atoms: C_4  and  C_2 
REMARK    3  A    between atoms: C_4  and  N_5 
REMARK    4  A    between atoms: C_6  and  C_4 
REMARK    5  A    between atoms: C_7  and  C_6 
REMARK    6  A    between atoms: C_7  and  C_8 
REMARK    7  A    between atoms: N_9  and  C_8 
REMARK       I    between atoms: C_10  and  N_9 
REMARK       I    between atoms: N_13  and  C_10 
ROOT
HETATM    1  C   UNK N   1      20.852  17.707   3.812  0.00  0.00     0.023 C 
ENDROOT
BRANCH   1   2
HETATM    2  C   UNK N   1      20.762  19.222   3.750  0.00  0.00     0.037 C 
BRANCH   2   3
HETATM    3  C   UNK N   1      19.972  19.673   2.529  0.00  0.00     0.173 C 
BRANCH   3   4
HETATM    4  C   UNK N   1      20.887  20.151   1.432  0.00  0.00     0.163 C 
HETATM    5  O   UNK N   1      21.934  20.712   1.713  0.00  0.00    -0.648 OA
BRANCH   4   6
HETATM    6  O   UNK N   1      20.549  19.983   0.138  0.00  0.00    -0.775 OA
HETATM    7  H   UNK N   1      20.835  19.230  -0.341  0.00  0.00     0.167 HD
ENDBRANCH   4   6
ENDBRANCH   3   4
BRANCH   3   8
HETATM    8  N   UNK N   1      19.152  18.569   2.063  0.00  0.00    -0.418 N 
HETATM    9  H   UNK N   1      19.510  17.614   2.085  0.00  0.00     0.150 HD
HETATM   10  H   UNK N   1      18.210  18.748   1.712  0.00  0.00     0.150 HD
ENDBRANCH   3   8
ENDBRANCH   2   3
ENDBRANCH   1   2
BRANCH   1  11
HETATM   11  C   UNK N   1      22.306  17.264   3.713  0.00  0.00     0.138 C 
BRANCH  11  12
HETATM   12  N   UNK N   1      23.206  18.315   4.130  0.00  0.00    -0.227 N 
HETATM   13  C   UNK N   1      24.281  18.095   5.032  0.00  0.00     0.665 C 
HETATM   14  N   UNK N   1      24.444  16.948   5.589  0.00  0.00    -0.235 N 
HETATM   15  N   UNK N   1      25.205  19.129   5.287  0.00  0.00    -0.235 N 
HETATM   16  H   UNK N   1      23.778  16.230   5.481  0.00  0.00     0.174 HD
ATOM     17  HN  UNK N   1      25.278  16.777   6.151  1.00  0.00     0.174 HD
HETATM   18  H   UNK N   1      25.868  19.071   6.012  0.00  0.00     0.174 HD
HETATM   19  H   UNK N   1      25.185  19.935   4.722  0.00  0.00     0.174 HD
HETATM   20  H   UNK N   1      23.068  19.223   3.773  0.00  0.00     0.177 HD
ENDBRANCH  11  12
ENDBRANCH   1  11
TORSDOF 7
ENDMDL
MODEL 8
REMARK VINA RESULT:      -4.4      9.495     10.426
REMARK  7 active torsions:
REMARK  status: ('A' for Active; 'I' for Inactive)
REMARK    1  A    between atoms: O_3  and  C_2 
REMARK    2  A    between atoms: C_4  and  C_2 
REMARK    3  A    between atoms: C_4  and  N_5 
REMARK    4  A    between atoms: C_6  and  C_4 
REMARK    5  A    between atoms: C_7  and  C_6 
REMARK    6  A    between atoms: C_7  and  C_8 
REMARK    7  A    between atoms: N_9  and  C_8 
REMARK       I    between atoms: C_10  and  N_9 
REMARK       I    between atoms: N_13  and  C_10 
ROOT
HETATM    1  C   UNK N   1      20.989  13.133  10.239  0.00  0.00     0.023 C 
ENDROOT
BRANCH   1   2
HETATM    2  C   UNK N   1      21.971  12.185   9.572  0.00  0.00     0.037 C 
BRANCH   2   3
HETATM    3  C   UNK N   1      23.005  11.678  10.569  0.00  0.00     0.173 C 
BRANCH   3   4
HETATM    4  C   UNK N   1      24.264  12.501  10.517  0.00  0.00     0.163 C 
HETATM    5  O   UNK N   1      24.483  13.223   9.557  0.00  0.00    -0.648 OA
BRANCH   4   6
HETATM    6  O   UNK N   1      25.167  12.434  11.515  0.00  0.00    -0.775 OA
HETATM    7  H   UNK N   1      25.278  13.145  12.115  0.00  0.00     0.167 HD
ENDBRANCH   4   6
ENDBRANCH   3   4
BRANCH   3   8
HETATM    8  N   UNK N   1      22.429  11.710  11.902  0.00  0.00    -0.418 N 
HETATM    9  H   UNK N   1      21.438  11.911  12.031  0.00  0.00     0.150 HD
HETATM   10  H   UNK N   1      23.020  11.531  12.715  0.00  0.00     0.150 HD
ENDBRANCH   3   8
ENDBRANCH   2   3
ENDBRANCH   1   2
BRANCH   1  11
HETATM   11  C   UNK N   1      20.950  14.459   9.491  0.00  0.00     0.138 C 
BRANCH  11  12
HETATM   12  N   UNK N   1      21.853  14.453   8.362  0.00  0.00    -0.227 N 
HETATM   13  C   UNK N   1      21.872  15.487   7.388  0.00  0.00     0.665 C 
HETATM   14  N   UNK N   1      21.013  16.442   7.428  0.00  0.00    -0.235 N 
HETATM   15  N   UNK N   1      22.871  15.493   6.392  0.00  0.00    -0.235 N 
HETATM   16  H   UNK N   1      20.266  16.427   8.070  0.00  0.00     0.174 HD
ATOM     17  HN  UNK N   1      21.105  17.227   6.785  1.00  0.00     0.174 HD
HETATM   18  H   UNK N   1      22.833  16.097   5.617  0.00  0.00     0.174 HD
HETATM   19  H   UNK N   1      23.630  14.872   6.476  0.00  0.00     0.174 HD
HETATM   20  H   UNK N   1      22.481  13.701   8.264  0.00  0.00     0.177 HD
ENDBRANCH  11  12
ENDBRANCH   1  11
TORSDOF 7
ENDMDL
MODEL 9
REMARK VINA RESULT:      -4.2      2.896      4.985
REMARK  7 active torsions:
REMARK  status: ('A' for Active; 'I' for Inactive)
REMARK    1  A    between atoms: O_3  and  C_2 
REMARK    2  A    between atoms: C_4  and  C_2 
REMARK    3  A    between atoms: C_4  and  N_5 
REMARK    4  A    between atoms: C_6  and  C_4 
REMARK    5  A    between atoms: C_7  and  C_6 
REMARK    6  A    between atoms: C_7  and  C_8 
REMARK    7  A    between atoms: N_9  and  C_8 
REMARK       I    between atoms: C_10  and  N_9 
REMARK       I    between atoms: N_13  and  C_10 
ROOT
HETATM    1  C   UNK N   1      32.285  15.011   7.945  0.00  0.00     0.023 C 
ENDROOT
BRANCH   1   2
HETATM    2  C   UNK N   1      31.686  16.383   8.202  0.00  0.00     0.037 C 
BRANCH   2   3
HETATM    3  C   UNK N   1      32.103  17.372   7.123  0.00  0.00     0.173 C 
BRANCH   3   4
HETATM    4  C   UNK N   1      33.474  17.933   7.397  0.00  0.00     0.163 C 
HETATM    5  O   UNK N   1      33.717  18.451   8.475  0.00  0.00    -0.648 OA
BRANCH   4   6
HETATM    6  O   UNK N   1      34.433  17.886   6.451  0.00  0.00    -0.775 OA
HETATM    7  H   UNK N   1      34.905  18.656   6.204  0.00  0.00     0.167 HD
ENDBRANCH   4   6
ENDBRANCH   3   4
BRANCH   3   8
HETATM    8  N   UNK N   1      32.073  16.705   5.834  0.00  0.00    -0.418 N 
HETATM    9  H   UNK N   1      31.356  16.940   5.148  0.00  0.00     0.150 HD
HETATM   10  H   UNK N   1      32.774  15.996   5.612  0.00  0.00     0.150 HD
ENDBRANCH   3   8
ENDBRANCH   2   3
ENDBRANCH   1   2
BRANCH   1  11
HETATM   11  C   UNK N   1      32.950  14.484   9.211  0.00  0.00     0.138 C 
BRANCH  11  12
HETATM   12  N   UNK N   1      33.418  15.565  10.048  0.00  0.00    -0.227 N 
HETATM   13  C   UNK N   1      34.794  15.894  10.182  0.00  0.00     0.665 C 
HETATM   14  N   UNK N   1      35.697  15.173   9.619  0.00  0.00    -0.235 N 
HETATM   15  N   UNK N   1      35.172  17.046  10.901  0.00  0.00    -0.235 N 
HETATM   16  H   UNK N   1      35.467  14.328   9.168  0.00  0.00     0.174 HD
ATOM     17  HN  UNK N   1      36.669  15.482   9.640  1.00  0.00     0.174 HD
HETATM   18  H   UNK N   1      36.108  17.227  11.145  0.00  0.00     0.174 HD
HETATM   19  H   UNK N   1      34.477  17.690  11.168  0.00  0.00     0.174 HD
HETATM   20  H   UNK N   1      32.756  16.097  10.546  0.00  0.00     0.177 HD
ENDBRANCH  11  12
ENDBRANCH   1  11
TORSDOF 7
ENDMDL
