MODEL 1
REMARK VINA RESULT:      -7.9      0.000      0.000
REMARK  11 active torsions:
REMARK  status: ('A' for Active; 'I' for Inactive)
REMARK    1  A    between atoms: O_3  and  C_32 
REMARK    2  A    between atoms: O_5  and  C_33 
REMARK    3  A    between atoms: N_9  and  C_17 
REMARK    4  A    between atoms: N_9  and  C_20 
REMARK    5  A    between atoms: C_23  and  N_13 
REMARK       I    between atoms: N_13  and  C_31 
REMARK       I    between atoms: N_14  and  C_22 
REMARK    6  A    between atoms: C_15  and  C_17 
REMARK    7  A    between atoms: C_23  and  C_24 
REMARK    8  A    between atoms: C_23  and  C_32 
REMARK    9  A    between atoms: C_24  and  C_30 
REMARK   10  A    between atoms: C_27  and  C_31 
REMARK   11  A    between atoms: C_30  and  C_33 
ROOT
HETATM    1  C   UNK N   1      35.874  13.300  12.319  0.00  0.00     0.028 A 
HETATM    2  C   UNK N   1      36.334  14.588  12.623  0.00  0.00     0.030 A 
HETATM    3  C   UNK N   1      35.084  13.092  11.188  0.00  0.00     0.030 A 
HETATM    4  C   UNK N   1      35.132  15.466  10.715  0.00  0.00     0.032 A 
HETATM    5  C   UNK N   1      35.950  15.669  11.835  0.00  0.00     0.019 A 
HETATM    6  C   UNK N   1      34.717  14.169  10.384  0.00  0.00     0.019 A 
ENDROOT
BRANCH   1   7
HETATM    7  N   UNK N   1      36.190  12.203  13.150  0.00  0.00    -0.388 N 
HETATM    8  H   UNK N   1      36.471  11.355  12.736  0.00  0.00     0.159 HD
BRANCH   7   9
HETATM    9  C   UNK N   1      36.114  12.287  14.587  0.00  0.00     0.146 C 
BRANCH   9  10
HETATM   10  C   UNK N   1      34.643  12.307  15.003  0.00  0.00     0.117 C 
HETATM   11  N   UNK N   1      34.500  13.099  16.209  0.00  0.00    -0.375 N 
HETATM   12  C   UNK N   1      34.937  12.565  17.444  0.00  0.00     0.142 A 
HETATM   13  H   UNK N   1      34.104  13.999  16.168  0.00  0.00     0.160 HD
HETATM   14  C   UNK N   1      35.071  11.183  17.575  0.00  0.00     0.149 A 
HETATM   15  C   UNK N   1      35.254  13.382  18.528  0.00  0.00     0.289 A 
HETATM   16  N   UNK N   1      34.741  10.338  16.482  0.00  0.00    -0.372 N 
HETATM   17  N   UNK N   1      35.504  10.653  18.748  0.00  0.00    -0.175 N 
HETATM   18  C   UNK N   1      34.159  10.876  15.263  0.00  0.00     0.148 C 
HETATM   19  H   UNK N   1      34.908   9.370  16.551  0.00  0.00     0.161 HD
HETATM   20  C   UNK N   1      35.811  11.457  19.802  0.00  0.00     0.680 A 
HETATM   21  H   UNK N   1      35.598   9.677  18.836  0.00  0.00     0.186 HD
HETATM   22  N   UNK N   1      35.688  12.808  19.695  0.00  0.00    -0.154 N 
HETATM   23  N   UNK N   1      36.253  10.887  21.011  0.00  0.00    -0.234 N 
ATOM     24  HN  UNK N   1      35.922  13.400  20.492  1.00  0.00     0.187 HD
HETATM   25  H   UNK N   1      36.554  11.426  21.778  0.00  0.00     0.174 HD
HETATM   26  H   UNK N   1      36.263   9.905  21.093  0.00  0.00     0.174 HD
HETATM   27  O   UNK N   1      35.164  14.593  18.443  0.00  0.00    -0.265 OA
ENDBRANCH   9  10
ENDBRANCH   7   9
ENDBRANCH   1   7
BRANCH   4  28
HETATM   28  C   UNK N   1      34.538  16.615  10.022  0.00  0.00     0.252 C 
HETATM   29  O   UNK N   1      35.214  17.610   9.815  0.00  0.00    -0.268 OA
HETATM   30  N   UNK N   1      33.310  16.476   9.457  0.00  0.00    -0.343 N 
HETATM   31  H   UNK N   1      32.730  15.755   9.792  0.00  0.00     0.163 HD
BRANCH  30  32
HETATM   32  C   UNK N   1      32.798  17.317   8.394  0.00  0.00     0.183 C 
BRANCH  32  33
HETATM   33  C   UNK N   1      31.297  17.182   8.178  0.00  0.00     0.046 C 
BRANCH  33  34
HETATM   34  C   UNK N   1      30.623  18.324   8.925  0.00  0.00     0.112 C 
BRANCH  34  35
HETATM   35  C   UNK N   1      29.432  17.843   9.678  0.00  0.00     0.139 C 
HETATM   36  O   UNK N   1      28.324  18.274   9.403  0.00  0.00    -0.650 OA
BRANCH  35  37
HETATM   37  O   UNK N   1      29.572  16.918  10.645  0.00  0.00    -0.776 OA
HETATM   38  H   UNK N   1      28.965  16.537  11.248  0.00  0.00     0.167 HD
ENDBRANCH  35  37
ENDBRANCH  34  35
ENDBRANCH  33  34
ENDBRANCH  32  33
BRANCH  32  39
HETATM   39  C   UNK N   1      33.615  17.113   7.152  0.00  0.00     0.163 C 
HETATM   40  O   UNK N   1      33.434  16.116   6.470  0.00  0.00    -0.648 OA
BRANCH  39  41
HETATM   41  O   UNK N   1      34.562  18.000   6.792  0.00  0.00    -0.775 OA
HETATM   42  H   UNK N   1      34.500  18.825   6.352  0.00  0.00     0.167 HD
ENDBRANCH  39  41
ENDBRANCH  32  39
ENDBRANCH  30  32
ENDBRANCH   4  28
TORSDOF 11
ENDMDL
MODEL 2
REMARK VINA RESULT:      -7.9      8.178     13.373
REMARK  11 active torsions:
REMARK  status: ('A' for Active; 'I' for Inactive)
REMARK    1  A    between atoms: O_3  and  C_32 
REMARK    2  A    between atoms: O_5  and  C_33 
REMARK    3  A    between atoms: N_9  and  C_17 
REMARK    4  A    between atoms: N_9  and  C_20 
REMARK    5  A    between atoms: C_23  and  N_13 
REMARK       I    between atoms: N_13  and  C_31 
REMARK       I    between atoms: N_14  and  C_22 
REMARK    6  A    between atoms: C_15  and  C_17 
REMARK    7  A    between atoms: C_23  and  C_24 
REMARK    8  A    between atoms: C_23  and  C_32 
REMARK    9  A    between atoms: C_24  and  C_30 
REMARK   10  A    between atoms: C_27  and  C_31 
REMARK   11  A    between atoms: C_30  and  C_33 
ROOT
HETATM    1  C   UNK N   1      26.574  18.851   3.696  0.00  0.00     0.028 A 
HETATM    2  C   UNK N   1      25.489  18.000   3.944  0.00  0.00     0.030 A 
HETATM    3  C   UNK N   1      26.349  20.191   3.378  0.00  0.00     0.030 A 
HETATM    4  C   UNK N   1      23.959  19.812   3.463  0.00  0.00     0.032 A 
HETATM    5  C   UNK N   1      24.187  18.474   3.811  0.00  0.00     0.019 A 
HETATM    6  C   UNK N   1      25.047  20.673   3.267  0.00  0.00     0.019 A 
ENDROOT
BRANCH   1   7
HETATM    7  N   UNK N   1      27.900  18.369   3.752  0.00  0.00    -0.388 N 
HETATM    8  H   UNK N   1      28.329  18.055   2.923  0.00  0.00     0.159 HD
BRANCH   7   9
HETATM    9  C   UNK N   1      28.645  18.324   4.985  0.00  0.00     0.146 C 
BRANCH   9  10
HETATM   10  C   UNK N   1      28.834  16.862   5.393  0.00  0.00     0.117 C 
HETATM   11  N   UNK N   1      29.176  16.802   6.801  0.00  0.00    -0.375 N 
HETATM   12  C   UNK N   1      30.475  17.182   7.215  0.00  0.00     0.142 A 
HETATM   13  H   UNK N   1      28.512  16.501   7.461  0.00  0.00     0.160 HD
HETATM   14  C   UNK N   1      31.513  17.173   6.283  0.00  0.00     0.149 A 
HETATM   15  C   UNK N   1      30.742  17.581   8.523  0.00  0.00     0.289 A 
HETATM   16  N   UNK N   1      31.256  16.757   4.949  0.00  0.00    -0.372 N 
HETATM   17  N   UNK N   1      32.762  17.549   6.658  0.00  0.00    -0.175 N 
HETATM   18  C   UNK N   1      29.957  16.234   4.560  0.00  0.00     0.148 C 
HETATM   19  H   UNK N   1      31.971  16.824   4.276  0.00  0.00     0.161 HD
HETATM   20  C   UNK N   1      33.017  17.937   7.938  0.00  0.00     0.680 A 
HETATM   21  H   UNK N   1      33.492  17.542   5.998  0.00  0.00     0.186 HD
HETATM   22  N   UNK N   1      32.018  17.954   8.862  0.00  0.00    -0.154 N 
HETATM   23  N   UNK N   1      34.320  18.318   8.307  0.00  0.00    -0.234 N 
ATOM     24  HN  UNK N   1      32.220  18.247   9.818  1.00  0.00     0.187 HD
HETATM   25  H   UNK N   1      34.541  18.673   9.198  0.00  0.00     0.174 HD
HETATM   26  H   UNK N   1      35.043  18.226   7.645  0.00  0.00     0.174 HD
HETATM   27  O   UNK N   1      29.857  17.616   9.357  0.00  0.00    -0.265 OA
ENDBRANCH   9  10
ENDBRANCH   7   9
ENDBRANCH   1   7
BRANCH   4  28
HETATM   28  C   UNK N   1      22.610  20.255   3.096  0.00  0.00     0.252 C 
HETATM   29  O   UNK N   1      22.440  21.394   2.688  0.00  0.00    -0.268 OA
HETATM   30  N   UNK N   1      21.612  19.336   3.035  0.00  0.00    -0.343 N 
HETATM   31  H   UNK N   1      21.729  18.497   3.536  0.00  0.00     0.163 HD
BRANCH  30  32
HETATM   32  C   UNK N   1      20.386  19.507   2.281  0.00  0.00     0.183 C 
BRANCH  32  33
HETATM   33  C   UNK N   1      19.279  18.543   2.688  0.00  0.00     0.046 C 
BRANCH  33  34
HETATM   34  C   UNK N   1      19.894  17.505   3.615  0.00  0.00     0.112 C 
BRANCH  34  35
HETATM   35  C   UNK N   1      20.322  16.296   2.857  0.00  0.00     0.139 C 
HETATM   36  O   UNK N   1      21.509  16.078   2.680  0.00  0.00    -0.650 OA
BRANCH  35  37
HETATM   37  O   UNK N   1      19.403  15.432   2.388  0.00  0.00    -0.776 OA
HETATM   38  H   UNK N   1      19.401  14.500   2.296  0.00  0.00     0.167 HD
ENDBRANCH  35  37
ENDBRANCH  34  35
ENDBRANCH  33  34
ENDBRANCH  32  33
BRANCH  32  39
HETATM   39  C   UNK N   1      20.692  19.500   0.812  0.00  0.00     0.163 C 
HETATM   40  O   UNK N   1      20.685  18.442   0.201  0.00  0.00    -0.648 OA
BRANCH  39  41
HETATM   41  O   UNK N   1      20.999  20.639   0.163  0.00  0.00    -0.775 OA
HETATM   42  H   UNK N   1      21.588  20.805  -0.546  0.00  0.00     0.167 HD
ENDBRANCH  39  41
ENDBRANCH  32  39
ENDBRANCH  30  32
ENDBRANCH   4  28
TORSDOF 11
ENDMDL
MODEL 3
REMARK VINA RESULT:      -7.8      4.274      7.699
REMARK  11 active torsions:
REMARK  status: ('A' for Active; 'I' for Inactive)
REMARK    1  A    between atoms: O_3  and  C_32 
REMARK    2  A    between atoms: O_5  and  C_33 
REMARK    3  A    between atoms: N_9  and  C_17 
REMARK    4  A    between atoms: N_9  and  C_20 
REMARK    5  A    between atoms: C_23  and  N_13 
REMARK       I    between atoms: N_13  and  C_31 
REMARK       I    between atoms: N_14  and  C_22 
REMARK    6  A    between atoms: C_15  and  C_17 
REMARK    7  A    between atoms: C_23  and  C_24 
REMARK    8  A    between atoms: C_23  and  C_32 
REMARK    9  A    between atoms: C_24  and  C_30 
REMARK   10  A    between atoms: C_27  and  C_31 
REMARK   11  A    between atoms: C_30  and  C_33 
ROOT
HETATM    1  C   UNK N   1      31.830  15.600   7.250  0.00  0.00     0.028 A 
HETATM    2  C   UNK N   1      31.349  16.635   8.063  0.00  0.00     0.030 A 
HETATM    3  C   UNK N   1      31.168  15.281   6.065  0.00  0.00     0.030 A 
HETATM    4  C   UNK N   1      29.493  16.962   6.546  0.00  0.00     0.032 A 
HETATM    5  C   UNK N   1      30.175  17.301   7.722  0.00  0.00     0.019 A 
HETATM    6  C   UNK N   1      30.006  15.962   5.709  0.00  0.00     0.019 A 
ENDROOT
BRANCH   1   7
HETATM    7  N   UNK N   1      32.977  14.863   7.620  0.00  0.00    -0.388 N 
HETATM    8  H   UNK N   1      33.359  14.221   6.978  0.00  0.00     0.159 HD
BRANCH   7   9
HETATM    9  C   UNK N   1      33.605  15.022   8.907  0.00  0.00     0.146 C 
BRANCH   9  10
HETATM   10  C   UNK N   1      34.905  15.808   8.728  0.00  0.00     0.117 C 
HETATM   11  N   UNK N   1      36.024  14.973   9.121  0.00  0.00    -0.375 N 
HETATM   12  C   UNK N   1      36.254  14.727  10.494  0.00  0.00     0.142 A 
HETATM   13  H   UNK N   1      36.615  14.583   8.439  0.00  0.00     0.160 HD
HETATM   14  C   UNK N   1      35.722  15.604  11.440  0.00  0.00     0.149 A 
HETATM   15  C   UNK N   1      36.983  13.622  10.931  0.00  0.00     0.289 A 
HETATM   16  N   UNK N   1      34.987  16.740  11.008  0.00  0.00    -0.372 N 
HETATM   17  N   UNK N   1      35.920  15.375  12.763  0.00  0.00    -0.175 N 
HETATM   18  C   UNK N   1      34.869  17.070   9.597  0.00  0.00     0.148 C 
HETATM   19  H   UNK N   1      34.549  17.315  11.676  0.00  0.00     0.161 HD
HETATM   20  C   UNK N   1      36.634  14.294  13.182  0.00  0.00     0.680 A 
HETATM   21  H   UNK N   1      35.542  15.995  13.427  0.00  0.00     0.186 HD
HETATM   22  N   UNK N   1      37.160  13.425  12.277  0.00  0.00    -0.154 N 
HETATM   23  N   UNK N   1      36.831  14.077  14.559  0.00  0.00    -0.234 N 
ATOM     24  HN  UNK N   1      37.693  12.619  12.603  1.00  0.00     0.187 HD
HETATM   25  H   UNK N   1      37.278  13.276  14.915  0.00  0.00     0.174 HD
HETATM   26  H   UNK N   1      36.508  14.757  15.194  0.00  0.00     0.174 HD
HETATM   27  O   UNK N   1      37.447  12.827  10.134  0.00  0.00    -0.265 OA
ENDBRANCH   9  10
ENDBRANCH   7   9
ENDBRANCH   1   7
BRANCH   4  28
HETATM   28  C   UNK N   1      28.146  17.490   6.301  0.00  0.00     0.252 C 
HETATM   29  O   UNK N   1      27.198  17.037   6.924  0.00  0.00    -0.268 OA
HETATM   30  N   UNK N   1      28.007  18.598   5.528  0.00  0.00    -0.343 N 
HETATM   31  H   UNK N   1      28.737  18.818   4.906  0.00  0.00     0.163 HD
BRANCH  30  32
HETATM   32  C   UNK N   1      26.856  19.479   5.558  0.00  0.00     0.183 C 
BRANCH  32  33
HETATM   33  C   UNK N   1      26.499  20.063   4.198  0.00  0.00     0.046 C 
BRANCH  33  34
HETATM   34  C   UNK N   1      25.039  19.730   3.927  0.00  0.00     0.112 C 
BRANCH  34  35
HETATM   35  C   UNK N   1      24.490  20.578   2.832  0.00  0.00     0.139 C 
HETATM   36  O   UNK N   1      25.149  20.768   1.823  0.00  0.00    -0.650 OA
BRANCH  35  37
HETATM   37  O   UNK N   1      23.261  21.114   2.943  0.00  0.00    -0.776 OA
HETATM   38  H   UNK N   1      22.500  20.856   3.426  0.00  0.00     0.167 HD
ENDBRANCH  35  37
ENDBRANCH  34  35
ENDBRANCH  33  34
ENDBRANCH  32  33
BRANCH  32  39
HETATM   39  C   UNK N   1      27.036  20.506   6.636  0.00  0.00     0.163 C 
HETATM   40  O   UNK N   1      27.399  21.634   6.338  0.00  0.00    -0.648 OA
BRANCH  39  41
HETATM   41  O   UNK N   1      26.828  20.196   7.930  0.00  0.00    -0.775 OA
HETATM   42  H   UNK N   1      27.014  19.416   8.415  0.00  0.00     0.167 HD
ENDBRANCH  39  41
ENDBRANCH  32  39
ENDBRANCH  30  32
ENDBRANCH   4  28
TORSDOF 11
ENDMDL
MODEL 4
REMARK VINA RESULT:      -7.8      4.709      8.016
REMARK  11 active torsions:
REMARK  status: ('A' for Active; 'I' for Inactive)
REMARK    1  A    between atoms: O_3  and  C_32 
REMARK    2  A    between atoms: O_5  and  C_33 
REMARK    3  A    between atoms: N_9  and  C_17 
REMARK    4  A    between atoms: N_9  and  C_20 
REMARK    5  A    between atoms: C_23  and  N_13 
REMARK       I    between atoms: N_13  and  C_31 
REMARK       I    between atoms: N_14  and  C_22 
REMARK    6  A    between atoms: C_15  and  C_17 
REMARK    7  A    between atoms: C_23  and  C_24 
REMARK    8  A    between atoms: C_23  and  C_32 
REMARK    9  A    between atoms: C_24  and  C_30 
REMARK   10  A    between atoms: C_27  and  C_31 
REMARK   11  A    between atoms: C_30  and  C_33 
ROOT
HETATM    1  C   UNK N   1      32.060  17.202   7.648  0.00  0.00     0.028 A 
HETATM    2  C   UNK N   1      31.672  16.706   6.396  0.00  0.00     0.030 A 
HETATM    3  C   UNK N   1      31.113  17.793   8.485  0.00  0.00     0.030 A 
HETATM    4  C   UNK N   1      29.413  17.478   6.790  0.00  0.00     0.032 A 
HETATM    5  C   UNK N   1      30.359  16.859   5.961  0.00  0.00     0.019 A 
HETATM    6  C   UNK N   1      29.793  17.927   8.062  0.00  0.00     0.019 A 
ENDROOT
BRANCH   1   7
HETATM    7  N   UNK N   1      33.403  17.124   8.073  0.00  0.00    -0.388 N 
HETATM    8  H   UNK N   1      34.112  17.475   7.486  0.00  0.00     0.159 HD
BRANCH   7   9
HETATM    9  C   UNK N   1      33.770  16.546   9.342  0.00  0.00     0.146 C 
BRANCH   9  10
HETATM   10  C   UNK N   1      33.290  15.095   9.381  0.00  0.00     0.117 C 
HETATM   11  N   UNK N   1      33.774  14.465  10.594  0.00  0.00    -0.375 N 
HETATM   12  C   UNK N   1      35.140  14.113  10.694  0.00  0.00     0.142 A 
HETATM   13  H   UNK N   1      33.158  14.287  11.341  0.00  0.00     0.160 HD
HETATM   14  C   UNK N   1      35.886  13.953   9.525  0.00  0.00     0.149 A 
HETATM   15  C   UNK N   1      35.767  13.938  11.926  0.00  0.00     0.289 A 
HETATM   16  N   UNK N   1      35.257  14.118   8.263  0.00  0.00    -0.372 N 
HETATM   17  N   UNK N   1      37.202  13.629   9.602  0.00  0.00    -0.175 N 
HETATM   18  C   UNK N   1      33.824  14.341   8.158  0.00  0.00     0.148 C 
HETATM   19  H   UNK N   1      35.801  14.079   7.443  0.00  0.00     0.161 HD
HETATM   20  C   UNK N   1      37.807  13.459  10.809  0.00  0.00     0.680 A 
HETATM   21  H   UNK N   1      37.725  13.519   8.776  0.00  0.00     0.186 HD
HETATM   22  N   UNK N   1      37.098  13.612  11.961  0.00  0.00    -0.154 N 
HETATM   23  N   UNK N   1      39.172  13.119  10.866  0.00  0.00    -0.234 N 
ATOM     24  HN  UNK N   1      37.563  13.482  12.859  1.00  0.00     0.187 HD
HETATM   25  H   UNK N   1      39.672  13.054  11.711  0.00  0.00     0.174 HD
HETATM   26  H   UNK N   1      39.648  12.939  10.023  0.00  0.00     0.174 HD
HETATM   27  O   UNK N   1      35.150  14.086  12.965  0.00  0.00    -0.265 OA
ENDBRANCH   9  10
ENDBRANCH   7   9
ENDBRANCH   1   7
BRANCH   4  28
HETATM   28  C   UNK N   1      28.099  17.851   6.253  0.00  0.00     0.252 C 
HETATM   29  O   UNK N   1      27.154  17.090   6.393  0.00  0.00    -0.268 OA
HETATM   30  N   UNK N   1      27.916  19.111   5.783  0.00  0.00    -0.343 N 
HETATM   31  H   UNK N   1      28.714  19.621   5.515  0.00  0.00     0.163 HD
BRANCH  30  32
HETATM   32  C   UNK N   1      26.626  19.757   5.650  0.00  0.00     0.183 C 
BRANCH  32  33
HETATM   33  C   UNK N   1      26.258  20.100   4.213  0.00  0.00     0.046 C 
BRANCH  33  34
HETATM   34  C   UNK N   1      24.761  19.875   4.058  0.00  0.00     0.112 C 
BRANCH  34  35
HETATM   35  C   UNK N   1      24.222  20.636   2.896  0.00  0.00     0.139 C 
HETATM   36  O   UNK N   1      24.918  20.809   1.908  0.00  0.00    -0.650 OA
BRANCH  35  37
HETATM   37  O   UNK N   1      22.965  21.112   2.924  0.00  0.00    -0.776 OA
HETATM   38  H   UNK N   1      22.495  21.620   3.556  0.00  0.00     0.167 HD
ENDBRANCH  35  37
ENDBRANCH  34  35
ENDBRANCH  33  34
ENDBRANCH  32  33
BRANCH  32  39
HETATM   39  C   UNK N   1      26.544  20.920   6.596  0.00  0.00     0.163 C 
HETATM   40  O   UNK N   1      26.871  22.032   6.211  0.00  0.00    -0.648 OA
BRANCH  39  41
HETATM   41  O   UNK N   1      26.141  20.750   7.869  0.00  0.00    -0.775 OA
HETATM   42  H   UNK N   1      26.356  20.094   8.502  0.00  0.00     0.167 HD
ENDBRANCH  39  41
ENDBRANCH  32  39
ENDBRANCH  30  32
ENDBRANCH   4  28
TORSDOF 11
ENDMDL
MODEL 5
REMARK VINA RESULT:      -7.7      9.042     15.673
REMARK  11 active torsions:
REMARK  status: ('A' for Active; 'I' for Inactive)
REMARK    1  A    between atoms: O_3  and  C_32 
REMARK    2  A    between atoms: O_5  and  C_33 
REMARK    3  A    between atoms: N_9  and  C_17 
REMARK    4  A    between atoms: N_9  and  C_20 
REMARK    5  A    between atoms: C_23  and  N_13 
REMARK       I    between atoms: N_13  and  C_31 
REMARK       I    between atoms: N_14  and  C_22 
REMARK    6  A    between atoms: C_15  and  C_17 
REMARK    7  A    between atoms: C_23  and  C_24 
REMARK    8  A    between atoms: C_23  and  C_32 
REMARK    9  A    between atoms: C_24  and  C_30 
REMARK   10  A    between atoms: C_27  and  C_31 
REMARK   11  A    between atoms: C_30  and  C_33 
ROOT
HETATM    1  C   UNK N   1      25.063  20.063   3.603  0.00  0.00     0.028 A 
HETATM    2  C   UNK N   1      24.908  18.927   4.410  0.00  0.00     0.030 A 
HETATM    3  C   UNK N   1      26.339  20.558   3.335  0.00  0.00     0.030 A 
HETATM    4  C   UNK N   1      27.302  18.847   4.753  0.00  0.00     0.032 A 
HETATM    5  C   UNK N   1      26.022  18.333   4.997  0.00  0.00     0.019 A 
HETATM    6  C   UNK N   1      27.457  19.951   3.903  0.00  0.00     0.019 A 
ENDROOT
BRANCH   1   7
HETATM    7  N   UNK N   1      23.939  20.724   3.061  0.00  0.00    -0.388 N 
HETATM    8  H   UNK N   1      23.856  21.699   3.178  0.00  0.00     0.159 HD
BRANCH   7   9
HETATM    9  C   UNK N   1      22.910  20.017   2.342  0.00  0.00     0.146 C 
BRANCH   9  10
HETATM   10  C   UNK N   1      21.544  20.497   2.836  0.00  0.00     0.117 C 
HETATM   11  N   UNK N   1      21.092  19.627   3.905  0.00  0.00    -0.375 N 
HETATM   12  C   UNK N   1      20.625  18.330   3.590  0.00  0.00     0.142 A 
HETATM   13  H   UNK N   1      21.111  19.937   4.838  0.00  0.00     0.160 HD
HETATM   14  C   UNK N   1      20.187  18.063   2.292  0.00  0.00     0.149 A 
HETATM   15  C   UNK N   1      20.606  17.305   4.535  0.00  0.00     0.289 A 
HETATM   16  N   UNK N   1      20.190  19.100   1.323  0.00  0.00    -0.372 N 
HETATM   17  N   UNK N   1      19.749  16.819   1.968  0.00  0.00    -0.175 N 
HETATM   18  C   UNK N   1      20.537  20.466   1.681  0.00  0.00     0.148 C 
HETATM   19  H   UNK N   1      19.953  18.892   0.390  0.00  0.00     0.161 HD
HETATM   20  C   UNK N   1      19.733  15.824   2.896  0.00  0.00     0.680 A 
HETATM   21  H   UNK N   1      19.442  16.634   1.052  0.00  0.00     0.186 HD
HETATM   22  N   UNK N   1      20.157  16.063   4.167  0.00  0.00    -0.154 N 
HETATM   23  N   UNK N   1      19.271  14.543   2.541  0.00  0.00    -0.234 N 
ATOM     24  HN  UNK N   1      20.141  15.309   4.854  1.00  0.00     0.187 HD
HETATM   25  H   UNK N   1      19.305  13.773   3.154  0.00  0.00     0.174 HD
HETATM   26  H   UNK N   1      18.898  14.410   1.639  0.00  0.00     0.174 HD
HETATM   27  O   UNK N   1      20.996  17.499   5.671  0.00  0.00    -0.265 OA
ENDBRANCH   9  10
ENDBRANCH   7   9
ENDBRANCH   1   7
BRANCH   4  28
HETATM   28  C   UNK N   1      28.445  18.377   5.544  0.00  0.00     0.252 C 
HETATM   29  O   UNK N   1      29.553  18.331   5.033  0.00  0.00    -0.268 OA
HETATM   30  N   UNK N   1      28.283  18.185   6.879  0.00  0.00    -0.343 N 
HETATM   31  H   UNK N   1      27.369  18.049   7.215  0.00  0.00     0.163 HD
BRANCH  30  32
HETATM   32  C   UNK N   1      29.366  18.169   7.841  0.00  0.00     0.183 C 
BRANCH  32  33
HETATM   33  C   UNK N   1      30.295  16.970   7.696  0.00  0.00     0.046 C 
BRANCH  33  34
HETATM   34  C   UNK N   1      31.719  17.470   7.888  0.00  0.00     0.112 C 
BRANCH  34  35
HETATM   35  C   UNK N   1      32.492  17.387   6.617  0.00  0.00     0.139 C 
HETATM   36  O   UNK N   1      33.603  17.888   6.548  0.00  0.00    -0.650 OA
BRANCH  35  37
HETATM   37  O   UNK N   1      31.978  16.742   5.555  0.00  0.00    -0.776 OA
HETATM   38  H   UNK N   1      31.775  17.022   4.684  0.00  0.00     0.167 HD
ENDBRANCH  35  37
ENDBRANCH  34  35
ENDBRANCH  33  34
ENDBRANCH  32  33
BRANCH  32  39
HETATM   39  C   UNK N   1      28.815  18.351   9.225  0.00  0.00     0.163 C 
HETATM   40  O   UNK N   1      29.551  18.737  10.120  0.00  0.00    -0.648 OA
BRANCH  39  41
HETATM   41  O   UNK N   1      27.528  18.068   9.500  0.00  0.00    -0.775 OA
HETATM   42  H   UNK N   1      26.977  17.364   9.220  0.00  0.00     0.167 HD
ENDBRANCH  39  41
ENDBRANCH  32  39
ENDBRANCH  30  32
ENDBRANCH   4  28
TORSDOF 11
ENDMDL
MODEL 6
REMARK VINA RESULT:      -7.5      3.286     11.064
REMARK  11 active torsions:
REMARK  status: ('A' for Active; 'I' for Inactive)
REMARK    1  A    between atoms: O_3  and  C_32 
REMARK    2  A    between atoms: O_5  and  C_33 
REMARK    3  A    between atoms: N_9  and  C_17 
REMARK    4  A    between atoms: N_9  and  C_20 
REMARK    5  A    between atoms: C_23  and  N_13 
REMARK       I    between atoms: N_13  and  C_31 
REMARK       I    between atoms: N_14  and  C_22 
REMARK    6  A    between atoms: C_15  and  C_17 
REMARK    7  A    between atoms: C_23  and  C_24 
REMARK    8  A    between atoms: C_23  and  C_32 
REMARK    9  A    between atoms: C_24  and  C_30 
REMARK   10  A    between atoms: C_27  and  C_31 
REMARK   11  A    between atoms: C_30  and  C_33 
ROOT
HETATM    1  C   UNK N   1      36.373  13.001  15.513  0.00  0.00     0.028 A 
HETATM    2  C   UNK N   1      36.741  11.654  15.399  0.00  0.00     0.030 A 
HETATM    3  C   UNK N   1      35.625  13.428  16.611  0.00  0.00     0.030 A 
HETATM    4  C   UNK N   1      35.530  11.153  17.433  0.00  0.00     0.032 A 
HETATM    5  C   UNK N   1      36.306  10.731  16.345  0.00  0.00     0.019 A 
HETATM    6  C   UNK N   1      35.208  12.509  17.571  0.00  0.00     0.019 A 
ENDROOT
BRANCH   1   7
HETATM    7  N   UNK N   1      36.741  13.939  14.523  0.00  0.00    -0.388 N 
HETATM    8  H   UNK N   1      37.616  14.385  14.590  0.00  0.00     0.159 HD
BRANCH   7   9
HETATM    9  C   UNK N   1      35.874  14.262  13.418  0.00  0.00     0.146 C 
BRANCH   9  10
HETATM   10  C   UNK N   1      36.604  13.952  12.111  0.00  0.00     0.117 C 
HETATM   11  N   UNK N   1      36.490  15.090  11.219  0.00  0.00    -0.375 N 
HETATM   12  C   UNK N   1      35.256  15.345  10.577  0.00  0.00     0.142 A 
HETATM   13  H   UNK N   1      37.263  15.679  11.065  0.00  0.00     0.160 HD
HETATM   14  C   UNK N   1      34.335  14.306  10.441  0.00  0.00     0.149 A 
HETATM   15  C   UNK N   1      34.926  16.610  10.092  0.00  0.00     0.289 A 
HETATM   16  N   UNK N   1      34.662  13.010  10.921  0.00  0.00    -0.372 N 
HETATM   17  N   UNK N   1      33.139  14.536   9.840  0.00  0.00    -0.175 N 
HETATM   18  C   UNK N   1      35.982  12.714  11.453  0.00  0.00     0.148 C 
HETATM   19  H   UNK N   1      33.983  12.298  10.892  0.00  0.00     0.161 HD
HETATM   20  C   UNK N   1      32.825  15.773   9.368  0.00  0.00     0.680 A 
HETATM   21  H   UNK N   1      32.492  13.801   9.747  0.00  0.00     0.186 HD
HETATM   22  N   UNK N   1      33.708  16.801   9.492  0.00  0.00    -0.154 N 
HETATM   23  N   UNK N   1      31.581  15.989   8.745  0.00  0.00    -0.234 N 
ATOM     24  HN  UNK N   1      33.461  17.724   9.135  1.00  0.00     0.187 HD
HETATM   25  H   UNK N   1      31.278  16.878   8.450  0.00  0.00     0.174 HD
HETATM   26  H   UNK N   1      30.988  15.217   8.597  0.00  0.00     0.174 HD
HETATM   27  O   UNK N   1      35.700  17.542  10.209  0.00  0.00    -0.265 OA
ENDBRANCH   9  10
ENDBRANCH   7   9
ENDBRANCH   1   7
BRANCH   4  28
HETATM   28  C   UNK N   1      34.877  10.162  18.297  0.00  0.00     0.252 C 
HETATM   29  O   UNK N   1      34.617   9.055  17.855  0.00  0.00    -0.268 OA
HETATM   30  N   UNK N   1      34.751  10.432  19.622  0.00  0.00    -0.343 N 
HETATM   31  H   UNK N   1      34.792  11.373  19.906  0.00  0.00     0.163 HD
BRANCH  30  32
HETATM   32  C   UNK N   1      34.560   9.426  20.648  0.00  0.00     0.183 C 
BRANCH  32  33
HETATM   33  C   UNK N   1      33.158   9.417  21.242  0.00  0.00     0.046 C 
BRANCH  33  34
HETATM   34  C   UNK N   1      33.007  10.681  22.077  0.00  0.00     0.112 C 
BRANCH  34  35
HETATM   35  C   UNK N   1      32.765  10.351  23.510  0.00  0.00     0.139 C 
HETATM   36  O   UNK N   1      31.844   9.612  23.816  0.00  0.00    -0.650 OA
BRANCH  35  37
HETATM   37  O   UNK N   1      33.574  10.848  24.463  0.00  0.00    -0.776 OA
HETATM   38  H   UNK N   1      33.433  11.055  25.366  0.00  0.00     0.167 HD
ENDBRANCH  35  37
ENDBRANCH  34  35
ENDBRANCH  33  34
ENDBRANCH  32  33
BRANCH  32  39
HETATM   39  C   UNK N   1      35.655   9.532  21.669  0.00  0.00     0.163 C 
HETATM   40  O   UNK N   1      35.758   8.672  22.531  0.00  0.00    -0.648 OA
BRANCH  39  41
HETATM   41  O   UNK N   1      36.508  10.573  21.664  0.00  0.00    -0.775 OA
HETATM   42  H   UNK N   1      37.439  10.608  21.762  0.00  0.00     0.167 HD
ENDBRANCH  39  41
ENDBRANCH  32  39
ENDBRANCH  30  32
ENDBRANCH   4  28
TORSDOF 11
ENDMDL
MODEL 7
REMARK VINA RESULT:      -7.4      3.487     10.746
REMARK  11 active torsions:
REMARK  status: ('A' for Active; 'I' for Inactive)
REMARK    1  A    between atoms: O_3  and  C_32 
REMARK    2  A    between atoms: O_5  and  C_33 
REMARK    3  A    between atoms: N_9  and  C_17 
REMARK    4  A    between atoms: N_9  and  C_20 
REMARK    5  A    between atoms: C_23  and  N_13 
REMARK       I    between atoms: N_13  and  C_31 
REMARK       I    between atoms: N_14  and  C_22 
REMARK    6  A    between atoms: C_15  and  C_17 
REMARK    7  A    between atoms: C_23  and  C_24 
REMARK    8  A    between atoms: C_23  and  C_32 
REMARK    9  A    between atoms: C_24  and  C_30 
REMARK   10  A    between atoms: C_27  and  C_31 
REMARK   11  A    between atoms: C_30  and  C_33 
ROOT
HETATM    1  C   UNK N   1      36.612  13.136  15.183  0.00  0.00     0.028 A 
HETATM    2  C   UNK N   1      37.053  11.817  15.012  0.00  0.00     0.030 A 
HETATM    3  C   UNK N   1      35.811  13.466  16.277  0.00  0.00     0.030 A 
HETATM    4  C   UNK N   1      35.812  11.149  16.979  0.00  0.00     0.032 A 
HETATM    5  C   UNK N   1      36.640  10.824  15.896  0.00  0.00     0.019 A 
HETATM    6  C   UNK N   1      35.416  12.478  17.176  0.00  0.00     0.019 A 
ENDROOT
BRANCH   1   7
HETATM    7  N   UNK N   1      36.958  14.141  14.254  0.00  0.00    -0.388 N 
HETATM    8  H   UNK N   1      37.853  14.549  14.302  0.00  0.00     0.159 HD
BRANCH   7   9
HETATM    9  C   UNK N   1      36.040  14.589  13.236  0.00  0.00     0.146 C 
BRANCH   9  10
HETATM   10  C   UNK N   1      36.583  14.177  11.867  0.00  0.00     0.117 C 
HETATM   11  N   UNK N   1      36.451  15.290  10.947  0.00  0.00    -0.375 N 
HETATM   12  C   UNK N   1      35.172  15.623  10.442  0.00  0.00     0.142 A 
HETATM   13  H   UNK N   1      37.242  15.808  10.678  0.00  0.00     0.160 HD
HETATM   14  C   UNK N   1      34.164  14.658  10.459  0.00  0.00     0.149 A 
HETATM   15  C   UNK N   1      34.885  16.893   9.945  0.00  0.00     0.289 A 
HETATM   16  N   UNK N   1      34.446  13.357  10.953  0.00  0.00    -0.372 N 
HETATM   17  N   UNK N   1      32.927  14.964   9.993  0.00  0.00    -0.175 N 
HETATM   18  C   UNK N   1      35.794  12.973  11.340  0.00  0.00     0.148 C 
HETATM   19  H   UNK N   1      33.716  12.701  11.034  0.00  0.00     0.161 HD
HETATM   20  C   UNK N   1      32.654  16.206   9.508  0.00  0.00     0.680 A 
HETATM   21  H   UNK N   1      32.218  14.281  10.007  0.00  0.00     0.186 HD
HETATM   22  N   UNK N   1      33.622  17.162   9.484  0.00  0.00    -0.154 N 
HETATM   23  N   UNK N   1      31.365  16.501   9.025  0.00  0.00    -0.234 N 
ATOM     24  HN  UNK N   1      33.406  18.090   9.119  1.00  0.00     0.187 HD
HETATM   25  H   UNK N   1      31.098  17.402   8.730  0.00  0.00     0.174 HD
HETATM   26  H   UNK N   1      30.701  15.775   8.981  0.00  0.00     0.174 HD
HETATM   27  O   UNK N   1      35.736  17.763   9.931  0.00  0.00    -0.265 OA
ENDBRANCH   9  10
ENDBRANCH   7   9
ENDBRANCH   1   7
BRANCH   4  28
HETATM   28  C   UNK N   1      35.189  10.083  17.771  0.00  0.00     0.252 C 
HETATM   29  O   UNK N   1      35.089   8.961  17.299  0.00  0.00    -0.268 OA
HETATM   30  N   UNK N   1      34.910  10.317  19.080  0.00  0.00    -0.343 N 
HETATM   31  H   UNK N   1      34.825  11.253  19.371  0.00  0.00     0.163 HD
BRANCH  30  32
HETATM   32  C   UNK N   1      34.729   9.280  20.077  0.00  0.00     0.183 C 
BRANCH  32  33
HETATM   33  C   UNK N   1      33.356   9.298  20.735  0.00  0.00     0.046 C 
BRANCH  33  34
HETATM   34  C   UNK N   1      32.399   8.550  19.818  0.00  0.00     0.112 C 
BRANCH  34  35
HETATM   35  C   UNK N   1      31.264   7.968  20.586  0.00  0.00     0.139 C 
HETATM   36  O   UNK N   1      31.461   7.490  21.692  0.00  0.00    -0.650 OA
BRANCH  35  37
HETATM   37  O   UNK N   1      30.020   7.989  20.075  0.00  0.00    -0.776 OA
HETATM   38  H   UNK N   1      29.688   8.219  19.230  0.00  0.00     0.167 HD
ENDBRANCH  35  37
ENDBRANCH  34  35
ENDBRANCH  33  34
ENDBRANCH  32  33
BRANCH  32  39
HETATM   39  C   UNK N   1      35.873   9.310  21.048  0.00  0.00     0.163 C 
HETATM   40  O   UNK N   1      36.713   8.424  21.014  0.00  0.00    -0.648 OA
BRANCH  39  41
HETATM   41  O   UNK N   1      35.970  10.283  21.974  0.00  0.00    -0.775 OA
HETATM   42  H   UNK N   1      35.332  10.879  22.311  0.00  0.00     0.167 HD
ENDBRANCH  39  41
ENDBRANCH  32  39
ENDBRANCH  30  32
ENDBRANCH   4  28
TORSDOF 11
ENDMDL
MODEL 8
REMARK VINA RESULT:      -7.3      6.485     11.294
REMARK  11 active torsions:
REMARK  status: ('A' for Active; 'I' for Inactive)
REMARK    1  A    between atoms: O_3  and  C_32 
REMARK    2  A    between atoms: O_5  and  C_33 
REMARK    3  A    between atoms: N_9  and  C_17 
REMARK    4  A    between atoms: N_9  and  C_20 
REMARK    5  A    between atoms: C_23  and  N_13 
REMARK       I    between atoms: N_13  and  C_31 
REMARK       I    between atoms: N_14  and  C_22 
REMARK    6  A    between atoms: C_15  and  C_17 
REMARK    7  A    between atoms: C_23  and  C_24 
REMARK    8  A    between atoms: C_23  and  C_32 
REMARK    9  A    between atoms: C_24  and  C_30 
REMARK   10  A    between atoms: C_27  and  C_31 
REMARK   11  A    between atoms: C_30  and  C_33 
ROOT
HETATM    1  C   UNK N   1      28.253  17.009   5.006  0.00  0.00     0.028 A 
HETATM    2  C   UNK N   1      27.330  16.329   5.812  0.00  0.00     0.030 A 
HETATM    3  C   UNK N   1      27.803  17.908   4.038  0.00  0.00     0.030 A 
HETATM    4  C   UNK N   1      25.511  17.382   4.614  0.00  0.00     0.032 A 
HETATM    5  C   UNK N   1      25.965  16.501   5.605  0.00  0.00     0.019 A 
HETATM    6  C   UNK N   1      26.436  18.099   3.845  0.00  0.00     0.019 A 
ENDROOT
BRANCH   1   7
HETATM    7  N   UNK N   1      29.640  16.789   5.150  0.00  0.00    -0.388 N 
HETATM    8  H   UNK N   1      30.232  16.952   4.380  0.00  0.00     0.159 HD
BRANCH   7   9
HETATM    9  C   UNK N   1      30.217  16.334   6.390  0.00  0.00     0.146 C 
BRANCH   9  10
HETATM   10  C   UNK N   1      30.800  17.536   7.134  0.00  0.00     0.117 C 
HETATM   11  N   UNK N   1      32.243  17.401   7.200  0.00  0.00    -0.375 N 
HETATM   12  C   UNK N   1      32.809  16.459   8.090  0.00  0.00     0.142 A 
HETATM   13  H   UNK N   1      32.820  17.958   6.630  0.00  0.00     0.160 HD
HETATM   14  C   UNK N   1      32.055  16.012   9.175  0.00  0.00     0.149 A 
HETATM   15  C   UNK N   1      34.094  15.951   7.903  0.00  0.00     0.289 A 
HETATM   16  N   UNK N   1      30.749  16.530   9.382  0.00  0.00    -0.372 N 
HETATM   17  N   UNK N   1      32.577  15.097  10.031  0.00  0.00    -0.175 N 
HETATM   18  C   UNK N   1      30.220  17.599   8.551  0.00  0.00     0.148 C 
HETATM   19  H   UNK N   1      30.190  16.158  10.103  0.00  0.00     0.161 HD
HETATM   20  C   UNK N   1      33.832  14.606   9.844  0.00  0.00     0.680 A 
HETATM   21  H   UNK N   1      32.041  14.784  10.795  0.00  0.00     0.186 HD
HETATM   22  N   UNK N   1      34.584  15.027   8.791  0.00  0.00    -0.154 N 
HETATM   23  N   UNK N   1      34.356  13.661  10.746  0.00  0.00    -0.234 N 
ATOM     24  HN  UNK N   1      35.524  14.652   8.660  1.00  0.00     0.187 HD
HETATM   25  H   UNK N   1      35.228  13.224  10.615  0.00  0.00     0.174 HD
HETATM   26  H   UNK N   1      33.826  13.426  11.542  0.00  0.00     0.174 HD
HETATM   27  O   UNK N   1      34.773  16.306   6.958  0.00  0.00    -0.265 OA
ENDBRANCH   9  10
ENDBRANCH   7   9
ENDBRANCH   1   7
BRANCH   4  28
HETATM   28  C   UNK N   1      24.093  17.393   4.235  0.00  0.00     0.252 C 
HETATM   29  O   UNK N   1      23.642  16.480   3.562  0.00  0.00    -0.268 OA
HETATM   30  N   UNK N   1      23.271  18.316   4.799  0.00  0.00    -0.343 N 
HETATM   31  H   UNK N   1      23.681  19.128   5.174  0.00  0.00     0.163 HD
BRANCH  30  32
HETATM   32  C   UNK N   1      21.830  18.184   4.888  0.00  0.00     0.183 C 
BRANCH  32  33
HETATM   33  C   UNK N   1      21.071  19.339   4.249  0.00  0.00     0.046 C 
BRANCH  33  34
HETATM   34  C   UNK N   1      21.160  19.166   2.740  0.00  0.00     0.112 C 
BRANCH  34  35
HETATM   35  C   UNK N   1      21.582  20.432   2.078  0.00  0.00     0.139 C 
HETATM   36  O   UNK N   1      22.110  21.314   2.736  0.00  0.00    -0.650 OA
BRANCH  35  37
HETATM   37  O   UNK N   1      21.403  20.596   0.755  0.00  0.00    -0.776 OA
HETATM   38  H   UNK N   1      20.703  20.360   0.178  0.00  0.00     0.167 HD
ENDBRANCH  35  37
ENDBRANCH  34  35
ENDBRANCH  33  34
ENDBRANCH  32  33
BRANCH  32  39
HETATM   39  C   UNK N   1      21.435  17.905   6.308  0.00  0.00     0.163 C 
HETATM   40  O   UNK N   1      20.985  18.808   6.996  0.00  0.00    -0.648 OA
BRANCH  39  41
HETATM   41  O   UNK N   1      21.595  16.680   6.843  0.00  0.00    -0.775 OA
HETATM   42  H   UNK N   1      21.680  15.838   6.442  0.00  0.00     0.167 HD
ENDBRANCH  39  41
ENDBRANCH  32  39
ENDBRANCH  30  32
ENDBRANCH   4  28
TORSDOF 11
ENDMDL
MODEL 9
REMARK VINA RESULT:      -7.3      9.410     15.895
REMARK  11 active torsions:
REMARK  status: ('A' for Active; 'I' for Inactive)
REMARK    1  A    between atoms: O_3  and  C_32 
REMARK    2  A    between atoms: O_5  and  C_33 
REMARK    3  A    between atoms: N_9  and  C_17 
REMARK    4  A    between atoms: N_9  and  C_20 
REMARK    5  A    between atoms: C_23  and  N_13 
REMARK       I    between atoms: N_13  and  C_31 
REMARK       I    between atoms: N_14  and  C_22 
REMARK    6  A    between atoms: C_15  and  C_17 
REMARK    7  A    between atoms: C_23  and  C_24 
REMARK    8  A    between atoms: C_23  and  C_32 
REMARK    9  A    between atoms: C_24  and  C_30 
REMARK   10  A    between atoms: C_27  and  C_31 
REMARK   11  A    between atoms: C_30  and  C_33 
ROOT
HETATM    1  C   UNK N   1      25.398  19.899   3.810  0.00  0.00     0.028 A 
HETATM    2  C   UNK N   1      25.627  18.569   3.430  0.00  0.00     0.030 A 
HETATM    3  C   UNK N   1      26.393  20.613   4.478  0.00  0.00     0.030 A 
HETATM    4  C   UNK N   1      27.809  18.649   4.474  0.00  0.00     0.032 A 
HETATM    5  C   UNK N   1      26.820  17.942   3.777  0.00  0.00     0.019 A 
HETATM    6  C   UNK N   1      27.597  19.994   4.806  0.00  0.00     0.019 A 
ENDROOT
BRANCH   1   7
HETATM    7  N   UNK N   1      24.165  20.528   3.534  0.00  0.00    -0.388 N 
HETATM    8  H   UNK N   1      23.978  21.409   3.934  0.00  0.00     0.159 HD
BRANCH   7   9
HETATM    9  C   UNK N   1      23.170  19.921   2.687  0.00  0.00     0.146 C 
BRANCH   9  10
HETATM   10  C   UNK N   1      21.787  20.414   3.117  0.00  0.00     0.117 C 
HETATM   11  N   UNK N   1      21.065  19.322   3.740  0.00  0.00    -0.375 N 
HETATM   12  C   UNK N   1      20.544  18.286   2.929  0.00  0.00     0.142 A 
HETATM   13  H   UNK N   1      20.939  19.302   4.715  0.00  0.00     0.160 HD
HETATM   14  C   UNK N   1      20.332  18.528   1.572  0.00  0.00     0.149 A 
HETATM   15  C   UNK N   1      20.254  17.024   3.445  0.00  0.00     0.289 A 
HETATM   16  N   UNK N   1      20.613  19.813   1.036  0.00  0.00    -0.372 N 
HETATM   17  N   UNK N   1      19.847  17.541   0.776  0.00  0.00    -0.175 N 
HETATM   18  C   UNK N   1      21.014  20.917   1.893  0.00  0.00     0.148 C 
HETATM   19  H   UNK N   1      20.534  19.960   0.065  0.00  0.00     0.161 HD
HETATM   20  C   UNK N   1      19.565  16.312   1.287  0.00  0.00     0.680 A 
HETATM   21  H   UNK N   1      19.700  17.716  -0.181  0.00  0.00     0.186 HD
HETATM   22  N   UNK N   1      19.766  16.054   2.608  0.00  0.00    -0.154 N 
HETATM   23  N   UNK N   1      19.059  15.304   0.445  0.00  0.00    -0.234 N 
ATOM     24  HN  UNK N   1      19.552  15.128   2.980  1.00  0.00     0.187 HD
HETATM   25  H   UNK N   1      18.905  14.380   0.750  0.00  0.00     0.174 HD
HETATM   26  H   UNK N   1      18.849  15.532  -0.489  0.00  0.00     0.174 HD
HETATM   27  O   UNK N   1      20.443  16.774   4.621  0.00  0.00    -0.265 OA
ENDBRANCH   9  10
ENDBRANCH   7   9
ENDBRANCH   1   7
BRANCH   4  28
HETATM   28  C   UNK N   1      28.959  17.936   5.042  0.00  0.00     0.252 C 
HETATM   29  O   UNK N   1      28.801  17.219   6.017  0.00  0.00    -0.268 OA
HETATM   30  N   UNK N   1      30.133  17.936   4.358  0.00  0.00    -0.343 N 
HETATM   31  H   UNK N   1      30.280  18.653   3.700  0.00  0.00     0.163 HD
BRANCH  30  32
HETATM   32  C   UNK N   1      31.182  16.952   4.532  0.00  0.00     0.183 C 
BRANCH  32  33
HETATM   33  C   UNK N   1      32.375  17.465   5.328  0.00  0.00     0.046 C 
BRANCH  33  34
HETATM   34  C   UNK N   1      32.445  16.660   6.617  0.00  0.00     0.112 C 
BRANCH  34  35
HETATM   35  C   UNK N   1      32.075  17.498   7.792  0.00  0.00     0.139 C 
HETATM   36  O   UNK N   1      32.949  18.011   8.471  0.00  0.00    -0.650 OA
BRANCH  35  37
HETATM   37  O   UNK N   1      30.780  17.708   8.092  0.00  0.00    -0.776 OA
HETATM   38  H   UNK N   1      30.122  17.158   8.469  0.00  0.00     0.167 HD
ENDBRANCH  35  37
ENDBRANCH  34  35
ENDBRANCH  33  34
ENDBRANCH  32  33
BRANCH  32  39
HETATM   39  C   UNK N   1      31.544  16.360   3.202  0.00  0.00     0.163 C 
HETATM   40  O   UNK N   1      31.561  15.146   3.069  0.00  0.00    -0.648 OA
BRANCH  39  41
HETATM   41  O   UNK N   1      31.876  17.146   2.161  0.00  0.00    -0.775 OA
HETATM   42  H   UNK N   1      32.291  16.947   1.345  0.00  0.00     0.167 HD
ENDBRANCH  39  41
ENDBRANCH  32  39
ENDBRANCH  30  32
ENDBRANCH   4  28
TORSDOF 11
ENDMDL
