MODEL 1
REMARK VINA RESULT:      -7.2      0.000      0.000
REMARK  8 active torsions:
REMARK  status: ('A' for Active; 'I' for Inactive)
REMARK    1  A    between atoms: C_6  and  C_8 
REMARK    2  A    between atoms: C_14  and  O_16 
REMARK    3  A    between atoms: C_24  and  C_18 
REMARK    4  A    between atoms: C_18  and  C_19 
REMARK    5  A    between atoms: C_19  and  C_20 
REMARK    6  A    between atoms: C_20  and  C_23 
REMARK    7  A    between atoms: C_23  and  C_28 
REMARK    8  A    between atoms: C_28  and  O_29 
ROOT
HETATM    1  C   UNK N   1      26.817  14.068   4.271  0.00  0.00     0.010 C 
HETATM    2  C   UNK N   1      25.192  16.528   4.336  0.00  0.00    -0.075 C 
HETATM    3  C   UNK N   1      27.423  17.777   3.929  0.00  0.00     0.010 C 
HETATM    4  C   UNK N   1      28.839  17.256   3.612  0.00  0.00     0.006 C 
HETATM    5  C   UNK N   1      25.264  14.026   4.324  0.00  0.00     0.005 C 
HETATM    6  C   UNK N   1      24.441  17.555   4.753  0.00  0.00     0.004 C 
HETATM    7  C   UNK N   1      24.570  15.280   3.749  0.00  0.00     0.034 C 
HETATM    8  C   UNK N   1      28.853  15.745   3.925  0.00  0.00    -0.002 C 
HETATM    9  C   UNK N   1      26.694  16.567   4.491  0.00  0.00     0.023 C 
HETATM   10  C   UNK N   1      27.358  15.408   3.750  0.00  0.00    -0.033 C 
HETATM   11  C   UNK N   1      27.058  15.444   2.232  0.00  0.00     0.016 C 
ENDROOT
BRANCH   6  12
HETATM   12  C   UNK N   1      22.973  17.557   4.613  0.00  0.00     0.008 C 
HETATM   13  C   UNK N   1      22.252  18.512   3.994  0.00  0.00    -0.050 C 
HETATM   14  C   UNK N   1      22.828  19.732   3.325  0.00  0.00    -0.061 C 
HETATM   15  C   UNK N   1      20.776  18.288   3.909  0.00  0.00     0.070 C 
HETATM   16  C   UNK N   1      21.957  20.599   2.445  0.00  0.00     0.041 C 
HETATM   17  C   UNK N   1      24.123  20.041   3.392  0.00  0.00     0.019 C 
HETATM   18  C   UNK N   1      20.476  20.206   2.405  0.00  0.00     0.036 C 
HETATM   19  C   UNK N   1      20.273  18.703   2.538  0.00  0.00     0.122 C 
BRANCH  19  20
HETATM   20  O   UNK N   1      18.915  18.407   2.432  0.00  0.00    -0.395 OA
HETATM   21  H   UNK N   1      18.601  17.609   1.978  0.00  0.00     0.210 HD
ENDBRANCH  19  20
ENDBRANCH   6  12
BRANCH   8  22
HETATM   22  C   UNK N   1      29.446  15.520   5.348  0.00  0.00    -0.014 C 
HETATM   23  C   UNK N   1      30.277  14.252   5.410  0.00  0.00     0.010 C 
BRANCH  22  24
HETATM   24  C   UNK N   1      30.394  16.652   5.769  0.00  0.00     0.005 C 
BRANCH  24  25
HETATM   25  C   UNK N   1      30.246  17.073   7.221  0.00  0.00     0.003 C 
BRANCH  25  26
HETATM   26  C   UNK N   1      28.772  17.133   7.608  0.00  0.00     0.037 C 
BRANCH  26  27
HETATM   27  C   UNK N   1      28.415  18.371   8.426  0.00  0.00     0.051 C 
HETATM   28  C   UNK N   1      27.873  19.459   7.518  0.00  0.00     0.045 C 
HETATM   29  C   UNK N   1      29.621  18.897   9.186  0.00  0.00     0.045 C 
BRANCH  27  30
HETATM   30  O   UNK N   1      27.428  18.023   9.348  0.00  0.00    -0.391 OA
HETATM   31  H   UNK N   1      27.091  17.523  10.109  0.00  0.00     0.210 HD
ENDBRANCH  27  30
ENDBRANCH  26  27
ENDBRANCH  25  26
ENDBRANCH  24  25
ENDBRANCH  22  24
ENDBRANCH   8  22
TORSDOF 8
ENDMDL
MODEL 2
REMARK VINA RESULT:      -7.2      4.903      7.512
REMARK  8 active torsions:
REMARK  status: ('A' for Active; 'I' for Inactive)
REMARK    1  A    between atoms: C_6  and  C_8 
REMARK    2  A    between atoms: C_14  and  O_16 
REMARK    3  A    between atoms: C_24  and  C_18 
REMARK    4  A    between atoms: C_18  and  C_19 
REMARK    5  A    between atoms: C_19  and  C_20 
REMARK    6  A    between atoms: C_20  and  C_23 
REMARK    7  A    between atoms: C_23  and  C_28 
REMARK    8  A    between atoms: C_28  and  O_29 
ROOT
HETATM    1  C   UNK N   1      34.157  16.081   5.500  0.00  0.00     0.010 C 
HETATM    2  C   UNK N   1      31.299  16.542   6.059  0.00  0.00    -0.075 C 
HETATM    3  C   UNK N   1      31.933  16.197   8.547  0.00  0.00     0.010 C 
HETATM    4  C   UNK N   1      33.302  16.037   9.236  0.00  0.00     0.006 C 
HETATM    5  C   UNK N   1      33.167  16.537   4.393  0.00  0.00     0.005 C 
HETATM    6  C   UNK N   1      29.973  16.389   6.150  0.00  0.00     0.004 C 
HETATM    7  C   UNK N   1      31.932  17.302   4.915  0.00  0.00     0.034 C 
HETATM    8  C   UNK N   1      34.340  15.741   8.133  0.00  0.00    -0.002 C 
HETATM    9  C   UNK N   1      32.213  15.907   7.080  0.00  0.00     0.023 C 
HETATM   10  C   UNK N   1      33.652  16.394   6.917  0.00  0.00    -0.033 C 
HETATM   11  C   UNK N   1      33.767  17.927   7.097  0.00  0.00     0.016 C 
ENDROOT
BRANCH   6  12
HETATM   12  C   UNK N   1      29.047  16.999   5.177  0.00  0.00     0.008 C 
HETATM   13  C   UNK N   1      28.252  18.059   5.419  0.00  0.00    -0.050 C 
HETATM   14  C   UNK N   1      28.186  18.811   6.722  0.00  0.00    -0.061 C 
HETATM   15  C   UNK N   1      27.435  18.560   4.271  0.00  0.00     0.070 C 
HETATM   16  C   UNK N   1      27.456  20.132   6.803  0.00  0.00     0.041 C 
HETATM   17  C   UNK N   1      28.839  18.409   7.813  0.00  0.00     0.019 C 
HETATM   18  C   UNK N   1      26.718  20.546   5.524  0.00  0.00     0.036 C 
HETATM   19  C   UNK N   1      27.435  20.078   4.266  0.00  0.00     0.122 C 
BRANCH  19  20
HETATM   20  O   UNK N   1      26.750  20.539   3.142  0.00  0.00    -0.395 OA
HETATM   21  H   UNK N   1      27.203  20.702   2.300  0.00  0.00     0.210 HD
ENDBRANCH  19  20
ENDBRANCH   6  12
BRANCH   8  22
HETATM   22  C   UNK N   1      34.573  14.204   8.046  0.00  0.00    -0.014 C 
HETATM   23  C   UNK N   1      36.046  13.872   7.887  0.00  0.00     0.010 C 
BRANCH  22  24
HETATM   24  C   UNK N   1      34.125  13.474   9.320  0.00  0.00     0.005 C 
BRANCH  24  25
HETATM   25  C   UNK N   1      35.272  12.923  10.152  0.00  0.00     0.003 C 
BRANCH  25  26
HETATM   26  C   UNK N   1      35.090  13.298  11.619  0.00  0.00     0.037 C 
BRANCH  26  27
HETATM   27  C   UNK N   1      36.184  14.226  12.143  0.00  0.00     0.051 C 
HETATM   28  C   UNK N   1      36.205  14.204  13.659  0.00  0.00     0.045 C 
HETATM   29  C   UNK N   1      35.976  15.651  11.658  0.00  0.00     0.045 C 
BRANCH  27  30
HETATM   30  O   UNK N   1      37.415  13.772  11.669  0.00  0.00    -0.391 OA
HETATM   31  H   UNK N   1      38.319  13.905  11.343  0.00  0.00     0.210 HD
ENDBRANCH  27  30
ENDBRANCH  26  27
ENDBRANCH  25  26
ENDBRANCH  24  25
ENDBRANCH  22  24
ENDBRANCH   8  22
TORSDOF 8
ENDMDL
MODEL 3
REMARK VINA RESULT:      -7.0     11.336     13.246
REMARK  8 active torsions:
REMARK  status: ('A' for Active; 'I' for Inactive)
REMARK    1  A    between atoms: C_6  and  C_8 
REMARK    2  A    between atoms: C_14  and  O_16 
REMARK    3  A    between atoms: C_24  and  C_18 
REMARK    4  A    between atoms: C_18  and  C_19 
REMARK    5  A    between atoms: C_19  and  C_20 
REMARK    6  A    between atoms: C_20  and  C_23 
REMARK    7  A    between atoms: C_23  and  C_28 
REMARK    8  A    between atoms: C_28  and  O_29 
ROOT
HETATM    1  C   UNK N   1      26.811  21.863  -7.339  0.00  0.00     0.010 C 
HETATM    2  C   UNK N   1      27.703  24.333  -5.997  0.00  0.00    -0.075 C 
HETATM    3  C   UNK N   1      30.059  23.734  -6.893  0.00  0.00     0.010 C 
HETATM    4  C   UNK N   1      30.530  22.630  -7.861  0.00  0.00     0.006 C 
HETATM    5  C   UNK N   1      25.805  22.861  -6.700  0.00  0.00     0.005 C 
HETATM    6  C   UNK N   1      28.048  25.230  -5.066  0.00  0.00     0.004 C 
HETATM    7  C   UNK N   1      26.318  24.314  -6.605  0.00  0.00     0.034 C 
HETATM    8  C   UNK N   1      29.378  21.610  -7.991  0.00  0.00    -0.002 C 
HETATM    9  C   UNK N   1      28.684  23.271  -6.435  0.00  0.00     0.023 C 
HETATM   10  C   UNK N   1      28.169  22.508  -7.654  0.00  0.00    -0.033 C 
HETATM   11  C   UNK N   1      27.943  23.442  -8.867  0.00  0.00     0.016 C 
ENDROOT
BRANCH   6  12
HETATM   12  C   UNK N   1      27.121  26.286  -4.618  0.00  0.00     0.008 C 
HETATM   13  C   UNK N   1      27.478  27.406  -3.958  0.00  0.00    -0.050 C 
HETATM   14  C   UNK N   1      28.888  27.773  -3.579  0.00  0.00    -0.061 C 
HETATM   15  C   UNK N   1      26.386  28.380  -3.652  0.00  0.00     0.070 C 
HETATM   16  C   UNK N   1      29.202  29.162  -3.073  0.00  0.00     0.041 C 
HETATM   17  C   UNK N   1      29.918  26.947  -3.766  0.00  0.00     0.019 C 
HETATM   18  C   UNK N   1      27.985  30.072  -2.871  0.00  0.00     0.036 C 
HETATM   19  C   UNK N   1      26.883  29.796  -3.884  0.00  0.00     0.122 C 
BRANCH  19  20
HETATM   20  O   UNK N   1      25.835  30.694  -3.687  0.00  0.00    -0.395 OA
HETATM   21  H   UNK N   1      25.995  31.640  -3.545  0.00  0.00     0.210 HD
ENDBRANCH  19  20
ENDBRANCH   6  12
BRANCH   8  22
HETATM   22  C   UNK N   1      29.637  20.417  -7.026  0.00  0.00    -0.014 C 
HETATM   23  C   UNK N   1      29.268  19.091  -7.668  0.00  0.00     0.010 C 
BRANCH  22  24
HETATM   24  C   UNK N   1      31.119  20.287  -6.644  0.00  0.00     0.005 C 
BRANCH  24  25
HETATM   25  C   UNK N   1      31.359  20.112  -5.154  0.00  0.00     0.003 C 
BRANCH  25  26
HETATM   26  C   UNK N   1      30.479  21.071  -4.359  0.00  0.00     0.037 C 
BRANCH  26  27
HETATM   27  C   UNK N   1      31.270  21.969  -3.411  0.00  0.00     0.051 C 
HETATM   28  C   UNK N   1      30.328  22.877  -2.644  0.00  0.00     0.045 C 
HETATM   29  C   UNK N   1      32.284  22.811  -4.168  0.00  0.00     0.045 C 
BRANCH  27  30
HETATM   30  O   UNK N   1      31.955  21.161  -2.503  0.00  0.00    -0.391 OA
HETATM   31  H   UNK N   1      32.554  21.018  -1.753  0.00  0.00     0.210 HD
ENDBRANCH  27  30
ENDBRANCH  26  27
ENDBRANCH  25  26
ENDBRANCH  24  25
ENDBRANCH  22  24
ENDBRANCH   8  22
TORSDOF 8
ENDMDL
MODEL 4
REMARK VINA RESULT:      -7.0      7.011     10.561
REMARK  8 active torsions:
REMARK  status: ('A' for Active; 'I' for Inactive)
REMARK    1  A    between atoms: C_6  and  C_8 
REMARK    2  A    between atoms: C_14  and  O_16 
REMARK    3  A    between atoms: C_24  and  C_18 
REMARK    4  A    between atoms: C_18  and  C_19 
REMARK    5  A    between atoms: C_19  and  C_20 
REMARK    6  A    between atoms: C_20  and  C_23 
REMARK    7  A    between atoms: C_23  and  C_28 
REMARK    8  A    between atoms: C_28  and  O_29 
ROOT
HETATM    1  C   UNK N   1      34.483  12.537   9.620  0.00  0.00     0.010 C 
HETATM    2  C   UNK N   1      33.171  15.053   8.820  0.00  0.00    -0.075 C 
HETATM    3  C   UNK N   1      34.977  16.223  10.262  0.00  0.00     0.010 C 
HETATM    4  C   UNK N   1      36.226  15.669  10.976  0.00  0.00     0.006 C 
HETATM    5  C   UNK N   1      33.350  12.571   8.556  0.00  0.00     0.005 C 
HETATM    6  C   UNK N   1      32.297  16.061   8.707  0.00  0.00     0.004 C 
HETATM    7  C   UNK N   1      33.205  13.919   7.819  0.00  0.00     0.034 C 
HETATM    8  C   UNK N   1      36.087  14.132  11.020  0.00  0.00    -0.002 C 
HETATM    9  C   UNK N   1      34.122  14.994   9.992  0.00  0.00     0.023 C 
HETATM   10  C   UNK N   1      35.170  13.898   9.801  0.00  0.00    -0.033 C 
HETATM   11  C   UNK N   1      36.027  14.132   8.534  0.00  0.00     0.016 C 
ENDROOT
BRANCH   6  12
HETATM   12  C   UNK N   1      31.358  16.158   7.575  0.00  0.00     0.008 C 
HETATM   13  C   UNK N   1      31.631  16.726   6.384  0.00  0.00    -0.050 C 
HETATM   14  C   UNK N   1      32.950  17.345   6.004  0.00  0.00    -0.061 C 
HETATM   15  C   UNK N   1      30.555  16.661   5.348  0.00  0.00     0.070 C 
HETATM   16  C   UNK N   1      33.228  17.720   4.566  0.00  0.00     0.041 C 
HETATM   17  C   UNK N   1      33.948  17.493   6.875  0.00  0.00     0.019 C 
HETATM   18  C   UNK N   1      32.048  17.536   3.606  0.00  0.00     0.036 C 
HETATM   19  C   UNK N   1      31.167  16.356   3.992  0.00  0.00     0.122 C 
BRANCH  19  20
HETATM   20  O   UNK N   1      30.152  16.205   3.048  0.00  0.00    -0.395 OA
HETATM   21  H   UNK N   1      29.225  16.089   3.310  0.00  0.00     0.210 HD
ENDBRANCH  19  20
ENDBRANCH   6  12
BRANCH   8  22
HETATM   22  C   UNK N   1      35.513  13.708  12.403  0.00  0.00    -0.014 C 
HETATM   23  C   UNK N   1      35.737  12.230  12.669  0.00  0.00     0.010 C 
BRANCH  22  24
HETATM   24  C   UNK N   1      36.195  14.441  13.567  0.00  0.00     0.005 C 
BRANCH  24  25
HETATM   25  C   UNK N   1      36.786  13.515  14.618  0.00  0.00     0.003 C 
BRANCH  25  26
HETATM   26  C   UNK N   1      36.363  13.961  16.014  0.00  0.00     0.037 C 
BRANCH  26  27
HETATM   27  C   UNK N   1      35.323  13.042  16.649  0.00  0.00     0.051 C 
HETATM   28  C   UNK N   1      35.126  13.406  18.108  0.00  0.00     0.045 C 
HETATM   29  C   UNK N   1      35.735  11.584  16.541  0.00  0.00     0.045 C 
BRANCH  27  30
HETATM   30  O   UNK N   1      34.112  13.211  15.977  0.00  0.00    -0.391 OA
HETATM   31  H   UNK N   1      33.203  13.542  15.902  0.00  0.00     0.210 HD
ENDBRANCH  27  30
ENDBRANCH  26  27
ENDBRANCH  25  26
ENDBRANCH  24  25
ENDBRANCH  22  24
ENDBRANCH   8  22
TORSDOF 8
ENDMDL
MODEL 5
REMARK VINA RESULT:      -6.8     11.664     15.320
REMARK  8 active torsions:
REMARK  status: ('A' for Active; 'I' for Inactive)
REMARK    1  A    between atoms: C_6  and  C_8 
REMARK    2  A    between atoms: C_14  and  O_16 
REMARK    3  A    between atoms: C_24  and  C_18 
REMARK    4  A    between atoms: C_18  and  C_19 
REMARK    5  A    between atoms: C_19  and  C_20 
REMARK    6  A    between atoms: C_20  and  C_23 
REMARK    7  A    between atoms: C_23  and  C_28 
REMARK    8  A    between atoms: C_28  and  O_29 
ROOT
HETATM    1  C   UNK N   1      29.678  28.122  -3.514  0.00  0.00     0.010 C 
HETATM    2  C   UNK N   1      30.734  26.074  -5.354  0.00  0.00    -0.075 C 
HETATM    3  C   UNK N   1      28.947  26.933  -7.021  0.00  0.00     0.010 C 
HETATM    4  C   UNK N   1      27.988  28.138  -6.954  0.00  0.00     0.006 C 
HETATM    5  C   UNK N   1      30.954  27.299  -3.183  0.00  0.00     0.005 C 
HETATM    6  C   UNK N   1      31.026  24.904  -5.934  0.00  0.00     0.004 C 
HETATM    7  C   UNK N   1      31.706  26.758  -4.418  0.00  0.00     0.034 C 
HETATM    8  C   UNK N   1      27.974  28.634  -5.492  0.00  0.00    -0.002 C 
HETATM    9  C   UNK N   1      29.389  26.724  -5.581  0.00  0.00     0.023 C 
HETATM   10  C   UNK N   1      29.357  28.144  -5.016  0.00  0.00    -0.033 C 
HETATM   11  C   UNK N   1      30.418  29.054  -5.680  0.00  0.00     0.016 C 
ENDROOT
BRANCH   6  12
HETATM   12  C   UNK N   1      32.330  24.241  -5.743  0.00  0.00     0.008 C 
HETATM   13  C   UNK N   1      32.603  23.320  -4.799  0.00  0.00    -0.050 C 
HETATM   14  C   UNK N   1      31.617  22.800  -3.787  0.00  0.00    -0.061 C 
HETATM   15  C   UNK N   1      33.975  22.725  -4.820  0.00  0.00     0.070 C 
HETATM   16  C   UNK N   1      31.955  21.591  -2.946  0.00  0.00     0.041 C 
HETATM   17  C   UNK N   1      30.390  23.305  -3.659  0.00  0.00     0.019 C 
HETATM   18  C   UNK N   1      33.379  21.051  -3.126  0.00  0.00     0.036 C 
HETATM   19  C   UNK N   1      33.891  21.234  -4.548  0.00  0.00     0.122 C 
BRANCH  19  20
HETATM   20  O   UNK N   1      35.161  20.669  -4.660  0.00  0.00    -0.395 OA
HETATM   21  H   UNK N   1      35.672  20.722  -5.483  0.00  0.00     0.210 HD
ENDBRANCH  19  20
ENDBRANCH   6  12
BRANCH   8  22
HETATM   22  C   UNK N   1      26.741  28.032  -4.757  0.00  0.00    -0.014 C 
HETATM   23  C   UNK N   1      26.114  29.038  -3.808  0.00  0.00     0.010 C 
BRANCH  22  24
HETATM   24  C   UNK N   1      25.621  27.634  -5.729  0.00  0.00     0.005 C 
BRANCH  24  25
HETATM   25  C   UNK N   1      25.077  26.233  -5.502  0.00  0.00     0.003 C 
BRANCH  25  26
HETATM   26  C   UNK N   1      25.706  25.254  -6.488  0.00  0.00     0.037 C 
BRANCH  26  27
HETATM   27  C   UNK N   1      26.221  23.980  -5.825  0.00  0.00     0.051 C 
HETATM   28  C   UNK N   1      26.372  24.192  -4.331  0.00  0.00     0.045 C 
HETATM   29  C   UNK N   1      27.555  23.552  -6.414  0.00  0.00     0.045 C 
BRANCH  27  30
HETATM   30  O   UNK N   1      25.294  22.961  -6.042  0.00  0.00    -0.391 OA
HETATM   31  H   UNK N   1      25.028  22.029  -6.091  0.00  0.00     0.210 HD
ENDBRANCH  27  30
ENDBRANCH  26  27
ENDBRANCH  25  26
ENDBRANCH  24  25
ENDBRANCH  22  24
ENDBRANCH   8  22
TORSDOF 8
ENDMDL
MODEL 6
REMARK VINA RESULT:      -6.8      3.817      5.825
REMARK  8 active torsions:
REMARK  status: ('A' for Active; 'I' for Inactive)
REMARK    1  A    between atoms: C_6  and  C_8 
REMARK    2  A    between atoms: C_14  and  O_16 
REMARK    3  A    between atoms: C_24  and  C_18 
REMARK    4  A    between atoms: C_18  and  C_19 
REMARK    5  A    between atoms: C_19  and  C_20 
REMARK    6  A    between atoms: C_20  and  C_23 
REMARK    7  A    between atoms: C_23  and  C_28 
REMARK    8  A    between atoms: C_28  and  O_29 
ROOT
HETATM    1  C   UNK N   1      25.729  13.806   3.819  0.00  0.00     0.010 C 
HETATM    2  C   UNK N   1      23.879  14.730   5.921  0.00  0.00    -0.075 C 
HETATM    3  C   UNK N   1      24.314  17.105   4.984  0.00  0.00     0.010 C 
HETATM    4  C   UNK N   1      25.081  17.582   3.735  0.00  0.00     0.006 C 
HETATM    5  C   UNK N   1      24.923  12.811   4.700  0.00  0.00     0.005 C 
HETATM    6  C   UNK N   1      23.350  15.058   7.106  0.00  0.00     0.004 C 
HETATM    7  C   UNK N   1      23.613  13.386   5.280  0.00  0.00     0.034 C 
HETATM    8  C   UNK N   1      25.929  16.393   3.234  0.00  0.00    -0.002 C 
HETATM    9  C   UNK N   1      24.808  15.684   5.209  0.00  0.00     0.023 C 
HETATM   10  C   UNK N   1      25.108  15.210   3.787  0.00  0.00    -0.033 C 
HETATM   11  C   UNK N   1      23.824  15.105   2.931  0.00  0.00     0.016 C 
ENDROOT
BRANCH   6  12
HETATM   12  C   UNK N   1      22.433  14.157   7.828  0.00  0.00     0.008 C 
HETATM   13  C   UNK N   1      22.794  13.297   8.801  0.00  0.00    -0.050 C 
HETATM   14  C   UNK N   1      24.195  13.122   9.325  0.00  0.00    -0.061 C 
HETATM   15  C   UNK N   1      21.694  12.518   9.450  0.00  0.00     0.070 C 
HETATM   16  C   UNK N   1      24.442  12.323  10.583  0.00  0.00     0.041 C 
HETATM   17  C   UNK N   1      25.245  13.734   8.777  0.00  0.00     0.019 C 
HETATM   18  C   UNK N   1      23.205  11.635  11.172  0.00  0.00     0.036 C 
HETATM   19  C   UNK N   1      21.934  12.442  10.946  0.00  0.00     0.122 C 
BRANCH  19  20
HETATM   20  O   UNK N   1      20.860  11.796  11.557  0.00  0.00    -0.395 OA
HETATM   21  H   UNK N   1      20.738  10.836  11.491  0.00  0.00     0.210 HD
ENDBRANCH  19  20
ENDBRANCH   6  12
BRANCH   8  22
HETATM   22  C   UNK N   1      27.382  16.535   3.774  0.00  0.00    -0.014 C 
HETATM   23  C   UNK N   1      28.391  15.913   2.826  0.00  0.00     0.010 C 
BRANCH  22  24
HETATM   24  C   UNK N   1      27.809  18.002   3.920  0.00  0.00     0.005 C 
BRANCH  24  25
HETATM   25  C   UNK N   1      28.677  18.274   5.138  0.00  0.00     0.003 C 
BRANCH  25  26
HETATM   26  C   UNK N   1      27.817  18.734   6.310  0.00  0.00     0.037 C 
BRANCH  26  27
HETATM   27  C   UNK N   1      28.095  17.965   7.599  0.00  0.00     0.051 C 
HETATM   28  C   UNK N   1      29.590  17.815   7.805  0.00  0.00     0.045 C 
HETATM   29  C   UNK N   1      27.445  16.592   7.573  0.00  0.00     0.045 C 
BRANCH  27  30
HETATM   30  O   UNK N   1      27.565  18.687   8.668  0.00  0.00    -0.391 OA
HETATM   31  H   UNK N   1      27.451  19.492   9.198  0.00  0.00     0.210 HD
ENDBRANCH  27  30
ENDBRANCH  26  27
ENDBRANCH  25  26
ENDBRANCH  24  25
ENDBRANCH  22  24
ENDBRANCH   8  22
TORSDOF 8
ENDMDL
MODEL 7
REMARK VINA RESULT:      -6.7     11.963     14.947
REMARK  8 active torsions:
REMARK  status: ('A' for Active; 'I' for Inactive)
REMARK    1  A    between atoms: C_6  and  C_8 
REMARK    2  A    between atoms: C_14  and  O_16 
REMARK    3  A    between atoms: C_24  and  C_18 
REMARK    4  A    between atoms: C_18  and  C_19 
REMARK    5  A    between atoms: C_19  and  C_20 
REMARK    6  A    between atoms: C_20  and  C_23 
REMARK    7  A    between atoms: C_23  and  C_28 
REMARK    8  A    between atoms: C_28  and  O_29 
ROOT
HETATM    1  C   UNK N   1      27.388  28.487  -6.706  0.00  0.00     0.010 C 
HETATM    2  C   UNK N   1      28.299  25.862  -5.718  0.00  0.00    -0.075 C 
HETATM    3  C   UNK N   1      26.897  26.391  -3.605  0.00  0.00     0.010 C 
HETATM    4  C   UNK N   1      25.921  27.543  -3.293  0.00  0.00     0.006 C 
HETATM    5  C   UNK N   1      28.185  27.501  -7.606  0.00  0.00     0.005 C 
HETATM    6  C   UNK N   1      29.055  24.870  -5.233  0.00  0.00     0.004 C 
HETATM    7  C   UNK N   1      28.052  26.017  -7.202  0.00  0.00     0.034 C 
HETATM    8  C   UNK N   1      26.146  28.638  -4.358  0.00  0.00    -0.002 C 
HETATM    9  C   UNK N   1      27.708  26.896  -4.789  0.00  0.00     0.023 C 
HETATM   10  C   UNK N   1      26.707  27.790  -5.518  0.00  0.00    -0.033 C 
HETATM   11  C   UNK N   1      25.526  26.979  -6.102  0.00  0.00     0.016 C 
ENDROOT
BRANCH   6  12
HETATM   12  C   UNK N   1      29.643  23.837  -6.107  0.00  0.00     0.008 C 
HETATM   13  C   UNK N   1      30.253  22.713  -5.681  0.00  0.00    -0.050 C 
HETATM   14  C   UNK N   1      30.423  22.315  -4.239  0.00  0.00    -0.061 C 
HETATM   15  C   UNK N   1      30.724  21.766  -6.737  0.00  0.00     0.070 C 
HETATM   16  C   UNK N   1      30.889  20.922  -3.884  0.00  0.00     0.041 C 
HETATM   17  C   UNK N   1      30.080  23.117  -3.230  0.00  0.00     0.019 C 
HETATM   18  C   UNK N   1      31.275  20.042  -5.078  0.00  0.00     0.036 C 
HETATM   19  C   UNK N   1      30.433  20.338  -6.311  0.00  0.00     0.122 C 
BRANCH  19  20
HETATM   20  O   UNK N   1      30.790  19.465  -7.338  0.00  0.00    -0.395 OA
HETATM   21  H   UNK N   1      31.389  19.735  -8.052  0.00  0.00     0.210 HD
ENDBRANCH  19  20
ENDBRANCH   6  12
BRANCH   8  22
HETATM   22  C   UNK N   1      27.097  29.727  -3.780  0.00  0.00    -0.014 C 
HETATM   23  C   UNK N   1      26.390  31.062  -3.633  0.00  0.00     0.010 C 
BRANCH  22  24
HETATM   24  C   UNK N   1      27.602  29.374  -2.374  0.00  0.00     0.005 C 
BRANCH  24  25
HETATM   25  C   UNK N   1      29.114  29.425  -2.230  0.00  0.00     0.003 C 
BRANCH  25  26
HETATM   26  C   UNK N   1      29.765  29.708  -3.580  0.00  0.00     0.037 C 
BRANCH  26  27
HETATM   27  C   UNK N   1      30.941  28.783  -3.886  0.00  0.00     0.051 C 
HETATM   28  C   UNK N   1      30.988  28.472  -5.369  0.00  0.00     0.045 C 
HETATM   29  C   UNK N   1      30.843  27.487  -3.098  0.00  0.00     0.045 C 
BRANCH  27  30
HETATM   30  O   UNK N   1      32.121  29.433  -3.525  0.00  0.00    -0.391 OA
HETATM   31  H   UNK N   1      32.689  30.216  -3.446  0.00  0.00     0.210 HD
ENDBRANCH  27  30
ENDBRANCH  26  27
ENDBRANCH  25  26
ENDBRANCH  24  25
ENDBRANCH  22  24
ENDBRANCH   8  22
TORSDOF 8
ENDMDL
MODEL 8
REMARK VINA RESULT:      -6.7      6.564      9.646
REMARK  8 active torsions:
REMARK  status: ('A' for Active; 'I' for Inactive)
REMARK    1  A    between atoms: C_6  and  C_8 
REMARK    2  A    between atoms: C_14  and  O_16 
REMARK    3  A    between atoms: C_24  and  C_18 
REMARK    4  A    between atoms: C_18  and  C_19 
REMARK    5  A    between atoms: C_19  and  C_20 
REMARK    6  A    between atoms: C_20  and  C_23 
REMARK    7  A    between atoms: C_23  and  C_28 
REMARK    8  A    between atoms: C_28  and  O_29 
ROOT
HETATM    1  C   UNK N   1      34.432  12.811   8.986  0.00  0.00     0.010 C 
HETATM    2  C   UNK N   1      32.993  15.278   8.254  0.00  0.00    -0.075 C 
HETATM    3  C   UNK N   1      34.641  16.479   9.851  0.00  0.00     0.010 C 
HETATM    4  C   UNK N   1      35.888  15.968  10.600  0.00  0.00     0.006 C 
HETATM    5  C   UNK N   1      33.353  12.832   7.867  0.00  0.00     0.005 C 
HETATM    6  C   UNK N   1      32.059  16.231   8.149  0.00  0.00     0.004 C 
HETATM    7  C   UNK N   1      33.154  14.208   7.197  0.00  0.00     0.034 C 
HETATM    8  C   UNK N   1      35.852  14.425  10.553  0.00  0.00    -0.002 C 
HETATM    9  C   UNK N   1      33.886  15.214   9.470  0.00  0.00     0.023 C 
HETATM   10  C   UNK N   1      35.015  14.202   9.277  0.00  0.00    -0.033 C 
HETATM   11  C   UNK N   1      35.915  14.563   8.072  0.00  0.00     0.016 C 
ENDROOT
BRANCH   6  12
HETATM   12  C   UNK N   1      31.173  16.331   6.975  0.00  0.00     0.008 C 
HETATM   13  C   UNK N   1      30.051  17.075   6.908  0.00  0.00    -0.050 C 
HETATM   14  C   UNK N   1      29.521  17.942   8.019  0.00  0.00    -0.061 C 
HETATM   15  C   UNK N   1      29.330  17.085   5.597  0.00  0.00     0.070 C 
HETATM   16  C   UNK N   1      28.405  18.925   7.751  0.00  0.00     0.041 C 
HETATM   17  C   UNK N   1      30.066  17.958   9.236  0.00  0.00     0.019 C 
HETATM   18  C   UNK N   1      27.809  18.864   6.340  0.00  0.00     0.036 C 
HETATM   19  C   UNK N   1      28.847  18.491   5.290  0.00  0.00     0.122 C 
BRANCH  19  20
HETATM   20  O   UNK N   1      28.258  18.513   4.027  0.00  0.00    -0.395 OA
HETATM   21  H   UNK N   1      28.248  17.729   3.454  0.00  0.00     0.210 HD
ENDBRANCH  19  20
ENDBRANCH   6  12
BRANCH   8  22
HETATM   22  C   UNK N   1      35.240  13.886  11.880  0.00  0.00    -0.014 C 
HETATM   23  C   UNK N   1      35.438  12.386  12.015  0.00  0.00     0.010 C 
BRANCH  22  24
HETATM   24  C   UNK N   1      35.905  14.499  13.120  0.00  0.00     0.005 C 
BRANCH  24  25
HETATM   25  C   UNK N   1      36.541  13.478  14.048  0.00  0.00     0.003 C 
BRANCH  25  26
HETATM   26  C   UNK N   1      36.284  13.853  15.504  0.00  0.00     0.037 C 
BRANCH  26  27
HETATM   27  C   UNK N   1      35.328  12.896  16.212  0.00  0.00     0.051 C 
HETATM   28  C   UNK N   1      35.143  13.317  17.657  0.00  0.00     0.045 C 
HETATM   29  C   UNK N   1      35.841  11.466  16.161  0.00  0.00     0.045 C 
BRANCH  27  30
HETATM   30  O   UNK N   1      34.092  12.947  15.567  0.00  0.00    -0.391 OA
HETATM   31  H   UNK N   1      33.183  12.643  15.413  0.00  0.00     0.210 HD
ENDBRANCH  27  30
ENDBRANCH  26  27
ENDBRANCH  25  26
ENDBRANCH  24  25
ENDBRANCH  22  24
ENDBRANCH   8  22
TORSDOF 8
ENDMDL
MODEL 9
REMARK VINA RESULT:      -6.6     11.207     14.959
REMARK  8 active torsions:
REMARK  status: ('A' for Active; 'I' for Inactive)
REMARK    1  A    between atoms: C_6  and  C_8 
REMARK    2  A    between atoms: C_14  and  O_16 
REMARK    3  A    between atoms: C_24  and  C_18 
REMARK    4  A    between atoms: C_18  and  C_19 
REMARK    5  A    between atoms: C_19  and  C_20 
REMARK    6  A    between atoms: C_20  and  C_23 
REMARK    7  A    between atoms: C_23  and  C_28 
REMARK    8  A    between atoms: C_28  and  O_29 
ROOT
HETATM    1  C   UNK N   1      27.085  24.971  -3.561  0.00  0.00     0.010 C 
HETATM    2  C   UNK N   1      29.167  23.364  -4.893  0.00  0.00    -0.075 C 
HETATM    3  C   UNK N   1      29.080  25.157  -6.760  0.00  0.00     0.010 C 
HETATM    4  C   UNK N   1      28.339  26.506  -6.841  0.00  0.00     0.006 C 
HETATM    5  C   UNK N   1      27.762  23.760  -2.860  0.00  0.00     0.005 C 
HETATM    6  C   UNK N   1      29.804  22.391  -5.556  0.00  0.00     0.004 C 
HETATM    7  C   UNK N   1      29.176  23.427  -3.381  0.00  0.00     0.034 C 
HETATM    8  C   UNK N   1      27.283  26.520  -5.715  0.00  0.00    -0.002 C 
HETATM    9  C   UNK N   1      28.372  24.406  -5.642  0.00  0.00     0.023 C 
HETATM   10  C   UNK N   1      27.926  25.536  -4.716  0.00  0.00    -0.033 C 
HETATM   11  C   UNK N   1      29.130  26.263  -4.070  0.00  0.00     0.016 C 
ENDROOT
BRANCH   6  12
HETATM   12  C   UNK N   1      30.596  21.360  -4.861  0.00  0.00     0.008 C 
HETATM   13  C   UNK N   1      31.583  20.630  -5.418  0.00  0.00    -0.050 C 
HETATM   14  C   UNK N   1      32.054  20.758  -6.843  0.00  0.00    -0.061 C 
HETATM   15  C   UNK N   1      32.305  19.680  -4.517  0.00  0.00     0.070 C 
HETATM   16  C   UNK N   1      33.328  20.078  -7.287  0.00  0.00     0.041 C 
HETATM   17  C   UNK N   1      31.440  21.540  -7.732  0.00  0.00     0.019 C 
HETATM   18  C   UNK N   1      33.993  19.187  -6.231  0.00  0.00     0.036 C 
HETATM   19  C   UNK N   1      33.792  19.718  -4.818  0.00  0.00     0.122 C 
BRANCH  19  20
HETATM   20  O   UNK N   1      34.470  18.901  -3.914  0.00  0.00    -0.395 OA
HETATM   21  H   UNK N   1      34.873  18.062  -4.188  0.00  0.00     0.210 HD
ENDBRANCH  19  20
ENDBRANCH   6  12
BRANCH   8  22
HETATM   22  C   UNK N   1      25.902  26.101  -6.300  0.00  0.00    -0.014 C 
HETATM   23  C   UNK N   1      24.795  27.027  -5.830  0.00  0.00     0.010 C 
BRANCH  22  24
HETATM   24  C   UNK N   1      25.873  26.173  -7.833  0.00  0.00     0.005 C 
BRANCH  24  25
HETATM   25  C   UNK N   1      25.556  24.849  -8.508  0.00  0.00     0.003 C 
BRANCH  25  26
HETATM   26  C   UNK N   1      25.584  23.715  -7.488  0.00  0.00     0.037 C 
BRANCH  26  27
HETATM   27  C   UNK N   1      25.705  22.334  -8.128  0.00  0.00     0.051 C 
HETATM   28  C   UNK N   1      24.799  21.348  -7.416  0.00  0.00     0.045 C 
HETATM   29  C   UNK N   1      27.138  21.830  -8.083  0.00  0.00     0.045 C 
BRANCH  27  30
HETATM   30  O   UNK N   1      25.309  22.426  -9.462  0.00  0.00    -0.391 OA
HETATM   31  H   UNK N   1      25.484  22.514 -10.412  0.00  0.00     0.210 HD
ENDBRANCH  27  30
ENDBRANCH  26  27
ENDBRANCH  25  26
ENDBRANCH  24  25
ENDBRANCH  22  24
ENDBRANCH   8  22
TORSDOF 8
ENDMDL
