MODEL 1
REMARK VINA RESULT:      -8.4      0.000      0.000
REMARK  11 active torsions:
REMARK  status: ('A' for Active; 'I' for Inactive)
REMARK    1  A    between atoms: O_1  and  C_22 
REMARK    2  A    between atoms: O_4  and  C_30 
REMARK    3  A    between atoms: C_17  and  N_7 
REMARK       I    between atoms: N_7  and  C_20 
REMARK    4  A    between atoms: N_8  and  C_23 
REMARK    5  A    between atoms: N_8  and  C_24 
REMARK       I    between atoms: N_16  and  C_35 
REMARK    6  A    between atoms: C_17  and  C_18 
REMARK    7  A    between atoms: C_17  and  C_22 
REMARK    8  A    between atoms: C_18  and  C_19 
REMARK    9  A    between atoms: C_19  and  C_30 
REMARK   10  A    between atoms: C_20  and  C_21 
REMARK   11  A    between atoms: C_24  and  C_29 
ROOT
HETATM    1  C   UNK N   1      24.213  19.537   3.578  0.00  0.00     0.032 A 
HETATM    2  C   UNK N   1      26.455  18.188   4.520  0.00  0.00     0.028 A 
HETATM    3  C   UNK N   1      25.449  20.196   3.675  0.00  0.00     0.019 A 
HETATM    4  C   UNK N   1      24.107  18.195   3.947  0.00  0.00     0.019 A 
HETATM    5  C   UNK N   1      26.571  19.525   4.146  0.00  0.00     0.030 A 
HETATM    6  C   UNK N   1      25.230  17.524   4.414  0.00  0.00     0.030 A 
ENDROOT
BRANCH   2   7
HETATM    7  N   UNK N   1      27.542  17.473   5.024  0.00  0.00    -0.384 N 
HETATM    8  H   UNK N   1      27.365  16.914   5.815  0.00  0.00     0.160 HD
BRANCH   7   9
HETATM    9  C   UNK N   1      28.894  17.456   4.523  0.00  0.00     0.178 C 
BRANCH   9  10
HETATM   10  C   UNK N   1      29.758  17.344   5.736  0.00  0.00     0.043 A 
HETATM   11  N   UNK N   1      31.099  17.485   5.580  0.00  0.00    -0.350 N 
HETATM   12  C   UNK N   1      31.948  17.414   6.618  0.00  0.00     0.147 A 
ATOM     13  HN  UNK N   1      31.473  17.649   4.646  1.00  0.00     0.166 HD
HETATM   14  C   UNK N   1      31.447  17.190   7.901  0.00  0.00     0.153 A 
HETATM   15  C   UNK N   1      33.317  17.567   6.430  0.00  0.00     0.290 A 
HETATM   16  N   UNK N   1      32.307  17.125   8.950  0.00  0.00    -0.174 N 
HETATM   17  N   UNK N   1      30.103  17.041   8.079  0.00  0.00    -0.348 N 
HETATM   18  C   UNK N   1      33.650  17.277   8.759  0.00  0.00     0.680 A 
HETATM   19  H   UNK N   1      31.959  16.965   9.858  0.00  0.00     0.186 HD
HETATM   20  N   UNK N   1      34.150  17.495   7.511  0.00  0.00    -0.154 N 
HETATM   21  N   UNK N   1      34.528  17.209   9.856  0.00  0.00    -0.234 N 
ATOM     22  HN  UNK N   1      35.155  17.606   7.382  1.00  0.00     0.187 HD
HETATM   23  H   UNK N   1      35.497  17.318   9.719  0.00  0.00     0.174 HD
HETATM   24  H   UNK N   1      34.173  17.053  10.761  0.00  0.00     0.174 HD
HETATM   25  C   UNK N   1      29.242  17.113   7.019  0.00  0.00     0.116 A 
ATOM     26  HN  UNK N   1      29.735  16.873   9.015  1.00  0.00     0.167 HD
HETATM   27  O   UNK N   1      33.774  17.764   5.317  0.00  0.00    -0.265 OA
ENDBRANCH   9  10
ENDBRANCH   7   9
ENDBRANCH   2   7
BRANCH   1  28
HETATM   28  C   UNK N   1      23.041  20.288   3.137  0.00  0.00     0.252 C 
HETATM   29  O   UNK N   1      23.122  21.483   2.905  0.00  0.00    -0.268 OA
HETATM   30  N   UNK N   1      21.880  19.607   2.980  0.00  0.00    -0.343 N 
HETATM   31  H   UNK N   1      21.901  18.666   3.266  0.00  0.00     0.163 HD
BRANCH  30  32
HETATM   32  C   UNK N   1      20.612  20.065   2.453  0.00  0.00     0.183 C 
BRANCH  32  33
HETATM   33  C   UNK N   1      19.454  19.121   2.754  0.00  0.00     0.046 C 
BRANCH  33  34
HETATM   34  C   UNK N   1      20.017  17.911   3.488  0.00  0.00     0.112 C 
BRANCH  34  35
HETATM   35  C   UNK N   1      20.089  16.717   2.601  0.00  0.00     0.139 C 
HETATM   36  O   UNK N   1      20.877  16.700   1.669  0.00  0.00    -0.650 OA
BRANCH  35  37
HETATM   37  O   UNK N   1      19.314  15.645   2.842  0.00  0.00    -0.776 OA
HETATM   38  H   UNK N   1      18.704  15.539   3.547  0.00  0.00     0.167 HD
ENDBRANCH  35  37
ENDBRANCH  34  35
ENDBRANCH  33  34
ENDBRANCH  32  33
BRANCH  32  39
HETATM   39  C   UNK N   1      20.781  20.279   0.971  0.00  0.00     0.163 C 
HETATM   40  O   UNK N   1      21.057  21.387   0.530  0.00  0.00    -0.648 OA
BRANCH  39  41
HETATM   41  O   UNK N   1      20.600  19.256   0.119  0.00  0.00    -0.775 OA
HETATM   42  H   UNK N   1      21.264  18.604   0.011  0.00  0.00     0.167 HD
ENDBRANCH  39  41
ENDBRANCH  32  39
ENDBRANCH  30  32
ENDBRANCH   1  28
TORSDOF 11
ENDMDL
MODEL 2
REMARK VINA RESULT:      -7.9      2.417     12.072
REMARK  11 active torsions:
REMARK  status: ('A' for Active; 'I' for Inactive)
REMARK    1  A    between atoms: O_1  and  C_22 
REMARK    2  A    between atoms: O_4  and  C_30 
REMARK    3  A    between atoms: C_17  and  N_7 
REMARK       I    between atoms: N_7  and  C_20 
REMARK    4  A    between atoms: N_8  and  C_23 
REMARK    5  A    between atoms: N_8  and  C_24 
REMARK       I    between atoms: N_16  and  C_35 
REMARK    6  A    between atoms: C_17  and  C_18 
REMARK    7  A    between atoms: C_17  and  C_22 
REMARK    8  A    between atoms: C_18  and  C_19 
REMARK    9  A    between atoms: C_19  and  C_30 
REMARK   10  A    between atoms: C_20  and  C_21 
REMARK   11  A    between atoms: C_24  and  C_29 
ROOT
HETATM    1  C   UNK N   1      29.943  16.480   6.483  0.00  0.00     0.032 A 
HETATM    2  C   UNK N   1      27.417  17.530   5.988  0.00  0.00     0.028 A 
HETATM    3  C   UNK N   1      29.440  17.524   7.277  0.00  0.00     0.019 A 
HETATM    4  C   UNK N   1      29.170  15.958   5.444  0.00  0.00     0.019 A 
HETATM    5  C   UNK N   1      28.179  18.052   7.031  0.00  0.00     0.030 A 
HETATM    6  C   UNK N   1      27.907  16.484   5.203  0.00  0.00     0.030 A 
ENDROOT
BRANCH   2   7
HETATM    7  N   UNK N   1      26.154  18.039   5.680  0.00  0.00    -0.384 N 
HETATM    8  H   UNK N   1      25.414  17.742   6.258  0.00  0.00     0.160 HD
BRANCH   7   9
HETATM    9  C   UNK N   1      25.805  18.947   4.616  0.00  0.00     0.178 C 
BRANCH   9  10
HETATM   10  C   UNK N   1      24.397  18.603   4.256  0.00  0.00     0.043 A 
HETATM   11  N   UNK N   1      23.619  19.578   3.720  0.00  0.00    -0.350 N 
HETATM   12  C   UNK N   1      22.346  19.353   3.353  0.00  0.00     0.147 A 
ATOM     13  HN  UNK N   1      24.013  20.509   3.591  1.00  0.00     0.166 HD
HETATM   14  C   UNK N   1      21.797  18.082   3.526  0.00  0.00     0.153 A 
HETATM   15  C   UNK N   1      21.574  20.368   2.802  0.00  0.00     0.290 A 
HETATM   16  N   UNK N   1      20.512  17.855   3.149  0.00  0.00    -0.174 N 
HETATM   17  N   UNK N   1      22.560  17.089   4.068  0.00  0.00    -0.348 N 
HETATM   18  C   UNK N   1      19.760  18.856   2.606  0.00  0.00     0.680 A 
HETATM   19  H   UNK N   1      20.119  16.960   3.269  0.00  0.00     0.186 HD
HETATM   20  N   UNK N   1      20.285  20.100   2.435  0.00  0.00    -0.154 N 
HETATM   21  N   UNK N   1      18.431  18.605   2.219  0.00  0.00    -0.234 N 
ATOM     22  HN  UNK N   1      19.712  20.839   2.030  1.00  0.00     0.187 HD
HETATM   23  H   UNK N   1      17.886  19.327   1.828  0.00  0.00     0.174 HD
HETATM   24  H   UNK N   1      18.044  17.707   2.339  0.00  0.00     0.174 HD
HETATM   25  C   UNK N   1      23.855  17.324   4.439  0.00  0.00     0.116 A 
ATOM     26  HN  UNK N   1      22.160  16.161   4.198  1.00  0.00     0.167 HD
HETATM   27  O   UNK N   1      22.036  21.485   2.643  0.00  0.00    -0.265 OA
ENDBRANCH   9  10
ENDBRANCH   7   9
ENDBRANCH   2   7
BRANCH   1  28
HETATM   28  C   UNK N   1      31.297  15.990   6.729  0.00  0.00     0.252 C 
HETATM   29  O   UNK N   1      31.719  15.013   6.130  0.00  0.00    -0.268 OA
HETATM   30  N   UNK N   1      32.059  16.665   7.622  0.00  0.00    -0.343 N 
HETATM   31  H   UNK N   1      31.600  17.390   8.105  0.00  0.00     0.163 HD
BRANCH  30  32
HETATM   32  C   UNK N   1      33.451  16.475   7.968  0.00  0.00     0.183 C 
BRANCH  32  33
HETATM   33  C   UNK N   1      33.671  16.154   9.442  0.00  0.00     0.046 C 
BRANCH  33  34
HETATM   34  C   UNK N   1      35.021  15.461   9.573  0.00  0.00     0.112 C 
BRANCH  34  35
HETATM   35  C   UNK N   1      35.951  16.235  10.441  0.00  0.00     0.139 C 
HETATM   36  O   UNK N   1      35.616  17.327  10.869  0.00  0.00    -0.650 OA
BRANCH  35  37
HETATM   37  O   UNK N   1      37.146  15.719  10.783  0.00  0.00    -0.776 OA
HETATM   38  H   UNK N   1      37.544  15.736  11.632  0.00  0.00     0.167 HD
ENDBRANCH  35  37
ENDBRANCH  34  35
ENDBRANCH  33  34
ENDBRANCH  32  33
BRANCH  32  39
HETATM   39  C   UNK N   1      34.201  17.713   7.553  0.00  0.00     0.163 C 
HETATM   40  O   UNK N   1      34.502  17.896   6.380  0.00  0.00    -0.648 OA
BRANCH  39  41
HETATM   41  O   UNK N   1      34.573  18.615   8.477  0.00  0.00    -0.775 OA
HETATM   42  H   UNK N   1      33.945  18.971   9.074  0.00  0.00     0.167 HD
ENDBRANCH  39  41
ENDBRANCH  32  39
ENDBRANCH  30  32
ENDBRANCH   1  28
TORSDOF 11
ENDMDL
MODEL 3
REMARK VINA RESULT:      -7.7      2.389     11.404
REMARK  11 active torsions:
REMARK  status: ('A' for Active; 'I' for Inactive)
REMARK    1  A    between atoms: O_1  and  C_22 
REMARK    2  A    between atoms: O_4  and  C_30 
REMARK    3  A    between atoms: C_17  and  N_7 
REMARK       I    between atoms: N_7  and  C_20 
REMARK    4  A    between atoms: N_8  and  C_23 
REMARK    5  A    between atoms: N_8  and  C_24 
REMARK       I    between atoms: N_16  and  C_35 
REMARK    6  A    between atoms: C_17  and  C_18 
REMARK    7  A    between atoms: C_17  and  C_22 
REMARK    8  A    between atoms: C_18  and  C_19 
REMARK    9  A    between atoms: C_19  and  C_30 
REMARK   10  A    between atoms: C_20  and  C_21 
REMARK   11  A    between atoms: C_24  and  C_29 
ROOT
HETATM    1  C   UNK N   1      30.226  17.450   7.398  0.00  0.00     0.032 A 
HETATM    2  C   UNK N   1      27.714  18.223   6.491  0.00  0.00     0.028 A 
HETATM    3  C   UNK N   1      29.430  18.316   8.165  0.00  0.00     0.019 A 
HETATM    4  C   UNK N   1      29.754  16.965   6.177  0.00  0.00     0.019 A 
HETATM    5  C   UNK N   1      28.175  18.706   7.714  0.00  0.00     0.030 A 
HETATM    6  C   UNK N   1      28.496  17.351   5.730  0.00  0.00     0.030 A 
ENDROOT
BRANCH   2   7
HETATM    7  N   UNK N   1      26.472  18.601   5.977  0.00  0.00    -0.384 N 
HETATM    8  H   UNK N   1      25.695  18.442   6.561  0.00  0.00     0.160 HD
BRANCH   7   9
HETATM    9  C   UNK N   1      26.194  19.196   4.694  0.00  0.00     0.178 C 
BRANCH   9  10
HETATM   10  C   UNK N   1      24.792  18.790   4.372  0.00  0.00     0.043 A 
HETATM   11  N   UNK N   1      23.981  19.708   3.788  0.00  0.00    -0.350 N 
HETATM   12  C   UNK N   1      22.712  19.425   3.451  0.00  0.00     0.147 A 
ATOM     13  HN  UNK N   1      24.345  20.641   3.599  1.00  0.00     0.166 HD
HETATM   14  C   UNK N   1      22.202  18.151   3.706  0.00  0.00     0.153 A 
HETATM   15  C   UNK N   1      21.904  20.382   2.849  0.00  0.00     0.290 A 
HETATM   16  N   UNK N   1      20.921  17.865   3.359  0.00  0.00    -0.174 N 
HETATM   17  N   UNK N   1      23.000  17.215   4.297  0.00  0.00    -0.348 N 
HETATM   18  C   UNK N   1      20.133  18.809   2.766  0.00  0.00     0.680 A 
HETATM   19  H   UNK N   1      20.555  16.967   3.537  0.00  0.00     0.186 HD
HETATM   20  N   UNK N   1      20.620  20.056   2.515  0.00  0.00    -0.154 N 
HETATM   21  N   UNK N   1      18.808  18.497   2.411  0.00  0.00    -0.234 N 
ATOM     22  HN  UNK N   1      20.021  20.752   2.072  1.00  0.00     0.187 HD
HETATM   23  H   UNK N   1      18.239  19.178   1.984  0.00  0.00     0.174 HD
HETATM   24  H   UNK N   1      18.450  17.597   2.589  0.00  0.00     0.174 HD
HETATM   25  C   UNK N   1      24.291  17.509   4.638  0.00  0.00     0.116 A 
ATOM     26  HN  UNK N   1      22.628  16.285   4.487  1.00  0.00     0.167 HD
HETATM   27  O   UNK N   1      22.331  21.501   2.618  0.00  0.00    -0.265 OA
ENDBRANCH   9  10
ENDBRANCH   7   9
ENDBRANCH   2   7
BRANCH   1  28
HETATM   28  C   UNK N   1      31.565  17.109   7.872  0.00  0.00     0.252 C 
HETATM   29  O   UNK N   1      31.713  16.477   8.905  0.00  0.00    -0.268 OA
HETATM   30  N   UNK N   1      32.619  17.502   7.117  0.00  0.00    -0.343 N 
HETATM   31  H   UNK N   1      32.396  18.071   6.345  0.00  0.00     0.163 HD
BRANCH  30  32
HETATM   32  C   UNK N   1      34.026  17.207   7.282  0.00  0.00     0.183 C 
BRANCH  32  33
HETATM   33  C   UNK N   1      34.322  15.716   7.404  0.00  0.00     0.046 C 
BRANCH  33  34
HETATM   34  C   UNK N   1      33.907  15.050   6.098  0.00  0.00     0.112 C 
BRANCH  34  35
HETATM   35  C   UNK N   1      32.875  14.000   6.324  0.00  0.00     0.139 C 
HETATM   36  O   UNK N   1      32.516  13.292   5.397  0.00  0.00    -0.650 OA
BRANCH  35  37
HETATM   37  O   UNK N   1      32.362  13.807   7.552  0.00  0.00    -0.776 OA
HETATM   38  H   UNK N   1      32.841  13.688   8.350  0.00  0.00     0.167 HD
ENDBRANCH  35  37
ENDBRANCH  34  35
ENDBRANCH  33  34
ENDBRANCH  32  33
BRANCH  32  39
HETATM   39  C   UNK N   1      34.517  17.969   8.484  0.00  0.00     0.163 C 
HETATM   40  O   UNK N   1      34.999  19.087   8.359  0.00  0.00    -0.648 OA
BRANCH  39  41
HETATM   41  O   UNK N   1      34.457  17.410   9.705  0.00  0.00    -0.775 OA
HETATM   42  H   UNK N   1      33.629  17.230  10.105  0.00  0.00     0.167 HD
ENDBRANCH  39  41
ENDBRANCH  32  39
ENDBRANCH  30  32
ENDBRANCH   1  28
TORSDOF 11
ENDMDL
MODEL 4
REMARK VINA RESULT:      -7.6      1.736      2.200
REMARK  11 active torsions:
REMARK  status: ('A' for Active; 'I' for Inactive)
REMARK    1  A    between atoms: O_1  and  C_22 
REMARK    2  A    between atoms: O_4  and  C_30 
REMARK    3  A    between atoms: C_17  and  N_7 
REMARK       I    between atoms: N_7  and  C_20 
REMARK    4  A    between atoms: N_8  and  C_23 
REMARK    5  A    between atoms: N_8  and  C_24 
REMARK       I    between atoms: N_16  and  C_35 
REMARK    6  A    between atoms: C_17  and  C_18 
REMARK    7  A    between atoms: C_17  and  C_22 
REMARK    8  A    between atoms: C_18  and  C_19 
REMARK    9  A    between atoms: C_19  and  C_30 
REMARK   10  A    between atoms: C_20  and  C_21 
REMARK   11  A    between atoms: C_24  and  C_29 
ROOT
HETATM    1  C   UNK N   1      24.356  19.724   3.338  0.00  0.00     0.032 A 
HETATM    2  C   UNK N   1      26.728  18.413   3.959  0.00  0.00     0.028 A 
HETATM    3  C   UNK N   1      25.586  20.394   3.234  0.00  0.00     0.019 A 
HETATM    4  C   UNK N   1      24.321  18.389   3.746  0.00  0.00     0.019 A 
HETATM    5  C   UNK N   1      26.773  19.743   3.545  0.00  0.00     0.030 A 
HETATM    6  C   UNK N   1      25.509  17.737   4.052  0.00  0.00     0.030 A 
ENDROOT
BRANCH   2   7
HETATM    7  N   UNK N   1      27.887  17.717   4.308  0.00  0.00    -0.384 N 
HETATM    8  H   UNK N   1      27.880  16.748   4.133  0.00  0.00     0.160 HD
BRANCH   7   9
HETATM    9  C   UNK N   1      29.092  18.250   4.894  0.00  0.00     0.178 C 
BRANCH   9  10
HETATM   10  C   UNK N   1      30.091  17.143   4.803  0.00  0.00     0.043 A 
HETATM   11  N   UNK N   1      31.375  17.413   5.154  0.00  0.00    -0.350 N 
HETATM   12  C   UNK N   1      32.335  16.474   5.118  0.00  0.00     0.147 A 
ATOM     13  HN  UNK N   1      31.617  18.356   5.455  1.00  0.00     0.166 HD
HETATM   14  C   UNK N   1      32.014  15.180   4.708  0.00  0.00     0.153 A 
HETATM   15  C   UNK N   1      33.640  16.776   5.488  0.00  0.00     0.290 A 
HETATM   16  N   UNK N   1      32.986  14.231   4.677  0.00  0.00    -0.174 N 
HETATM   17  N   UNK N   1      30.731  14.889   4.346  0.00  0.00    -0.348 N 
HETATM   18  C   UNK N   1      34.265  14.533   5.043  0.00  0.00     0.680 A 
HETATM   19  H   UNK N   1      32.765  13.315   4.387  0.00  0.00     0.186 HD
HETATM   20  N   UNK N   1      34.589  15.794   5.444  0.00  0.00    -0.154 N 
HETATM   21  N   UNK N   1      35.259  13.539   5.008  0.00  0.00    -0.234 N 
ATOM     22  HN  UNK N   1      35.549  16.007   5.714  1.00  0.00     0.187 HD
HETATM   23  H   UNK N   1      36.184  13.757   5.272  0.00  0.00     0.174 HD
HETATM   24  H   UNK N   1      35.032  12.625   4.721  0.00  0.00     0.174 HD
HETATM   25  C   UNK N   1      29.757  15.849   4.385  0.00  0.00     0.116 A 
ATOM     26  HN  UNK N   1      30.496  13.945   4.042  1.00  0.00     0.167 HD
HETATM   27  O   UNK N   1      33.941  17.901   5.850  0.00  0.00    -0.265 OA
ENDBRANCH   9  10
ENDBRANCH   7   9
ENDBRANCH   2   7
BRANCH   1  28
HETATM   28  C   UNK N   1      23.122  20.455   3.063  0.00  0.00     0.252 C 
HETATM   29  O   UNK N   1      23.135  21.671   2.955  0.00  0.00    -0.268 OA
HETATM   30  N   UNK N   1      21.983  19.737   2.917  0.00  0.00    -0.343 N 
HETATM   31  H   UNK N   1      22.067  18.773   3.098  0.00  0.00     0.163 HD
BRANCH  30  32
HETATM   32  C   UNK N   1      20.661  20.182   2.532  0.00  0.00     0.183 C 
BRANCH  32  33
HETATM   33  C   UNK N   1      19.583  19.122   2.731  0.00  0.00     0.046 C 
BRANCH  33  34
HETATM   34  C   UNK N   1      20.278  17.781   2.928  0.00  0.00     0.112 C 
BRANCH  34  35
HETATM   35  C   UNK N   1      20.128  16.906   1.731  0.00  0.00     0.139 C 
HETATM   36  O   UNK N   1      20.842  15.925   1.603  0.00  0.00    -0.650 OA
BRANCH  35  37
HETATM   37  O   UNK N   1      19.185  17.174   0.810  0.00  0.00    -0.776 OA
HETATM   38  H   UNK N   1      18.631  16.555   0.375  0.00  0.00     0.167 HD
ENDBRANCH  35  37
ENDBRANCH  34  35
ENDBRANCH  33  34
ENDBRANCH  32  33
BRANCH  32  39
HETATM   39  C   UNK N   1      20.730  20.639   1.099  0.00  0.00     0.163 C 
HETATM   40  O   UNK N   1      20.799  21.832   0.828  0.00  0.00    -0.648 OA
BRANCH  39  41
HETATM   41  O   UNK N   1      20.685  19.739   0.102  0.00  0.00    -0.775 OA
HETATM   42  H   UNK N   1      20.093  19.013   0.143  0.00  0.00     0.167 HD
ENDBRANCH  39  41
ENDBRANCH  32  39
ENDBRANCH  30  32
ENDBRANCH   1  28
TORSDOF 11
ENDMDL
MODEL 5
REMARK VINA RESULT:      -7.6      3.408      6.609
REMARK  11 active torsions:
REMARK  status: ('A' for Active; 'I' for Inactive)
REMARK    1  A    between atoms: O_1  and  C_22 
REMARK    2  A    between atoms: O_4  and  C_30 
REMARK    3  A    between atoms: C_17  and  N_7 
REMARK       I    between atoms: N_7  and  C_20 
REMARK    4  A    between atoms: N_8  and  C_23 
REMARK    5  A    between atoms: N_8  and  C_24 
REMARK       I    between atoms: N_16  and  C_35 
REMARK    6  A    between atoms: C_17  and  C_18 
REMARK    7  A    between atoms: C_17  and  C_22 
REMARK    8  A    between atoms: C_18  and  C_19 
REMARK    9  A    between atoms: C_19  and  C_30 
REMARK   10  A    between atoms: C_20  and  C_21 
REMARK   11  A    between atoms: C_24  and  C_29 
ROOT
HETATM    1  C   UNK N   1      29.513  17.733   7.126  0.00  0.00     0.032 A 
HETATM    2  C   UNK N   1      31.943  16.385   7.209  0.00  0.00     0.028 A 
HETATM    3  C   UNK N   1      30.307  17.771   8.283  0.00  0.00     0.019 A 
HETATM    4  C   UNK N   1      29.947  17.023   6.005  0.00  0.00     0.019 A 
HETATM    5  C   UNK N   1      31.521  17.098   8.329  0.00  0.00     0.030 A 
HETATM    6  C   UNK N   1      31.164  16.354   6.050  0.00  0.00     0.030 A 
ENDROOT
BRANCH   2   7
HETATM    7  N   UNK N   1      33.142  15.669   7.207  0.00  0.00    -0.384 N 
HETATM    8  H   UNK N   1      33.062  14.690   7.139  0.00  0.00     0.160 HD
BRANCH   7   9
HETATM    9  C   UNK N   1      34.482  16.194   7.293  0.00  0.00     0.178 C 
BRANCH   9  10
HETATM   10  C   UNK N   1      34.877  16.022   8.723  0.00  0.00     0.043 A 
HETATM   11  N   UNK N   1      35.282  14.792   9.129  0.00  0.00    -0.350 N 
HETATM   12  C   UNK N   1      35.669  14.551  10.393  0.00  0.00     0.147 A 
ATOM     13  HN  UNK N   1      35.294  14.027   8.455  1.00  0.00     0.166 HD
HETATM   14  C   UNK N   1      35.657  15.589  11.324  0.00  0.00     0.153 A 
HETATM   15  C   UNK N   1      36.084  13.282  10.780  0.00  0.00     0.290 A 
HETATM   16  N   UNK N   1      36.054  15.344  12.600  0.00  0.00    -0.174 N 
HETATM   17  N   UNK N   1      35.248  16.832  10.938  0.00  0.00    -0.348 N 
HETATM   18  C   UNK N   1      36.463  14.097  12.974  0.00  0.00     0.680 A 
HETATM   19  H   UNK N   1      36.047  16.074  13.262  0.00  0.00     0.186 HD
HETATM   20  N   UNK N   1      36.477  13.076  12.073  0.00  0.00    -0.154 N 
HETATM   21  N   UNK N   1      36.873  13.859  14.298  0.00  0.00    -0.234 N 
ATOM     22  HN  UNK N   1      36.783  12.148  12.366  1.00  0.00     0.187 HD
HETATM   23  H   UNK N   1      37.168  12.959  14.569  0.00  0.00     0.174 HD
HETATM   24  H   UNK N   1      36.866  14.593  14.955  0.00  0.00     0.174 HD
HETATM   25  C   UNK N   1      34.855  17.072   9.651  0.00  0.00     0.116 A 
ATOM     26  HN  UNK N   1      35.235  17.591  11.618  1.00  0.00     0.167 HD
HETATM   27  O   UNK N   1      36.103  12.361   9.981  0.00  0.00    -0.265 OA
ENDBRANCH   9  10
ENDBRANCH   7   9
ENDBRANCH   2   7
BRANCH   1  28
HETATM   28  C   UNK N   1      28.214  18.401   7.132  0.00  0.00     0.252 C 
HETATM   29  O   UNK N   1      27.672  18.690   8.187  0.00  0.00    -0.268 OA
HETATM   30  N   UNK N   1      27.653  18.698   5.936  0.00  0.00    -0.343 N 
HETATM   31  H   UNK N   1      28.133  18.355   5.148  0.00  0.00     0.163 HD
BRANCH  30  32
HETATM   32  C   UNK N   1      26.449  19.447   5.649  0.00  0.00     0.183 C 
BRANCH  32  33
HETATM   33  C   UNK N   1      26.139  19.550   4.159  0.00  0.00     0.046 C 
BRANCH  33  34
HETATM   34  C   UNK N   1      24.629  19.686   4.005  0.00  0.00     0.112 C 
BRANCH  34  35
HETATM   35  C   UNK N   1      24.275  20.656   2.932  0.00  0.00     0.139 C 
HETATM   36  O   UNK N   1      25.077  20.904   2.047  0.00  0.00    -0.650 OA
BRANCH  35  37
HETATM   37  O   UNK N   1      23.060  21.234   2.916  0.00  0.00    -0.776 OA
HETATM   38  H   UNK N   1      22.696  21.798   3.571  0.00  0.00     0.167 HD
ENDBRANCH  35  37
ENDBRANCH  34  35
ENDBRANCH  33  34
ENDBRANCH  32  33
BRANCH  32  39
HETATM   39  C   UNK N   1      26.593  20.808   6.279  0.00  0.00     0.163 C 
HETATM   40  O   UNK N   1      27.232  21.689   5.718  0.00  0.00    -0.648 OA
BRANCH  39  41
HETATM   41  O   UNK N   1      26.044  21.054   7.481  0.00  0.00    -0.775 OA
HETATM   42  H   UNK N   1      26.037  20.393   8.145  0.00  0.00     0.167 HD
ENDBRANCH  39  41
ENDBRANCH  32  39
ENDBRANCH  30  32
ENDBRANCH   1  28
TORSDOF 11
ENDMDL
MODEL 6
REMARK VINA RESULT:      -7.5      2.888     12.025
REMARK  11 active torsions:
REMARK  status: ('A' for Active; 'I' for Inactive)
REMARK    1  A    between atoms: O_1  and  C_22 
REMARK    2  A    between atoms: O_4  and  C_30 
REMARK    3  A    between atoms: C_17  and  N_7 
REMARK       I    between atoms: N_7  and  C_20 
REMARK    4  A    between atoms: N_8  and  C_23 
REMARK    5  A    between atoms: N_8  and  C_24 
REMARK       I    between atoms: N_16  and  C_35 
REMARK    6  A    between atoms: C_17  and  C_18 
REMARK    7  A    between atoms: C_17  and  C_22 
REMARK    8  A    between atoms: C_18  and  C_19 
REMARK    9  A    between atoms: C_19  and  C_30 
REMARK   10  A    between atoms: C_20  and  C_21 
REMARK   11  A    between atoms: C_24  and  C_29 
ROOT
HETATM    1  C   UNK N   1      30.649  17.022   6.475  0.00  0.00     0.032 A 
HETATM    2  C   UNK N   1      28.050  17.946   6.127  0.00  0.00     0.028 A 
HETATM    3  C   UNK N   1      29.939  17.567   7.557  0.00  0.00     0.019 A 
HETATM    4  C   UNK N   1      30.048  16.933   5.218  0.00  0.00     0.019 A 
HETATM    5  C   UNK N   1      28.641  18.031   7.386  0.00  0.00     0.030 A 
HETATM    6  C   UNK N   1      28.748  17.393   5.050  0.00  0.00     0.030 A 
ENDROOT
BRANCH   2   7
HETATM    7  N   UNK N   1      26.758  18.420   5.892  0.00  0.00    -0.384 N 
HETATM    8  H   UNK N   1      26.025  17.786   6.068  0.00  0.00     0.160 HD
BRANCH   7   9
HETATM    9  C   UNK N   1      26.371  19.726   5.423  0.00  0.00     0.178 C 
BRANCH   9  10
HETATM   10  C   UNK N   1      25.047  19.526   4.760  0.00  0.00     0.043 A 
HETATM   11  N   UNK N   1      24.213  18.586   5.273  0.00  0.00    -0.350 N 
HETATM   12  C   UNK N   1      22.998  18.350   4.750  0.00  0.00     0.147 A 
ATOM     13  HN  UNK N   1      24.516  18.043   6.081  1.00  0.00     0.166 HD
HETATM   14  C   UNK N   1      22.572  19.087   3.645  0.00  0.00     0.153 A 
HETATM   15  C   UNK N   1      22.162  17.385   5.299  0.00  0.00     0.290 A 
HETATM   16  N   UNK N   1      21.342  18.850   3.121  0.00  0.00    -0.174 N 
HETATM   17  N   UNK N   1      23.398  20.032   3.110  0.00  0.00    -0.348 N 
HETATM   18  C   UNK N   1      20.525  17.903   3.666  0.00  0.00     0.680 A 
HETATM   19  H   UNK N   1      21.036  19.367   2.340  0.00  0.00     0.186 HD
HETATM   20  N   UNK N   1      20.931  17.177   4.743  0.00  0.00    -0.154 N 
HETATM   21  N   UNK N   1      19.252  17.671   3.113  0.00  0.00    -0.234 N 
ATOM     22  HN  UNK N   1      20.311  16.471   5.140  1.00  0.00     0.187 HD
HETATM   23  H   UNK N   1      18.661  16.986   3.505  0.00  0.00     0.174 HD
HETATM   24  H   UNK N   1      18.951  18.193   2.334  0.00  0.00     0.174 HD
HETATM   25  C   UNK N   1      24.633  20.269   3.647  0.00  0.00     0.116 A 
ATOM     26  HN  UNK N   1      23.090  20.569   2.300  1.00  0.00     0.167 HD
HETATM   27  O   UNK N   1      22.516  16.731   6.265  0.00  0.00    -0.265 OA
ENDBRANCH   9  10
ENDBRANCH   7   9
ENDBRANCH   2   7
BRANCH   1  28
HETATM   28  C   UNK N   1      32.033  16.600   6.674  0.00  0.00     0.252 C 
HETATM   29  O   UNK N   1      32.726  16.282   5.721  0.00  0.00    -0.268 OA
HETATM   30  N   UNK N   1      32.514  16.593   7.941  0.00  0.00    -0.343 N 
HETATM   31  H   UNK N   1      31.854  16.792   8.643  0.00  0.00     0.163 HD
BRANCH  30  32
HETATM   32  C   UNK N   1      33.859  16.336   8.410  0.00  0.00     0.183 C 
BRANCH  32  33
HETATM   33  C   UNK N   1      33.907  15.720   9.804  0.00  0.00     0.046 C 
BRANCH  33  34
HETATM   34  C   UNK N   1      35.122  14.803   9.867  0.00  0.00     0.112 C 
BRANCH  34  35
HETATM   35  C   UNK N   1      36.018  15.159  11.002  0.00  0.00     0.139 C 
HETATM   36  O   UNK N   1      35.932  14.553  12.057  0.00  0.00    -0.650 OA
BRANCH  35  37
HETATM   37  O   UNK N   1      36.945  16.123  10.857  0.00  0.00    -0.776 OA
HETATM   38  H   UNK N   1      37.046  16.701  10.126  0.00  0.00     0.167 HD
ENDBRANCH  35  37
ENDBRANCH  34  35
ENDBRANCH  33  34
ENDBRANCH  32  33
BRANCH  32  39
HETATM   39  C   UNK N   1      34.622  17.633   8.351  0.00  0.00     0.163 C 
HETATM   40  O   UNK N   1      35.154  18.089   9.355  0.00  0.00    -0.648 OA
BRANCH  39  41
HETATM   41  O   UNK N   1      34.697  18.317   7.197  0.00  0.00    -0.775 OA
HETATM   42  H   UNK N   1      35.392  18.150   6.590  0.00  0.00     0.167 HD
ENDBRANCH  39  41
ENDBRANCH  32  39
ENDBRANCH  30  32
ENDBRANCH   1  28
TORSDOF 11
ENDMDL
MODEL 7
REMARK VINA RESULT:      -7.4      6.834     14.134
REMARK  11 active torsions:
REMARK  status: ('A' for Active; 'I' for Inactive)
REMARK    1  A    between atoms: O_1  and  C_22 
REMARK    2  A    between atoms: O_4  and  C_30 
REMARK    3  A    between atoms: C_17  and  N_7 
REMARK       I    between atoms: N_7  and  C_20 
REMARK    4  A    between atoms: N_8  and  C_23 
REMARK    5  A    between atoms: N_8  and  C_24 
REMARK       I    between atoms: N_16  and  C_35 
REMARK    6  A    between atoms: C_17  and  C_18 
REMARK    7  A    between atoms: C_17  and  C_22 
REMARK    8  A    between atoms: C_18  and  C_19 
REMARK    9  A    between atoms: C_19  and  C_30 
REMARK   10  A    between atoms: C_20  and  C_21 
REMARK   11  A    between atoms: C_24  and  C_29 
ROOT
HETATM    1  C   UNK N   1      35.197  14.394  11.534  0.00  0.00     0.032 A 
HETATM    2  C   UNK N   1      34.902  16.127   9.380  0.00  0.00     0.028 A 
HETATM    3  C   UNK N   1      34.769  13.911  10.287  0.00  0.00     0.019 A 
HETATM    4  C   UNK N   1      35.486  15.751  11.695  0.00  0.00     0.019 A 
HETATM    5  C   UNK N   1      34.619  14.774   9.209  0.00  0.00     0.030 A 
HETATM    6  C   UNK N   1      35.340  16.612  10.615  0.00  0.00     0.030 A 
ENDROOT
BRANCH   2   7
HETATM    7  N   UNK N   1      34.745  17.044   8.338  0.00  0.00    -0.384 N 
HETATM    8  H   UNK N   1      35.260  16.862   7.519  0.00  0.00     0.160 HD
BRANCH   7   9
HETATM    9  C   UNK N   1      33.920  18.226   8.322  0.00  0.00     0.178 C 
BRANCH   9  10
HETATM   10  C   UNK N   1      32.588  17.764   7.827  0.00  0.00     0.043 A 
HETATM   11  N   UNK N   1      31.498  18.027   8.591  0.00  0.00    -0.350 N 
HETATM   12  C   UNK N   1      30.261  17.662   8.216  0.00  0.00     0.147 A 
ATOM     13  HN  UNK N   1      31.620  18.517   9.476  1.00  0.00     0.166 HD
HETATM   14  C   UNK N   1      30.081  16.991   7.006  0.00  0.00     0.153 A 
HETATM   15  C   UNK N   1      29.161  17.949   9.015  0.00  0.00     0.290 A 
HETATM   16  N   UNK N   1      28.828  16.627   6.626  0.00  0.00    -0.174 N 
HETATM   17  N   UNK N   1      31.164  16.712   6.226  0.00  0.00    -0.348 N 
HETATM   18  C   UNK N   1      27.752  16.914   7.414  0.00  0.00     0.680 A 
HETATM   19  H   UNK N   1      28.695  16.152   5.773  0.00  0.00     0.186 HD
HETATM   20  N   UNK N   1      27.916  17.567   8.597  0.00  0.00    -0.154 N 
HETATM   21  N   UNK N   1      26.461  16.533   7.006  0.00  0.00    -0.234 N 
ATOM     22  HN  UNK N   1      27.104  17.774   9.178  1.00  0.00     0.187 HD
HETATM   23  H   UNK N   1      25.683  16.738   7.575  0.00  0.00     0.174 HD
HETATM   24  H   UNK N   1      26.334  16.061   6.151  0.00  0.00     0.174 HD
HETATM   25  C   UNK N   1      32.422  17.086   6.612  0.00  0.00     0.116 A 
ATOM     26  HN  UNK N   1      31.035  16.218   5.343  1.00  0.00     0.167 HD
HETATM   27  O   UNK N   1      29.297  18.535  10.075  0.00  0.00    -0.265 OA
ENDBRANCH   9  10
ENDBRANCH   7   9
ENDBRANCH   2   7
BRANCH   1  28
HETATM   28  C   UNK N   1      35.285  13.471  12.662  0.00  0.00     0.252 C 
HETATM   29  O   UNK N   1      35.080  12.278  12.503  0.00  0.00    -0.268 OA
HETATM   30  N   UNK N   1      35.616  13.984  13.871  0.00  0.00    -0.343 N 
HETATM   31  H   UNK N   1      35.684  14.966  13.908  0.00  0.00     0.163 HD
BRANCH  30  32
HETATM   32  C   UNK N   1      35.883  13.298  15.117  0.00  0.00     0.183 C 
BRANCH  32  33
HETATM   33  C   UNK N   1      34.628  12.751  15.789  0.00  0.00     0.046 C 
BRANCH  33  34
HETATM   34  C   UNK N   1      34.926  11.328  16.245  0.00  0.00     0.112 C 
BRANCH  34  35
HETATM   35  C   UNK N   1      34.491  10.327  15.232  0.00  0.00     0.139 C 
HETATM   36  O   UNK N   1      35.028   9.233  15.190  0.00  0.00    -0.650 OA
BRANCH  35  37
HETATM   37  O   UNK N   1      33.484  10.612  14.387  0.00  0.00    -0.776 OA
HETATM   38  H   UNK N   1      32.838  10.016  14.059  0.00  0.00     0.167 HD
ENDBRANCH  35  37
ENDBRANCH  34  35
ENDBRANCH  33  34
ENDBRANCH  32  33
BRANCH  32  39
HETATM   39  C   UNK N   1      36.623  14.251  16.017  0.00  0.00     0.163 C 
HETATM   40  O   UNK N   1      36.194  14.514  17.134  0.00  0.00    -0.648 OA
BRANCH  39  41
HETATM   41  O   UNK N   1      37.749  14.846  15.587  0.00  0.00    -0.775 OA
HETATM   42  H   UNK N   1      37.902  15.755  15.759  0.00  0.00     0.167 HD
ENDBRANCH  39  41
ENDBRANCH  32  39
ENDBRANCH  30  32
ENDBRANCH   1  28
TORSDOF 11
ENDMDL
MODEL 8
REMARK VINA RESULT:      -7.4      1.700      2.475
REMARK  11 active torsions:
REMARK  status: ('A' for Active; 'I' for Inactive)
REMARK    1  A    between atoms: O_1  and  C_22 
REMARK    2  A    between atoms: O_4  and  C_30 
REMARK    3  A    between atoms: C_17  and  N_7 
REMARK       I    between atoms: N_7  and  C_20 
REMARK    4  A    between atoms: N_8  and  C_23 
REMARK    5  A    between atoms: N_8  and  C_24 
REMARK       I    between atoms: N_16  and  C_35 
REMARK    6  A    between atoms: C_17  and  C_18 
REMARK    7  A    between atoms: C_17  and  C_22 
REMARK    8  A    between atoms: C_18  and  C_19 
REMARK    9  A    between atoms: C_19  and  C_30 
REMARK   10  A    between atoms: C_20  and  C_21 
REMARK   11  A    between atoms: C_24  and  C_29 
ROOT
HETATM    1  C   UNK N   1      24.010  17.957   4.667  0.00  0.00     0.032 A 
HETATM    2  C   UNK N   1      26.562  16.864   4.518  0.00  0.00     0.028 A 
HETATM    3  C   UNK N   1      24.197  16.572   4.795  0.00  0.00     0.019 A 
HETATM    4  C   UNK N   1      25.110  18.795   4.473  0.00  0.00     0.019 A 
HETATM    5  C   UNK N   1      25.470  16.021   4.720  0.00  0.00     0.030 A 
HETATM    6  C   UNK N   1      26.383  18.245   4.402  0.00  0.00     0.030 A 
ENDROOT
BRANCH   2   7
HETATM    7  N   UNK N   1      27.861  16.364   4.409  0.00  0.00    -0.384 N 
HETATM    8  H   UNK N   1      28.070  15.575   4.961  0.00  0.00     0.160 HD
BRANCH   7   9
HETATM    9  C   UNK N   1      28.932  16.865   3.585  0.00  0.00     0.178 C 
BRANCH   9  10
HETATM   10  C   UNK N   1      30.107  16.979   4.499  0.00  0.00     0.043 A 
HETATM   11  N   UNK N   1      29.872  17.053   5.834  0.00  0.00    -0.350 N 
HETATM   12  C   UNK N   1      30.870  17.142   6.729  0.00  0.00     0.147 A 
ATOM     13  HN  UNK N   1      28.909  17.041   6.168  1.00  0.00     0.166 HD
HETATM   14  C   UNK N   1      32.191  17.161   6.284  0.00  0.00     0.153 A 
HETATM   15  C   UNK N   1      30.600  17.212   8.091  0.00  0.00     0.290 A 
HETATM   16  N   UNK N   1      33.199  17.245   7.191  0.00  0.00    -0.174 N 
HETATM   17  N   UNK N   1      32.450  17.092   4.946  0.00  0.00    -0.348 N 
HETATM   18  C   UNK N   1      32.928  17.311   8.526  0.00  0.00     0.680 A 
HETATM   19  H   UNK N   1      34.134  17.259   6.882  0.00  0.00     0.186 HD
HETATM   20  N   UNK N   1      31.642  17.296   8.972  0.00  0.00    -0.154 N 
HETATM   21  N   UNK N   1      33.982  17.396   9.454  0.00  0.00    -0.234 N 
ATOM     22  HN  UNK N   1      31.453  17.347   9.973  1.00  0.00     0.187 HD
HETATM   23  H   UNK N   1      33.788  17.444  10.418  0.00  0.00     0.174 HD
HETATM   24  H   UNK N   1      34.915  17.406   9.139  0.00  0.00     0.174 HD
HETATM   25  C   UNK N   1      31.430  17.001   4.039  0.00  0.00     0.116 A 
ATOM     26  HN  UNK N   1      33.415  17.109   4.618  1.00  0.00     0.167 HD
HETATM   27  O   UNK N   1      29.452  17.197   8.500  0.00  0.00    -0.265 OA
ENDBRANCH   9  10
ENDBRANCH   7   9
ENDBRANCH   2   7
BRANCH   1  28
HETATM   28  C   UNK N   1      22.653  18.496   4.689  0.00  0.00     0.252 C 
HETATM   29  O   UNK N   1      22.084  18.697   5.751  0.00  0.00    -0.268 OA
HETATM   30  N   UNK N   1      22.067  18.778   3.501  0.00  0.00    -0.343 N 
HETATM   31  H   UNK N   1      22.579  18.508   2.704  0.00  0.00     0.163 HD
BRANCH  30  32
HETATM   32  C   UNK N   1      20.797  19.417   3.233  0.00  0.00     0.183 C 
BRANCH  32  33
HETATM   33  C   UNK N   1      19.737  18.459   2.699  0.00  0.00     0.046 C 
BRANCH  33  34
HETATM   34  C   UNK N   1      20.433  17.160   2.314  0.00  0.00     0.112 C 
BRANCH  34  35
HETATM   35  C   UNK N   1      20.233  16.839   0.873  0.00  0.00     0.139 C 
HETATM   36  O   UNK N   1      19.952  15.700   0.539  0.00  0.00    -0.650 OA
BRANCH  35  37
HETATM   37  O   UNK N   1      20.327  17.806  -0.056  0.00  0.00    -0.776 OA
HETATM   38  H   UNK N   1      21.084  18.030  -0.561  0.00  0.00     0.167 HD
ENDBRANCH  35  37
ENDBRANCH  34  35
ENDBRANCH  33  34
ENDBRANCH  32  33
BRANCH  32  39
HETATM   39  C   UNK N   1      21.047  20.554   2.277  0.00  0.00     0.163 C 
HETATM   40  O   UNK N   1      20.844  20.416   1.078  0.00  0.00    -0.648 OA
BRANCH  39  41
HETATM   41  O   UNK N   1      21.526  21.723   2.735  0.00  0.00    -0.775 OA
HETATM   42  H   UNK N   1      21.560  22.474   2.175  0.00  0.00     0.167 HD
ENDBRANCH  39  41
ENDBRANCH  32  39
ENDBRANCH  30  32
ENDBRANCH   1  28
TORSDOF 11
ENDMDL
MODEL 9
REMARK VINA RESULT:      -7.4      5.821      9.616
REMARK  11 active torsions:
REMARK  status: ('A' for Active; 'I' for Inactive)
REMARK    1  A    between atoms: O_1  and  C_22 
REMARK    2  A    between atoms: O_4  and  C_30 
REMARK    3  A    between atoms: C_17  and  N_7 
REMARK       I    between atoms: N_7  and  C_20 
REMARK    4  A    between atoms: N_8  and  C_23 
REMARK    5  A    between atoms: N_8  and  C_24 
REMARK       I    between atoms: N_16  and  C_35 
REMARK    6  A    between atoms: C_17  and  C_18 
REMARK    7  A    between atoms: C_17  and  C_22 
REMARK    8  A    between atoms: C_18  and  C_19 
REMARK    9  A    between atoms: C_19  and  C_30 
REMARK   10  A    between atoms: C_20  and  C_21 
REMARK   11  A    between atoms: C_24  and  C_29 
ROOT
HETATM    1  C   UNK N   1      32.693  17.009   7.231  0.00  0.00     0.032 A 
HETATM    2  C   UNK N   1      34.364  16.744   9.438  0.00  0.00     0.028 A 
HETATM    3  C   UNK N   1      33.721  17.938   7.459  0.00  0.00     0.019 A 
HETATM    4  C   UNK N   1      32.511  15.940   8.110  0.00  0.00     0.019 A 
HETATM    5  C   UNK N   1      34.557  17.810   8.562  0.00  0.00     0.030 A 
HETATM    6  C   UNK N   1      33.351  15.809   9.209  0.00  0.00     0.030 A 
ENDROOT
BRANCH   2   7
HETATM    7  N   UNK N   1      35.158  16.579  10.575  0.00  0.00    -0.384 N 
HETATM    8  H   UNK N   1      34.908  17.120  11.359  0.00  0.00     0.160 HD
BRANCH   7   9
HETATM    9  C   UNK N   1      36.298  15.713  10.735  0.00  0.00     0.178 C 
BRANCH   9  10
HETATM   10  C   UNK N   1      35.919  14.768  11.828  0.00  0.00     0.043 A 
HETATM   11  N   UNK N   1      36.479  14.950  13.051  0.00  0.00    -0.350 N 
HETATM   12  C   UNK N   1      36.184  14.157  14.094  0.00  0.00     0.147 A 
ATOM     13  HN  UNK N   1      37.143  15.712  13.182  1.00  0.00     0.166 HD
HETATM   14  C   UNK N   1      35.276  13.111  13.926  0.00  0.00     0.153 A 
HETATM   15  C   UNK N   1      36.768  14.369  15.337  0.00  0.00     0.290 A 
HETATM   16  N   UNK N   1      34.975  12.314  14.984  0.00  0.00    -0.174 N 
HETATM   17  N   UNK N   1      34.706  12.907  12.703  0.00  0.00    -0.348 N 
HETATM   18  C   UNK N   1      35.550  12.529  16.202  0.00  0.00     0.680 A 
HETATM   19  H   UNK N   1      34.335  11.573  14.870  0.00  0.00     0.186 HD
HETATM   20  N   UNK N   1      36.438  13.546  16.377  0.00  0.00    -0.154 N 
HETATM   21  N   UNK N   1      35.226  11.696  17.289  0.00  0.00    -0.234 N 
ATOM     22  HN  UNK N   1      36.862  13.695  17.293  1.00  0.00     0.187 HD
HETATM   23  H   UNK N   1      35.641  11.849  18.169  0.00  0.00     0.174 HD
HETATM   24  H   UNK N   1      34.584  10.959  17.170  0.00  0.00     0.174 HD
HETATM   25  C   UNK N   1      35.010  13.717  11.644  0.00  0.00     0.116 A 
ATOM     26  HN  UNK N   1      34.046  12.141  12.577  1.00  0.00     0.167 HD
HETATM   27  O   UNK N   1      37.563  15.278  15.505  0.00  0.00    -0.265 OA
ENDBRANCH   9  10
ENDBRANCH   7   9
ENDBRANCH   2   7
BRANCH   1  28
HETATM   28  C   UNK N   1      31.794  17.208   6.098  0.00  0.00     0.252 C 
HETATM   29  O   UNK N   1      32.232  17.557   5.014  0.00  0.00    -0.268 OA
HETATM   30  N   UNK N   1      30.473  16.975   6.293  0.00  0.00    -0.343 N 
HETATM   31  H   UNK N   1      30.214  16.774   7.221  0.00  0.00     0.163 HD
BRANCH  30  32
HETATM   32  C   UNK N   1      29.390  16.980   5.334  0.00  0.00     0.183 C 
BRANCH  32  33
HETATM   33  C   UNK N   1      28.070  17.477   5.913  0.00  0.00     0.046 C 
BRANCH  33  34
HETATM   34  C   UNK N   1      27.997  17.021   7.365  0.00  0.00     0.112 C 
BRANCH  34  35
HETATM   35  C   UNK N   1      28.167  18.162   8.307  0.00  0.00     0.139 C 
HETATM   36  O   UNK N   1      28.947  19.061   8.037  0.00  0.00    -0.650 OA
BRANCH  35  37
HETATM   37  O   UNK N   1      27.438  18.224   9.436  0.00  0.00    -0.776 OA
HETATM   38  H   UNK N   1      27.764  18.249  10.315  0.00  0.00     0.167 HD
ENDBRANCH  35  37
ENDBRANCH  34  35
ENDBRANCH  33  34
ENDBRANCH  32  33
BRANCH  32  39
HETATM   39  C   UNK N   1      29.261  15.586   4.779  0.00  0.00     0.163 C 
HETATM   40  O   UNK N   1      29.628  14.619   5.434  0.00  0.00    -0.648 OA
BRANCH  39  41
HETATM   41  O   UNK N   1      28.767  15.397   3.544  0.00  0.00    -0.775 OA
HETATM   42  H   UNK N   1      29.236  15.704   2.792  0.00  0.00     0.167 HD
ENDBRANCH  39  41
ENDBRANCH  32  39
ENDBRANCH  30  32
ENDBRANCH   1  28
TORSDOF 11
ENDMDL
