MODEL 1
REMARK VINA RESULT:      -4.0      0.000      0.000
REMARK  7 active torsions:
REMARK  status: ('A' for Active; 'I' for Inactive)
REMARK    1  A    between atoms: C_2  and  C_1 
REMARK    2  A    between atoms: N_7  and  C_1 
REMARK    3  A    between atoms: C_3  and  C_2 
REMARK    4  A    between atoms: C_4  and  C_3 
REMARK    5  A    between atoms: C_5  and  C_4 
REMARK    6  A    between atoms: C_4  and  N_8 
REMARK    7  A    between atoms: O_9  and  C_5 
ROOT
HETATM    1  C   UNK N   1      33.865  17.282   8.921  0.00  0.00     0.173 C 
ENDROOT
BRANCH   1   2
HETATM    2  C   UNK N   1      32.551  16.533   8.710  0.00  0.00     0.037 C 
BRANCH   2   3
HETATM    3  C   UNK N   1      31.341  17.400   8.384  0.00  0.00     0.021 C 
BRANCH   3   4
HETATM    4  C   UNK N   1      30.721  17.097   7.012  0.00  0.00     0.111 C 
BRANCH   4   5
HETATM    5  N   UNK N   1      31.684  17.165   5.921  0.00  0.00    -0.430 N 
HETATM    6  H   UNK N   1      31.358  17.221   4.955  0.00  0.00     0.149 HD
HETATM    7  H   UNK N   1      32.684  17.157   6.121  0.00  0.00     0.149 HD
ENDBRANCH   4   5
ENDBRANCH   3   4
ENDBRANCH   2   3
ENDBRANCH   1   2
BRANCH   1   8
HETATM    8  C   UNK N   1      34.527  18.277   8.003  0.00  0.00     0.163 C 
HETATM    9  O   UNK N   1      35.143  19.229   8.452  0.00  0.00    -0.648 OA
BRANCH   8  10
HETATM   10  O   UNK N   1      34.438  18.113   6.669  0.00  0.00    -0.775 OA
HETATM   11  H   UNK N   1      34.669  18.815   6.093  0.00  0.00     0.167 HD
ENDBRANCH   8  10
ENDBRANCH   1   8
BRANCH   1  12
HETATM   12  N   UNK N   1      34.552  16.990  10.165  0.00  0.00    -0.418 N 
HETATM   13  H   UNK N   1      35.562  17.117  10.232  0.00  0.00     0.150 HD
HETATM   14  H   UNK N   1      34.026  16.657  10.972  0.00  0.00     0.150 HD
ENDBRANCH   1  12
TORSDOF 7
ENDMDL
MODEL 2
REMARK VINA RESULT:      -3.9     14.099     14.832
REMARK  7 active torsions:
REMARK  status: ('A' for Active; 'I' for Inactive)
REMARK    1  A    between atoms: C_2  and  C_1 
REMARK    2  A    between atoms: N_7  and  C_1 
REMARK    3  A    between atoms: C_3  and  C_2 
REMARK    4  A    between atoms: C_4  and  C_3 
REMARK    5  A    between atoms: C_5  and  C_4 
REMARK    6  A    between atoms: C_4  and  N_8 
REMARK    7  A    between atoms: O_9  and  C_5 
ROOT
HETATM    1  C   UNK N   1      20.253  19.036   2.003  0.00  0.00     0.173 C 
ENDROOT
BRANCH   1   2
HETATM    2  C   UNK N   1      20.836  17.660   2.319  0.00  0.00     0.037 C 
BRANCH   2   3
HETATM    3  C   UNK N   1      20.144  16.478   1.650  0.00  0.00     0.021 C 
BRANCH   3   4
HETATM    4  C   UNK N   1      19.771  16.736   0.183  0.00  0.00     0.111 C 
BRANCH   4   5
HETATM    5  N   UNK N   1      18.355  16.537  -0.091  0.00  0.00    -0.430 N 
HETATM    6  H   UNK N   1      18.015  15.619  -0.380  0.00  0.00     0.149 HD
HETATM    7  H   UNK N   1      17.702  17.314   0.005  0.00  0.00     0.149 HD
ENDBRANCH   4   5
ENDBRANCH   3   4
ENDBRANCH   2   3
ENDBRANCH   1   2
BRANCH   1   8
HETATM    8  C   UNK N   1      20.911  20.183   1.281  0.00  0.00     0.163 C 
HETATM    9  O   UNK N   1      21.724  20.894   1.845  0.00  0.00    -0.648 OA
BRANCH   8  10
HETATM   10  O   UNK N   1      20.597  20.426  -0.006  0.00  0.00    -0.775 OA
HETATM   11  H   UNK N   1      21.174  20.932  -0.543  0.00  0.00     0.167 HD
ENDBRANCH   8  10
ENDBRANCH   1   8
BRANCH   1  12
HETATM   12  N   UNK N   1      18.893  19.252   2.460  0.00  0.00    -0.418 N 
HETATM   13  H   UNK N   1      18.723  19.722   3.349  0.00  0.00     0.150 HD
HETATM   14  H   UNK N   1      18.108  18.934   1.892  0.00  0.00     0.150 HD
ENDBRANCH   1  12
TORSDOF 7
ENDMDL
MODEL 3
REMARK VINA RESULT:      -3.9      1.955      2.347
REMARK  7 active torsions:
REMARK  status: ('A' for Active; 'I' for Inactive)
REMARK    1  A    between atoms: C_2  and  C_1 
REMARK    2  A    between atoms: N_7  and  C_1 
REMARK    3  A    between atoms: C_3  and  C_2 
REMARK    4  A    between atoms: C_4  and  C_3 
REMARK    5  A    between atoms: C_5  and  C_4 
REMARK    6  A    between atoms: C_4  and  N_8 
REMARK    7  A    between atoms: O_9  and  C_5 
ROOT
HETATM    1  C   UNK N   1      33.083  17.521   8.425  0.00  0.00     0.173 C 
ENDROOT
BRANCH   1   2
HETATM    2  C   UNK N   1      31.598  17.549   8.065  0.00  0.00     0.037 C 
BRANCH   2   3
HETATM    3  C   UNK N   1      30.720  18.423   8.952  0.00  0.00     0.021 C 
BRANCH   3   4
HETATM    4  C   UNK N   1      29.468  17.704   9.475  0.00  0.00     0.111 C 
BRANCH   4   5
HETATM    5  N   UNK N   1      28.244  18.470   9.281  0.00  0.00    -0.430 N 
HETATM    6  H   UNK N   1      27.337  18.035   9.453  0.00  0.00     0.149 HD
HETATM    7  H   UNK N   1      28.293  19.441   8.974  0.00  0.00     0.149 HD
ENDBRANCH   4   5
ENDBRANCH   3   4
ENDBRANCH   2   3
ENDBRANCH   1   2
BRANCH   1   8
HETATM    8  C   UNK N   1      34.225  18.201   7.716  0.00  0.00     0.163 C 
HETATM    9  O   UNK N   1      34.478  17.950   6.550  0.00  0.00    -0.648 OA
BRANCH   8  10
HETATM   10  O   UNK N   1      34.978  19.100   8.379  0.00  0.00    -0.775 OA
HETATM   11  H   UNK N   1      35.156  18.982   9.292  0.00  0.00     0.167 HD
ENDBRANCH   8  10
ENDBRANCH   1   8
BRANCH   1  12
HETATM   12  N   UNK N   1      33.422  16.738   9.597  0.00  0.00    -0.418 N 
HETATM   13  H   UNK N   1      33.774  15.787   9.491  0.00  0.00     0.150 HD
HETATM   14  H   UNK N   1      33.308  17.138  10.529  0.00  0.00     0.150 HD
ENDBRANCH   1  12
TORSDOF 7
ENDMDL
MODEL 4
REMARK VINA RESULT:      -3.8      4.414      6.045
REMARK  7 active torsions:
REMARK  status: ('A' for Active; 'I' for Inactive)
REMARK    1  A    between atoms: C_2  and  C_1 
REMARK    2  A    between atoms: N_7  and  C_1 
REMARK    3  A    between atoms: C_3  and  C_2 
REMARK    4  A    between atoms: C_4  and  C_3 
REMARK    5  A    between atoms: C_5  and  C_4 
REMARK    6  A    between atoms: C_4  and  N_8 
REMARK    7  A    between atoms: O_9  and  C_5 
ROOT
HETATM    1  C   UNK N   1      34.720  14.970  11.028  0.00  0.00     0.173 C 
ENDROOT
BRANCH   1   2
HETATM    2  C   UNK N   1      35.112  13.553  11.446  0.00  0.00     0.037 C 
BRANCH   2   3
HETATM    3  C   UNK N   1      35.138  13.290  12.947  0.00  0.00     0.021 C 
BRANCH   3   4
HETATM    4  C   UNK N   1      36.525  13.478  13.578  0.00  0.00     0.111 C 
BRANCH   4   5
HETATM    5  N   UNK N   1      36.787  14.851  13.989  0.00  0.00    -0.430 N 
HETATM    6  H   UNK N   1      36.029  15.427  14.358  0.00  0.00     0.149 HD
HETATM    7  H   UNK N   1      37.727  15.237  13.909  0.00  0.00     0.149 HD
ENDBRANCH   4   5
ENDBRANCH   3   4
ENDBRANCH   2   3
ENDBRANCH   1   2
BRANCH   1   8
HETATM    8  C   UNK N   1      35.613  16.173  10.867  0.00  0.00     0.163 C 
HETATM    9  O   UNK N   1      35.144  17.272  10.622  0.00  0.00    -0.648 OA
BRANCH   8  10
HETATM   10  O   UNK N   1      36.946  16.033  10.994  0.00  0.00    -0.775 OA
HETATM   11  H   UNK N   1      37.460  16.733  11.346  0.00  0.00     0.167 HD
ENDBRANCH   8  10
ENDBRANCH   1   8
BRANCH   1  12
HETATM   12  N   UNK N   1      33.309  15.167  10.755  0.00  0.00    -0.418 N 
HETATM   13  H   UNK N   1      32.608  14.730  11.353  0.00  0.00     0.150 HD
HETATM   14  H   UNK N   1      33.019  15.743   9.965  0.00  0.00     0.150 HD
ENDBRANCH   1  12
TORSDOF 7
ENDMDL
MODEL 5
REMARK VINA RESULT:      -3.8      2.211      4.324
REMARK  7 active torsions:
REMARK  status: ('A' for Active; 'I' for Inactive)
REMARK    1  A    between atoms: C_2  and  C_1 
REMARK    2  A    between atoms: N_7  and  C_1 
REMARK    3  A    between atoms: C_3  and  C_2 
REMARK    4  A    between atoms: C_4  and  C_3 
REMARK    5  A    between atoms: C_5  and  C_4 
REMARK    6  A    between atoms: C_4  and  N_8 
REMARK    7  A    between atoms: O_9  and  C_5 
ROOT
HETATM    1  C   UNK N   1      33.857  17.194   8.869  0.00  0.00     0.173 C 
ENDROOT
BRANCH   1   2
HETATM    2  C   UNK N   1      34.480  16.005   9.599  0.00  0.00     0.037 C 
BRANCH   2   3
HETATM    3  C   UNK N   1      35.280  16.344  10.851  0.00  0.00     0.021 C 
BRANCH   3   4
HETATM    4  C   UNK N   1      36.134  15.177  11.367  0.00  0.00     0.111 C 
BRANCH   4   5
HETATM    5  N   UNK N   1      36.353  15.220  12.807  0.00  0.00    -0.430 N 
HETATM    6  H   UNK N   1      35.719  14.725  13.435  0.00  0.00     0.149 HD
HETATM    7  H   UNK N   1      37.140  15.746  13.188  0.00  0.00     0.149 HD
ENDBRANCH   4   5
ENDBRANCH   3   4
ENDBRANCH   2   3
ENDBRANCH   1   2
BRANCH   1   8
HETATM    8  C   UNK N   1      34.542  18.217   8.001  0.00  0.00     0.163 C 
HETATM    9  O   UNK N   1      34.436  18.180   6.787  0.00  0.00    -0.648 OA
BRANCH   8  10
HETATM   10  O   UNK N   1      35.283  19.185   8.574  0.00  0.00    -0.775 OA
HETATM   11  H   UNK N   1      36.205  19.225   8.417  0.00  0.00     0.167 HD
ENDBRANCH   8  10
ENDBRANCH   1   8
BRANCH   1  12
HETATM   12  N   UNK N   1      32.424  17.345   9.042  0.00  0.00    -0.418 N 
HETATM   13  H   UNK N   1      32.060  18.007   9.727  0.00  0.00     0.150 HD
HETATM   14  H   UNK N   1      31.781  16.789   8.478  0.00  0.00     0.150 HD
ENDBRANCH   1  12
TORSDOF 7
ENDMDL
MODEL 6
REMARK VINA RESULT:      -3.8     11.741     13.640
REMARK  7 active torsions:
REMARK  status: ('A' for Active; 'I' for Inactive)
REMARK    1  A    between atoms: C_2  and  C_1 
REMARK    2  A    between atoms: N_7  and  C_1 
REMARK    3  A    between atoms: C_3  and  C_2 
REMARK    4  A    between atoms: C_4  and  C_3 
REMARK    5  A    between atoms: C_5  and  C_4 
REMARK    6  A    between atoms: C_4  and  N_8 
REMARK    7  A    between atoms: O_9  and  C_5 
ROOT
HETATM    1  C   UNK N   1      20.318  19.076   2.240  0.00  0.00     0.173 C 
ENDROOT
BRANCH   1   2
HETATM    2  C   UNK N   1      21.182  18.149   3.094  0.00  0.00     0.037 C 
BRANCH   2   3
HETATM    3  C   UNK N   1      21.980  18.824   4.203  0.00  0.00     0.021 C 
BRANCH   3   4
HETATM    4  C   UNK N   1      23.474  18.971   3.882  0.00  0.00     0.111 C 
BRANCH   4   5
HETATM    5  N   UNK N   1      23.802  20.239   3.244  0.00  0.00    -0.430 N 
HETATM    6  H   UNK N   1      23.472  20.436   2.298  0.00  0.00     0.149 HD
HETATM    7  H   UNK N   1      24.360  20.932   3.743  0.00  0.00     0.149 HD
ENDBRANCH   4   5
ENDBRANCH   3   4
ENDBRANCH   2   3
ENDBRANCH   1   2
BRANCH   1   8
HETATM    8  C   UNK N   1      20.765  20.202   1.344  0.00  0.00     0.163 C 
HETATM    9  O   UNK N   1      21.246  21.221   1.811  0.00  0.00    -0.648 OA
BRANCH   8  10
HETATM   10  O   UNK N   1      20.631  20.082   0.009  0.00  0.00    -0.775 OA
HETATM   11  H   UNK N   1      20.000  19.489  -0.348  0.00  0.00     0.167 HD
ENDBRANCH   8  10
ENDBRANCH   1   8
BRANCH   1  12
HETATM   12  N   UNK N   1      18.890  18.830   2.310  0.00  0.00    -0.418 N 
HETATM   13  H   UNK N   1      18.262  19.563   2.639  0.00  0.00     0.150 HD
HETATM   14  H   UNK N   1      18.515  17.924   2.029  0.00  0.00     0.150 HD
ENDBRANCH   1  12
TORSDOF 7
ENDMDL
MODEL 7
REMARK VINA RESULT:      -3.7     14.226     14.785
REMARK  7 active torsions:
REMARK  status: ('A' for Active; 'I' for Inactive)
REMARK    1  A    between atoms: C_2  and  C_1 
REMARK    2  A    between atoms: N_7  and  C_1 
REMARK    3  A    between atoms: C_3  and  C_2 
REMARK    4  A    between atoms: C_4  and  C_3 
REMARK    5  A    between atoms: C_5  and  C_4 
REMARK    6  A    between atoms: C_4  and  N_8 
REMARK    7  A    between atoms: O_9  and  C_5 
ROOT
HETATM    1  C   UNK N   1      19.873  17.452   2.129  0.00  0.00     0.173 C 
ENDROOT
BRANCH   1   2
HETATM    2  C   UNK N   1      19.721  18.874   2.667  0.00  0.00     0.037 C 
BRANCH   2   3
HETATM    3  C   UNK N   1      20.974  19.739   2.613  0.00  0.00     0.021 C 
BRANCH   3   4
HETATM    4  C   UNK N   1      20.796  21.027   1.796  0.00  0.00     0.111 C 
BRANCH   4   5
HETATM    5  N   UNK N   1      20.506  20.779   0.391  0.00  0.00    -0.430 N 
HETATM    6  H   UNK N   1      21.270  20.698  -0.282  0.00  0.00     0.149 HD
HETATM    7  H   UNK N   1      19.540  20.685   0.077  0.00  0.00     0.149 HD
ENDBRANCH   4   5
ENDBRANCH   3   4
ENDBRANCH   2   3
ENDBRANCH   1   2
BRANCH   1   8
HETATM    8  C   UNK N   1      20.313  17.019   0.754  0.00  0.00     0.163 C 
HETATM    9  O   UNK N   1      20.694  15.880   0.549  0.00  0.00    -0.648 OA
BRANCH   8  10
HETATM   10  O   UNK N   1      20.283  17.903  -0.262  0.00  0.00    -0.775 OA
HETATM   11  H   UNK N   1      20.608  18.773  -0.137  0.00  0.00     0.167 HD
ENDBRANCH   8  10
ENDBRANCH   1   8
BRANCH   1  12
HETATM   12  N   UNK N   1      19.551  16.396   3.070  0.00  0.00    -0.418 N 
HETATM   13  H   UNK N   1      18.706  15.839   2.942  0.00  0.00     0.150 HD
HETATM   14  H   UNK N   1      20.170  16.211   3.859  0.00  0.00     0.150 HD
ENDBRANCH   1  12
TORSDOF 7
ENDMDL
MODEL 8
REMARK VINA RESULT:      -3.7     13.598     14.177
REMARK  7 active torsions:
REMARK  status: ('A' for Active; 'I' for Inactive)
REMARK    1  A    between atoms: C_2  and  C_1 
REMARK    2  A    between atoms: N_7  and  C_1 
REMARK    3  A    between atoms: C_3  and  C_2 
REMARK    4  A    between atoms: C_4  and  C_3 
REMARK    5  A    between atoms: C_5  and  C_4 
REMARK    6  A    between atoms: C_4  and  N_8 
REMARK    7  A    between atoms: O_9  and  C_5 
ROOT
HETATM    1  C   UNK N   1      21.184  20.018   2.350  0.00  0.00     0.173 C 
ENDROOT
BRANCH   1   2
HETATM    2  C   UNK N   1      20.316  19.100   3.209  0.00  0.00     0.037 C 
BRANCH   2   3
HETATM    3  C   UNK N   1      20.705  17.627   3.202  0.00  0.00     0.021 C 
BRANCH   3   4
HETATM    4  C   UNK N   1      20.435  16.927   1.862  0.00  0.00     0.111 C 
BRANCH   4   5
HETATM    5  N   UNK N   1      19.228  17.404   1.200  0.00  0.00    -0.430 N 
HETATM    6  H   UNK N   1      18.614  18.067   1.673  0.00  0.00     0.149 HD
HETATM    7  H   UNK N   1      18.996  17.075   0.263  0.00  0.00     0.149 HD
ENDBRANCH   4   5
ENDBRANCH   3   4
ENDBRANCH   2   3
ENDBRANCH   1   2
BRANCH   1   8
HETATM    8  C   UNK N   1      20.832  20.675   1.040  0.00  0.00     0.163 C 
HETATM    9  O   UNK N   1      20.729  21.886   0.954  0.00  0.00    -0.648 OA
BRANCH   8  10
HETATM   10  O   UNK N   1      20.628  19.912  -0.051  0.00  0.00    -0.775 OA
HETATM   11  H   UNK N   1      20.927  20.203  -0.890  0.00  0.00     0.167 HD
ENDBRANCH   8  10
ENDBRANCH   1   8
BRANCH   1  12
HETATM   12  N   UNK N   1      22.510  20.284   2.872  0.00  0.00    -0.418 N 
HETATM   13  H   UNK N   1      22.663  20.324   3.880  0.00  0.00     0.150 HD
HETATM   14  H   UNK N   1      23.291  20.430   2.232  0.00  0.00     0.150 HD
ENDBRANCH   1  12
TORSDOF 7
ENDMDL
MODEL 9
REMARK VINA RESULT:      -3.7     11.174     11.928
REMARK  7 active torsions:
REMARK  status: ('A' for Active; 'I' for Inactive)
REMARK    1  A    between atoms: C_2  and  C_1 
REMARK    2  A    between atoms: N_7  and  C_1 
REMARK    3  A    between atoms: C_3  and  C_2 
REMARK    4  A    between atoms: C_4  and  C_3 
REMARK    5  A    between atoms: C_5  and  C_4 
REMARK    6  A    between atoms: C_4  and  N_8 
REMARK    7  A    between atoms: O_9  and  C_5 
ROOT
HETATM    1  C   UNK N   1      22.811  12.087  11.345  0.00  0.00     0.173 C 
ENDROOT
BRANCH   1   2
HETATM    2  C   UNK N   1      21.470  12.440  10.701  0.00  0.00     0.037 C 
BRANCH   2   3
HETATM    3  C   UNK N   1      21.451  13.718   9.872  0.00  0.00     0.021 C 
BRANCH   3   4
HETATM    4  C   UNK N   1      21.188  13.477   8.379  0.00  0.00     0.111 C 
BRANCH   4   5
HETATM    5  N   UNK N   1      21.798  12.252   7.880  0.00  0.00    -0.430 N 
HETATM    6  H   UNK N   1      22.661  11.904   8.300  0.00  0.00     0.149 HD
HETATM    7  H   UNK N   1      21.364  11.741   7.112  0.00  0.00     0.149 HD
ENDBRANCH   4   5
ENDBRANCH   3   4
ENDBRANCH   2   3
ENDBRANCH   1   2
BRANCH   1   8
HETATM    8  C   UNK N   1      24.186  12.170  10.735  0.00  0.00     0.163 C 
HETATM    9  O   UNK N   1      24.376  11.854   9.573  0.00  0.00    -0.648 OA
BRANCH   8  10
HETATM   10  O   UNK N   1      25.220  12.599  11.485  0.00  0.00    -0.775 OA
HETATM   11  H   UNK N   1      25.930  12.020  11.682  0.00  0.00     0.167 HD
ENDBRANCH   8  10
ENDBRANCH   1   8
BRANCH   1  12
HETATM   12  N   UNK N   1      22.735  11.615  12.714  0.00  0.00    -0.418 N 
HETATM   13  H   UNK N   1      23.512  11.089  13.116  0.00  0.00     0.150 HD
HETATM   14  H   UNK N   1      21.906  11.809  13.275  0.00  0.00     0.150 HD
ENDBRANCH   1  12
TORSDOF 7
ENDMDL
