REMARK  6 active torsions:
REMARK  status: ('A' for Active; 'I' for Inactive)
REMARK    1  A    between atoms: O_2  and  C_16 
REMARK    2  A    between atoms: N_3  and  C_10 
REMARK    3  A    between atoms: N_8  and  C_17 
REMARK    4  A    between atoms: C_10  and  C_13 
REMARK    5  A    between atoms: C_11  and  C_12 
REMARK    6  A    between atoms: C_12  and  C_16 
ROOT
HETATM    1  N   UNK N   1       4.206  -4.440   0.014  0.00  0.00    -0.332 N 
ATOM      2  HN  UNK N   1       4.172  -5.458   0.058  1.00  0.00     0.168 HD
HETATM    3  N   UNK N   1       5.463  -2.459  -0.099  0.00  0.00    -0.355 N 
ATOM      4  HN  UNK N   1       6.369  -1.992  -0.135  1.00  0.00     0.166 HD
HETATM    5  C   UNK N   1       3.076  -2.326  -0.059  0.00  0.00     0.019 A 
HETATM    6  C   UNK N   1       3.048  -3.733  -0.004  0.00  0.00     0.109 A 
HETATM    7  C   UNK N   1       4.326  -1.719  -0.124  0.00  0.00     0.102 A 
HETATM    8  C   UNK N   1       5.409  -3.812  -0.025  0.00  0.00     0.078 A 
HETATM    9  C   UNK N   1       6.664  -4.605   0.009  0.00  0.00     0.089 C 
ENDROOT
BRANCH   5  10
HETATM   10  C   UNK N   1       1.753  -1.580  -0.070  0.00  0.00     0.172 C 
BRANCH  10  11
HETATM   11  N   UNK N   1       1.549  -0.114  -0.026  0.00  0.00    -0.349 N 
HETATM   12  C   UNK N   1       2.413   0.961   0.219  0.00  0.00     0.021 A 
HETATM   13  C   UNK N   1       1.793   2.221   0.191  0.00  0.00     0.008 A 
HETATM   14  C   UNK N   1       3.861   0.862   0.525  0.00  0.00     0.069 C 
HETATM   15  S   UNK N   1       0.205   1.947  -0.116  0.00  0.00    -0.087 SA
HETATM   16  C   UNK N   1       0.266   0.300  -0.226  0.00  0.00     0.141 A 
BRANCH  13  17
HETATM   17  C   UNK N   1       2.403   3.567   0.427  0.00  0.00     0.074 C 
BRANCH  17  18
HETATM   18  C   UNK N   1       3.460   3.889  -0.615  0.00  0.00     0.169 C 
BRANCH  18  19
HETATM   19  O   UNK N   1       4.729   3.744  -0.055  0.00  0.00    -0.401 OA
HETATM   20  H   UNK N   1       5.083   2.929   0.335  0.00  0.00     0.209 HD
ENDBRANCH  18  19
ENDBRANCH  17  18
ENDBRANCH  13  17
ENDBRANCH  10  11
ENDBRANCH   5  10
BRANCH   6  21
HETATM   21  N   UNK N   1       1.816  -4.423   0.034  0.00  0.00    -0.385 N 
HETATM   22  H   UNK N   1       0.970  -3.921   0.061  0.00  0.00     0.157 HD
HETATM   23  H   UNK N   1       1.804  -5.408   0.034  0.00  0.00     0.157 HD
ENDBRANCH   6  21
TORSDOF 6
