REMARK  11 active torsions:
REMARK  status: ('A' for Active; 'I' for Inactive)
REMARK    1  A    between atoms: C_1  and  N_2 
REMARK    2  A    between atoms: C_1  and  C_3 
REMARK    3  A    between atoms: C_1  and  C_28 
REMARK    4  A    between atoms: C_3  and  C_4 
REMARK    5  A    between atoms: C_4  and  S_5 
REMARK    6  A    between atoms: S_5  and  C_7 
REMARK    7  A    between atoms: C_8  and  C_7 
REMARK    8  A    between atoms: C_10  and  N_11 
REMARK    9  A    between atoms: C_16  and  N_17 
REMARK   10  A    between atoms: C_24  and  O_25 
REMARK   11  A    between atoms: C_26  and  O_27 
ROOT
HETATM    1  C   UNK N   1       3.888  -1.046  -0.047  0.00  0.00     0.164 C 
HETATM    2  O   UNK N   1       3.699  -2.439   0.093  0.00  0.00    -0.355 OA
HETATM    3  C   UNK N   1       2.385  -2.648  -0.368  0.00  0.00     0.262 C 
HETATM    4  C   UNK N   1       1.597  -1.578   0.362  0.00  0.00     0.198 C 
HETATM    5  C   UNK N   1       2.530  -0.384   0.251  0.00  0.00     0.180 C 
ENDROOT
BRANCH   3   6
HETATM    6  N   UNK N   1       1.975  -4.031  -0.103  0.00  0.00    -0.297 N 
HETATM    7  C   UNK N   1       2.800  -5.109  -0.182  0.00  0.00     0.188 A 
HETATM    8  N   UNK N   1       2.124  -6.274   0.016  0.00  0.00    -0.346 N 
HETATM    9  C   UNK N   1       0.848  -5.889   0.198  0.00  0.00     0.122 A 
ATOM     10  HN  UNK N   1       2.498  -7.222   0.024  1.00  0.00     0.167 HD
HETATM   11  C   UNK N   1      -0.285  -6.654   0.408  0.00  0.00     0.131 A 
HETATM   12  C   UNK N   1       0.759  -4.546   0.126  0.00  0.00     0.142 A 
HETATM   13  N   UNK N   1      -1.480  -6.005   0.540  0.00  0.00    -0.337 N 
HETATM   14  C   UNK N   1      -1.551  -4.635   0.462  0.00  0.00     0.183 A 
ATOM     15  HN  UNK N   1      -2.331  -6.545   0.697  1.00  0.00     0.168 HD
HETATM   16  N   UNK N   1      -0.422  -3.892   0.248  0.00  0.00    -0.336 N 
ATOM     17  HN  UNK N   1      -0.467  -2.875   0.182  1.00  0.00     0.168 HD
BRANCH  11  18
HETATM   18  N   UNK N   1      -0.219  -8.060   0.469  0.00  0.00    -0.383 N 
HETATM   19  H   UNK N   1      -1.047  -8.591   0.511  0.00  0.00     0.157 HD
HETATM   20  H   UNK N   1       0.655  -8.512   0.469  0.00  0.00     0.157 HD
ENDBRANCH  11  18
ENDBRANCH   3   6
BRANCH   4  21
HETATM   21  O   UNK N   1       0.347  -1.315  -0.204  0.00  0.00    -0.388 OA
HETATM   22  H   UNK N   1       0.071  -0.472  -0.597  0.00  0.00     0.210 HD
ENDBRANCH   4  21
BRANCH   1  23
HETATM   23  C   UNK N   1       4.327  -0.768  -1.496  0.00  0.00     0.097 C 
BRANCH  23  24
HETATM   24  S   UNK N   1       5.806  -1.755  -1.915  0.00  0.00    -0.221 SA
HETATM   25  C   UNK N   1       5.681  -3.577  -1.959  0.00  0.00     0.078 C 
BRANCH  24  26
HETATM   26  C   UNK N   1       7.416  -0.975  -1.632  0.00  0.00     0.065 C 
BRANCH  26  27
HETATM   27  C   UNK N   1       7.378  -0.395  -0.230  0.00  0.00     0.045 C 
BRANCH  27  28
HETATM   28  C   UNK N   1       8.744  -0.334   0.432  0.00  0.00     0.177 C 
BRANCH  28  29
HETATM   29  N   UNK N   1       9.633   0.516  -0.345  0.00  0.00    -0.417 N 
HETATM   30  H   UNK N   1      10.461   0.274  -0.889  0.00  0.00     0.150 HD
HETATM   31  H   UNK N   1       9.392   1.507  -0.345  0.00  0.00     0.150 HD
ENDBRANCH  28  29
BRANCH  28  32
HETATM   32  C   UNK N   1       9.319  -1.715   0.596  0.00  0.00     0.196 C 
HETATM   33  O   UNK N   1      10.506  -2.033   0.043  0.00  0.00    -0.646 OA
HETATM   34  O   UNK N   1       8.707  -2.558   1.234  0.00  0.00    -0.646 OA
ENDBRANCH  28  32
ENDBRANCH  27  28
ENDBRANCH  26  27
ENDBRANCH  24  26
ENDBRANCH  23  24
ENDBRANCH   1  23
BRANCH   5  35
HETATM   35  O   UNK N   1       2.549   0.316   1.461  0.00  0.00    -0.390 OA
HETATM   36  H   UNK N   1       2.977   0.548   2.300  0.00  0.00     0.210 HD
ENDBRANCH   5  35
TORSDOF 11
