MODEL 1
REMARK VINA RESULT:      -3.8      0.000      0.000
REMARK  3 active torsions:
REMARK  status: ('A' for Active; 'I' for Inactive)
REMARK    1  A    between atoms: C_2  and  C_1 
REMARK    2  A    between atoms: O_3  and  C_1 
REMARK    3  A    between atoms: C_2  and  N_5 
ROOT
HETATM    1  C   UNK N   1      34.253  17.183   9.113  0.00  0.00     0.169 C 
HETATM    2  C   UNK N   1      33.190  16.155   8.777  0.00  0.00     0.043 C 
ENDROOT
BRANCH   1   3
HETATM    3  C   UNK N   1      34.675  18.253   8.155  0.00  0.00     0.162 C 
HETATM    4  O   UNK N   1      34.399  18.155   6.971  0.00  0.00    -0.648 OA
BRANCH   3   5
HETATM    5  O   UNK N   1      35.360  19.328   8.593  0.00  0.00    -0.775 OA
HETATM    6  H   UNK N   1      36.297  19.329   8.566  0.00  0.00     0.167 HD
ENDBRANCH   3   5
ENDBRANCH   1   3
BRANCH   1   7
HETATM    7  N   UNK N   1      34.880  17.117  10.421  0.00  0.00    -0.418 N 
HETATM    8  H   UNK N   1      35.868  17.350  10.525  0.00  0.00     0.150 HD
HETATM    9  H   UNK N   1      34.334  16.838  11.236  0.00  0.00     0.150 HD
ENDBRANCH   1   7
TORSDOF 3
ENDMDL
MODEL 2
REMARK VINA RESULT:      -3.7     15.143     15.490
REMARK  3 active torsions:
REMARK  status: ('A' for Active; 'I' for Inactive)
REMARK    1  A    between atoms: C_2  and  C_1 
REMARK    2  A    between atoms: O_3  and  C_1 
REMARK    3  A    between atoms: C_2  and  N_5 
ROOT
HETATM    1  C   UNK N   1      20.636  19.995   1.630  0.00  0.00     0.169 C 
HETATM    2  C   UNK N   1      20.386  18.499   1.649  0.00  0.00     0.043 C 
ENDROOT
BRANCH   1   3
HETATM    3  C   UNK N   1      21.007  20.769   2.856  0.00  0.00     0.162 C 
HETATM    4  O   UNK N   1      20.424  20.562   3.908  0.00  0.00    -0.648 OA
BRANCH   3   5
HETATM    5  O   UNK N   1      21.984  21.696   2.807  0.00  0.00    -0.775 OA
HETATM    6  H   UNK N   1      22.880  21.439   2.905  0.00  0.00     0.167 HD
ENDBRANCH   3   5
ENDBRANCH   1   3
BRANCH   1   7
HETATM    7  N   UNK N   1      20.508  20.694   0.363  0.00  0.00    -0.418 N 
HETATM    8  H   UNK N   1      21.050  20.389  -0.445  0.00  0.00     0.150 HD
HETATM    9  H   UNK N   1      19.877  21.491   0.282  0.00  0.00     0.150 HD
ENDBRANCH   1   7
TORSDOF 3
ENDMDL
MODEL 3
REMARK VINA RESULT:      -3.6      1.206      1.748
REMARK  3 active torsions:
REMARK  status: ('A' for Active; 'I' for Inactive)
REMARK    1  A    between atoms: C_2  and  C_1 
REMARK    2  A    between atoms: O_3  and  C_1 
REMARK    3  A    between atoms: C_2  and  N_5 
ROOT
HETATM    1  C   UNK N   1      33.297  17.543   8.663  0.00  0.00     0.169 C 
HETATM    2  C   UNK N   1      31.813  17.783   8.467  0.00  0.00     0.043 C 
ENDROOT
BRANCH   1   3
HETATM    3  C   UNK N   1      34.344  18.253   7.863  0.00  0.00     0.162 C 
HETATM    4  O   UNK N   1      35.039  19.107   8.388  0.00  0.00    -0.648 OA
BRANCH   3   5
HETATM    5  O   UNK N   1      34.525  17.953   6.561  0.00  0.00    -0.775 OA
HETATM    6  H   UNK N   1      34.260  17.117   6.232  0.00  0.00     0.167 HD
ENDBRANCH   3   5
ENDBRANCH   1   3
BRANCH   1   7
HETATM    7  N   UNK N   1      33.708  16.583   9.673  0.00  0.00    -0.418 N 
HETATM    8  H   UNK N   1      33.646  16.824  10.662  0.00  0.00     0.150 HD
HETATM    9  H   UNK N   1      34.058  15.666   9.393  0.00  0.00     0.150 HD
ENDBRANCH   1   7
TORSDOF 3
ENDMDL
MODEL 4
REMARK VINA RESULT:      -3.6     15.313     15.821
REMARK  3 active torsions:
REMARK  status: ('A' for Active; 'I' for Inactive)
REMARK    1  A    between atoms: C_2  and  C_1 
REMARK    2  A    between atoms: O_3  and  C_1 
REMARK    3  A    between atoms: C_2  and  N_5 
ROOT
HETATM    1  C   UNK N   1      20.167  19.395   2.491  0.00  0.00     0.169 C 
HETATM    2  C   UNK N   1      20.928  19.114   3.772  0.00  0.00     0.043 C 
ENDROOT
BRANCH   1   3
HETATM    3  C   UNK N   1      20.711  20.264   1.400  0.00  0.00     0.162 C 
HETATM    4  O   UNK N   1      21.242  21.327   1.675  0.00  0.00    -0.648 OA
BRANCH   3   5
HETATM    5  O   UNK N   1      20.619  19.877   0.113  0.00  0.00    -0.775 OA
HETATM    6  H   UNK N   1      20.770  18.982  -0.120  0.00  0.00     0.167 HD
ENDBRANCH   3   5
ENDBRANCH   1   3
BRANCH   1   7
HETATM    7  N   UNK N   1      18.856  18.791   2.327  0.00  0.00    -0.418 N 
HETATM    8  H   UNK N   1      18.381  18.839   1.426  0.00  0.00     0.150 HD
HETATM    9  H   UNK N   1      18.410  18.318   3.113  0.00  0.00     0.150 HD
ENDBRANCH   1   7
TORSDOF 3
ENDMDL
MODEL 5
REMARK VINA RESULT:      -3.6     12.645     13.185
REMARK  3 active torsions:
REMARK  status: ('A' for Active; 'I' for Inactive)
REMARK    1  A    between atoms: C_2  and  C_1 
REMARK    2  A    between atoms: O_3  and  C_1 
REMARK    3  A    between atoms: C_2  and  N_5 
ROOT
HETATM    1  C   UNK N   1      22.662  11.871  11.244  0.00  0.00     0.169 C 
HETATM    2  C   UNK N   1      22.881  11.703   9.753  0.00  0.00     0.043 C 
ENDROOT
BRANCH   1   3
HETATM    3  C   UNK N   1      23.788  12.081  12.208  0.00  0.00     0.162 C 
HETATM    4  O   UNK N   1      23.580  12.030  13.409  0.00  0.00    -0.648 OA
BRANCH   3   5
HETATM    5  O   UNK N   1      25.034  12.326  11.756  0.00  0.00    -0.775 OA
HETATM    6  H   UNK N   1      25.776  12.057  12.261  0.00  0.00     0.167 HD
ENDBRANCH   3   5
ENDBRANCH   1   3
BRANCH   1   7
HETATM    7  N   UNK N   1      21.300  11.824  11.746  0.00  0.00    -0.418 N 
HETATM    8  H   UNK N   1      21.111  11.445  12.674  0.00  0.00     0.150 HD
HETATM    9  H   UNK N   1      20.532  12.171  11.172  0.00  0.00     0.150 HD
ENDBRANCH   1   7
TORSDOF 3
ENDMDL
MODEL 6
REMARK VINA RESULT:      -3.5     11.821     12.438
REMARK  3 active torsions:
REMARK  status: ('A' for Active; 'I' for Inactive)
REMARK    1  A    between atoms: C_2  and  C_1 
REMARK    2  A    between atoms: O_3  and  C_1 
REMARK    3  A    between atoms: C_2  and  N_5 
ROOT
HETATM    1  C   UNK N   1      23.224  11.938  11.632  0.00  0.00     0.169 C 
HETATM    2  C   UNK N   1      23.271  11.906  13.148  0.00  0.00     0.043 C 
ENDROOT
BRANCH   1   3
HETATM    3  C   UNK N   1      24.429  12.225  10.791  0.00  0.00     0.162 C 
HETATM    4  O   UNK N   1      24.451  11.883   9.620  0.00  0.00    -0.648 OA
BRANCH   3   5
HETATM    5  O   UNK N   1      25.493  12.859  11.321  0.00  0.00    -0.775 OA
HETATM    6  H   UNK N   1      26.215  12.364  11.656  0.00  0.00     0.167 HD
ENDBRANCH   3   5
ENDBRANCH   1   3
BRANCH   1   7
HETATM    7  N   UNK N   1      21.952  11.680  10.981  0.00  0.00    -0.418 N 
HETATM    8  H   UNK N   1      21.107  12.152  11.305  0.00  0.00     0.150 HD
HETATM    9  H   UNK N   1      21.901  11.025  10.200  0.00  0.00     0.150 HD
ENDBRANCH   1   7
TORSDOF 3
ENDMDL
MODEL 7
REMARK VINA RESULT:      -3.3     11.654     11.826
REMARK  3 active torsions:
REMARK  status: ('A' for Active; 'I' for Inactive)
REMARK    1  A    between atoms: C_2  and  C_1 
REMARK    2  A    between atoms: O_3  and  C_1 
REMARK    3  A    between atoms: C_2  and  N_5 
ROOT
HETATM    1  C   UNK N   1      44.491  21.808   3.665  0.00  0.00     0.169 C 
HETATM    2  C   UNK N   1      44.310  20.356   3.265  0.00  0.00     0.043 C 
ENDROOT
BRANCH   1   3
HETATM    3  C   UNK N   1      43.408  22.830   3.511  0.00  0.00     0.162 C 
HETATM    4  O   UNK N   1      42.441  22.593   2.807  0.00  0.00    -0.648 OA
BRANCH   3   5
HETATM    5  O   UNK N   1      43.496  24.015   4.147  0.00  0.00    -0.775 OA
HETATM    6  H   UNK N   1      42.751  24.360   4.600  0.00  0.00     0.167 HD
ENDBRANCH   3   5
ENDBRANCH   1   3
BRANCH   1   7
HETATM    7  N   UNK N   1      45.772  22.211   4.218  0.00  0.00    -0.418 N 
HETATM    8  H   UNK N   1      45.893  22.277   5.229  0.00  0.00     0.150 HD
HETATM    9  H   UNK N   1      46.551  22.429   3.596  0.00  0.00     0.150 HD
ENDBRANCH   1   7
TORSDOF 3
ENDMDL
MODEL 8
REMARK VINA RESULT:      -3.0      5.730      6.017
REMARK  3 active torsions:
REMARK  status: ('A' for Active; 'I' for Inactive)
REMARK    1  A    between atoms: C_2  and  C_1 
REMARK    2  A    between atoms: O_3  and  C_1 
REMARK    3  A    between atoms: C_2  and  N_5 
ROOT
HETATM    1  C   UNK N   1      29.557  17.693   8.514  0.00  0.00     0.169 C 
HETATM    2  C   UNK N   1      29.849  17.212   7.106  0.00  0.00     0.043 C 
ENDROOT
BRANCH   1   3
HETATM    3  C   UNK N   1      28.165  17.858   9.039  0.00  0.00     0.162 C 
HETATM    4  O   UNK N   1      27.648  16.964   9.688  0.00  0.00    -0.648 OA
BRANCH   3   5
HETATM    5  O   UNK N   1      27.477  18.992   8.799  0.00  0.00    -0.775 OA
HETATM    6  H   UNK N   1      27.337  19.610   9.490  0.00  0.00     0.167 HD
ENDBRANCH   3   5
ENDBRANCH   1   3
BRANCH   1   7
HETATM    7  N   UNK N   1      30.682  18.005   9.378  0.00  0.00    -0.418 N 
HETATM    8  H   UNK N   1      31.610  17.646   9.156  0.00  0.00     0.150 HD
HETATM    9  H   UNK N   1      30.543  18.582  10.208  0.00  0.00     0.150 HD
ENDBRANCH   1   7
TORSDOF 3
ENDMDL
MODEL 9
REMARK VINA RESULT:      -3.0     12.851     13.377
REMARK  3 active torsions:
REMARK  status: ('A' for Active; 'I' for Inactive)
REMARK    1  A    between atoms: C_2  and  C_1 
REMARK    2  A    between atoms: O_3  and  C_1 
REMARK    3  A    between atoms: C_2  and  N_5 
ROOT
HETATM    1  C   UNK N   1      30.703  21.817  -3.915  0.00  0.00     0.169 C 
HETATM    2  C   UNK N   1      31.070  20.611  -4.759  0.00  0.00     0.043 C 
ENDROOT
BRANCH   1   3
HETATM    3  C   UNK N   1      31.314  22.083  -2.574  0.00  0.00     0.162 C 
HETATM    4  O   UNK N   1      30.835  22.932  -1.843  0.00  0.00    -0.648 OA
BRANCH   3   5
HETATM    5  O   UNK N   1      32.395  21.387  -2.170  0.00  0.00    -0.775 OA
HETATM    6  H   UNK N   1      33.115  21.832  -1.767  0.00  0.00     0.167 HD
ENDBRANCH   3   5
ENDBRANCH   1   3
BRANCH   1   7
HETATM    7  N   UNK N   1      29.715  22.744  -4.439  0.00  0.00    -0.418 N 
HETATM    8  H   UNK N   1      29.700  22.964  -5.435  0.00  0.00     0.150 HD
HETATM    9  H   UNK N   1      29.037  23.176  -3.811  0.00  0.00     0.150 HD
ENDBRANCH   1   7
TORSDOF 3
ENDMDL
