MODEL 1
REMARK VINA RESULT:      -7.2      0.000      0.000
REMARK  9 active torsions:
REMARK  status: ('A' for Active; 'I' for Inactive)
REMARK    1  A    between atoms: N_18  and  C_19 
REMARK    2  A    between atoms: C_19  and  C_20 
REMARK    3  A    between atoms: C_20  and  C_21 
REMARK    4  A    between atoms: C_20  and  O_22 
REMARK    5  A    between atoms: C_21  and  C_23 
REMARK    6  A    between atoms: C_21  and  O_24 
REMARK    7  A    between atoms: C_23  and  C_25 
REMARK    8  A    between atoms: C_23  and  O_26 
REMARK    9  A    between atoms: C_25  and  O_27 
ROOT
HETATM    1  C   UNK N   1      23.881  18.400   4.439  0.00  0.00     0.145 A 
HETATM    2  C   UNK N   1      25.120  17.732   4.513  0.00  0.00     0.146 A 
HETATM    3  C   UNK N   1      22.909  16.726   5.824  0.00  0.00     0.063 A 
HETATM    4  C   UNK N   1      24.165  16.067   5.874  0.00  0.00     0.060 A 
HETATM    5  C   UNK N   1      21.844  16.153   6.537  0.00  0.00     0.039 A 
HETATM    6  C   UNK N   1      24.318  14.877   6.593  0.00  0.00     0.039 A 
HETATM    7  C   UNK N   1      23.240  14.320   7.279  0.00  0.00    -0.054 A 
HETATM    8  C   UNK N   1      21.994  14.965   7.255  0.00  0.00    -0.054 A 
HETATM    9  C   UNK N   1      24.888  20.074   3.071  0.00  0.00     0.328 A 
HETATM   10  N   UNK N   1      25.228  16.584   5.221  0.00  0.00    -0.347 N 
ATOM     11  HN  UNK N   1      26.126  16.103   5.263  1.00  0.00     0.166 HD
HETATM   12  N   UNK N   1      23.797  19.555   3.716  0.00  0.00    -0.292 N 
ATOM     13  HN  UNK N   1      22.903  20.043   3.656  1.00  0.00     0.172 HD
HETATM   14  C   UNK N   1      26.227  18.269   3.849  0.00  0.00     0.280 A 
HETATM   15  O   UNK N   1      27.309  17.710   3.897  0.00  0.00    -0.265 OA
HETATM   16  O   UNK N   1      24.785  21.108   2.439  0.00  0.00    -0.247 OA
HETATM   17  N   UNK N   1      26.095  19.432   3.139  0.00  0.00    -0.273 N 
HETATM   18  N   UNK N   1      22.775  17.897   5.085  0.00  0.00    -0.327 N 
HETATM   19  C   UNK N   1      20.815  14.406   7.976  0.00  0.00     0.049 C 
HETATM   20  C   UNK N   1      23.437  13.043   8.026  0.00  0.00     0.049 C 
HETATM   21  H   UNK N   1      26.875  19.809   2.673  0.00  0.00     0.173 HD
ENDROOT
BRANCH  18  22
HETATM   22  C   UNK N   1      21.518  18.679   4.921  0.00  0.00     0.165 C 
BRANCH  22  23
HETATM   23  C   UNK N   1      20.618  18.416   3.712  0.00  0.00     0.167 C 
BRANCH  23  24
HETATM   24  C   UNK N   1      20.111  19.708   3.060  0.00  0.00     0.179 C 
BRANCH  24  25
HETATM   25  C   UNK N   1      21.192  20.374   2.199  0.00  0.00     0.173 C 
BRANCH  25  26
HETATM   26  C   UNK N   1      20.626  20.679   0.822  0.00  0.00     0.198 C 
BRANCH  26  27
HETATM   27  O   UNK N   1      20.572  19.515   0.055  0.00  0.00    -0.398 OA
HETATM   28  H   UNK N   1      19.781  19.269  -0.450  0.00  0.00     0.209 HD
ENDBRANCH  26  27
ENDBRANCH  25  26
BRANCH  25  29
HETATM   29  O   UNK N   1      21.662  21.556   2.777  0.00  0.00    -0.391 OA
HETATM   30  H   UNK N   1      22.409  21.661   3.387  0.00  0.00     0.210 HD
ENDBRANCH  25  29
ENDBRANCH  24  25
BRANCH  24  31
HETATM   31  O   UNK N   1      18.983  19.474   2.269  0.00  0.00    -0.390 OA
HETATM   32  H   UNK N   1      18.623  19.834   1.443  0.00  0.00     0.210 HD
ENDBRANCH  24  31
ENDBRANCH  23  24
BRANCH  23  33
HETATM   33  O   UNK N   1      21.344  17.717   2.745  0.00  0.00    -0.391 OA
HETATM   34  H   UNK N   1      21.408  17.200   1.926  0.00  0.00     0.210 HD
ENDBRANCH  23  33
ENDBRANCH  22  23
ENDBRANCH  18  22
TORSDOF 9
ENDMDL
MODEL 2
REMARK VINA RESULT:      -7.1      2.794      5.904
REMARK  9 active torsions:
REMARK  status: ('A' for Active; 'I' for Inactive)
REMARK    1  A    between atoms: N_18  and  C_19 
REMARK    2  A    between atoms: C_19  and  C_20 
REMARK    3  A    between atoms: C_20  and  C_21 
REMARK    4  A    between atoms: C_20  and  O_22 
REMARK    5  A    between atoms: C_21  and  C_23 
REMARK    6  A    between atoms: C_21  and  O_24 
REMARK    7  A    between atoms: C_23  and  C_25 
REMARK    8  A    between atoms: C_23  and  O_26 
REMARK    9  A    between atoms: C_25  and  O_27 
ROOT
HETATM    1  C   UNK N   1      21.769  18.600   3.583  0.00  0.00     0.145 A 
HETATM    2  C   UNK N   1      22.101  19.784   2.894  0.00  0.00     0.146 A 
HETATM    3  C   UNK N   1      24.004  18.461   4.392  0.00  0.00     0.063 A 
HETATM    4  C   UNK N   1      24.315  19.648   3.681  0.00  0.00     0.060 A 
HETATM    5  C   UNK N   1      25.029  17.865   5.144  0.00  0.00     0.039 A 
HETATM    6  C   UNK N   1      25.605  20.185   3.716  0.00  0.00     0.039 A 
HETATM    7  C   UNK N   1      26.610  19.564   4.458  0.00  0.00    -0.054 A 
HETATM    8  C   UNK N   1      26.319  18.398   5.181  0.00  0.00    -0.054 A 
HETATM    9  C   UNK N   1      19.533  18.780   2.775  0.00  0.00     0.328 A 
HETATM   10  N   UNK N   1      23.361  20.273   2.956  0.00  0.00    -0.347 N 
ATOM     11  HN  UNK N   1      23.595  21.126   2.448  1.00  0.00     0.166 HD
HETATM   12  N   UNK N   1      20.492  18.127   3.503  0.00  0.00    -0.292 N 
ATOM     13  HN  UNK N   1      20.246  17.268   3.997  1.00  0.00     0.172 HD
HETATM   14  C   UNK N   1      21.115  20.442   2.151  0.00  0.00     0.280 A 
HETATM   15  O   UNK N   1      21.377  21.467   1.546  0.00  0.00    -0.265 OA
HETATM   16  O   UNK N   1      18.401  18.337   2.726  0.00  0.00    -0.247 OA
HETATM   17  N   UNK N   1      19.847  19.931   2.103  0.00  0.00    -0.273 N 
HETATM   18  N   UNK N   1      22.718  17.934   4.324  0.00  0.00    -0.327 N 
HETATM   19  C   UNK N   1      27.362  17.703   5.989  0.00  0.00     0.049 C 
HETATM   20  C   UNK N   1      27.979  20.158   4.464  0.00  0.00     0.049 C 
HETATM   21  H   UNK N   1      19.153  20.394   1.581  0.00  0.00     0.173 HD
ENDROOT
BRANCH  18  22
HETATM   22  C   UNK N   1      22.257  16.686   4.995  0.00  0.00     0.165 C 
BRANCH  22  23
HETATM   23  C   UNK N   1      22.060  16.673   6.512  0.00  0.00     0.167 C 
BRANCH  23  24
HETATM   24  C   UNK N   1      20.771  17.380   6.947  0.00  0.00     0.179 C 
BRANCH  24  25
HETATM   25  C   UNK N   1      20.248  16.839   8.284  0.00  0.00     0.173 C 
BRANCH  25  26
HETATM   26  C   UNK N   1      19.361  17.885   8.941  0.00  0.00     0.198 C 
BRANCH  26  27
HETATM   27  O   UNK N   1      20.140  18.801   9.648  0.00  0.00    -0.398 OA
HETATM   28  H   UNK N   1      20.310  18.704  10.599  0.00  0.00     0.209 HD
ENDBRANCH  26  27
ENDBRANCH  25  26
BRANCH  25  29
HETATM   29  O   UNK N   1      19.521  15.657   8.118  0.00  0.00    -0.391 OA
HETATM   30  H   UNK N   1      19.540  15.053   7.359  0.00  0.00     0.210 HD
ENDBRANCH  25  29
ENDBRANCH  24  25
BRANCH  24  31
HETATM   31  O   UNK N   1      20.958  18.760   7.060  0.00  0.00    -0.390 OA
HETATM   32  H   UNK N   1      20.446  19.509   7.404  0.00  0.00     0.210 HD
ENDBRANCH  24  31
ENDBRANCH  23  24
BRANCH  23  33
HETATM   33  O   UNK N   1      21.980  15.348   6.952  0.00  0.00    -0.391 OA
HETATM   34  H   UNK N   1      21.623  14.447   6.902  0.00  0.00     0.210 HD
ENDBRANCH  23  33
ENDBRANCH  22  23
ENDBRANCH  18  22
TORSDOF 9
ENDMDL
MODEL 3
REMARK VINA RESULT:      -7.0      9.439     13.281
REMARK  9 active torsions:
REMARK  status: ('A' for Active; 'I' for Inactive)
REMARK    1  A    between atoms: N_18  and  C_19 
REMARK    2  A    between atoms: C_19  and  C_20 
REMARK    3  A    between atoms: C_20  and  C_21 
REMARK    4  A    between atoms: C_20  and  O_22 
REMARK    5  A    between atoms: C_21  and  C_23 
REMARK    6  A    between atoms: C_21  and  O_24 
REMARK    7  A    between atoms: C_23  and  C_25 
REMARK    8  A    between atoms: C_23  and  O_26 
REMARK    9  A    between atoms: C_25  and  O_27 
ROOT
HETATM    1  C   UNK N   1      32.049  16.933   8.036  0.00  0.00     0.145 A 
HETATM    2  C   UNK N   1      31.222  16.736   6.912  0.00  0.00     0.146 A 
HETATM    3  C   UNK N   1      33.821  15.810   6.911  0.00  0.00     0.063 A 
HETATM    4  C   UNK N   1      32.965  15.614   5.797  0.00  0.00     0.060 A 
HETATM    5  C   UNK N   1      35.134  15.322   6.816  0.00  0.00     0.039 A 
HETATM    6  C   UNK N   1      33.415  14.939   4.660  0.00  0.00     0.039 A 
HETATM    7  C   UNK N   1      34.720  14.449   4.596  0.00  0.00    -0.054 A 
HETATM    8  C   UNK N   1      35.588  14.647   5.681  0.00  0.00    -0.054 A 
HETATM    9  C   UNK N   1      30.262  18.074   9.127  0.00  0.00     0.328 A 
HETATM   10  N   UNK N   1      31.696  16.079   5.829  0.00  0.00    -0.347 N 
ATOM     11  HN  UNK N   1      31.088  15.933   5.023  1.00  0.00     0.166 HD
HETATM   12  N   UNK N   1      31.547  17.597   9.117  0.00  0.00    -0.292 N 
ATOM     13  HN  UNK N   1      32.140  17.741   9.935  1.00  0.00     0.172 HD
HETATM   14  C   UNK N   1      29.911  17.225   6.934  0.00  0.00     0.280 A 
HETATM   15  O   UNK N   1      29.175  17.066   5.976  0.00  0.00    -0.265 OA
HETATM   16  O   UNK N   1      29.842  18.666  10.103  0.00  0.00    -0.247 OA
HETATM   17  N   UNK N   1      29.452  17.887   8.040  0.00  0.00    -0.273 N 
HETATM   18  N   UNK N   1      33.344  16.466   8.041  0.00  0.00    -0.327 N 
HETATM   19  C   UNK N   1      36.991  14.143   5.656  0.00  0.00     0.049 C 
HETATM   20  C   UNK N   1      35.164  13.723   3.371  0.00  0.00     0.049 C 
HETATM   21  H   UNK N   1      28.530  18.232   8.054  0.00  0.00     0.173 HD
ENDROOT
BRANCH  18  22
HETATM   22  C   UNK N   1      34.118  16.719   9.289  0.00  0.00     0.165 C 
BRANCH  22  23
HETATM   23  C   UNK N   1      34.381  15.566  10.260  0.00  0.00     0.167 C 
BRANCH  23  24
HETATM   24  C   UNK N   1      35.418  15.921  11.331  0.00  0.00     0.179 C 
BRANCH  24  25
HETATM   25  C   UNK N   1      35.674  14.748  12.287  0.00  0.00     0.173 C 
BRANCH  25  26
HETATM   26  C   UNK N   1      36.264  13.582  11.511  0.00  0.00     0.198 C 
BRANCH  26  27
HETATM   27  O   UNK N   1      37.656  13.591  11.611  0.00  0.00    -0.398 OA
HETATM   28  H   UNK N   1      38.124  14.215  12.188  0.00  0.00     0.209 HD
ENDBRANCH  26  27
ENDBRANCH  25  26
BRANCH  25  29
HETATM   29  O   UNK N   1      36.546  15.101  13.321  0.00  0.00    -0.391 OA
HETATM   30  H   UNK N   1      37.504  14.954  13.364  0.00  0.00     0.210 HD
ENDBRANCH  25  29
ENDBRANCH  24  25
BRANCH  24  31
HETATM   31  O   UNK N   1      36.632  16.310  10.759  0.00  0.00    -0.390 OA
HETATM   32  H   UNK N   1      36.982  16.402   9.859  0.00  0.00     0.210 HD
ENDBRANCH  24  31
ENDBRANCH  23  24
BRANCH  23  33
HETATM   33  O   UNK N   1      33.192  15.243  10.919  0.00  0.00    -0.391 OA
HETATM   34  H   UNK N   1      32.305  15.462  11.247  0.00  0.00     0.210 HD
ENDBRANCH  23  33
ENDBRANCH  22  23
ENDBRANCH  18  22
TORSDOF 9
ENDMDL
MODEL 4
REMARK VINA RESULT:      -7.0      2.075      4.751
REMARK  9 active torsions:
REMARK  status: ('A' for Active; 'I' for Inactive)
REMARK    1  A    between atoms: N_18  and  C_19 
REMARK    2  A    between atoms: C_19  and  C_20 
REMARK    3  A    between atoms: C_20  and  C_21 
REMARK    4  A    between atoms: C_20  and  O_22 
REMARK    5  A    between atoms: C_21  and  C_23 
REMARK    6  A    between atoms: C_21  and  O_24 
REMARK    7  A    between atoms: C_23  and  C_25 
REMARK    8  A    between atoms: C_23  and  O_26 
REMARK    9  A    between atoms: C_25  and  O_27 
ROOT
HETATM    1  C   UNK N   1      22.298  16.615   6.063  0.00  0.00     0.145 A 
HETATM    2  C   UNK N   1      23.309  15.702   6.426  0.00  0.00     0.146 A 
HETATM    3  C   UNK N   1      23.925  17.960   4.963  0.00  0.00     0.063 A 
HETATM    4  C   UNK N   1      24.926  17.032   5.350  0.00  0.00     0.060 A 
HETATM    5  C   UNK N   1      24.327  19.070   4.204  0.00  0.00     0.039 A 
HETATM    6  C   UNK N   1      26.264  17.237   5.002  0.00  0.00     0.039 A 
HETATM    7  C   UNK N   1      26.639  18.357   4.260  0.00  0.00    -0.054 A 
HETATM    8  C   UNK N   1      25.662  19.278   3.853  0.00  0.00    -0.054 A 
HETATM    9  C   UNK N   1      20.689  15.235   7.154  0.00  0.00     0.328 A 
HETATM   10  N   UNK N   1      24.592  15.936   6.067  0.00  0.00    -0.347 N 
ATOM     11  HN  UNK N   1      25.319  15.275   6.341  1.00  0.00     0.166 HD
HETATM   12  N   UNK N   1      21.012  16.358   6.439  0.00  0.00    -0.292 N 
ATOM     13  HN  UNK N   1      20.275  17.016   6.182  1.00  0.00     0.172 HD
HETATM   14  C   UNK N   1      22.968  14.560   7.159  0.00  0.00     0.280 A 
HETATM   15  O   UNK N   1      23.824  13.756   7.485  0.00  0.00    -0.265 OA
HETATM   16  O   UNK N   1      19.532  15.029   7.471  0.00  0.00    -0.247 OA
HETATM   17  N   UNK N   1      21.664  14.343   7.511  0.00  0.00    -0.273 N 
HETATM   18  N   UNK N   1      22.604  17.745   5.340  0.00  0.00    -0.327 N 
HETATM   19  C   UNK N   1      26.018  20.489   3.058  0.00  0.00     0.049 C 
HETATM   20  C   UNK N   1      28.077  18.550   3.915  0.00  0.00     0.049 C 
HETATM   21  H   UNK N   1      21.425  13.539   8.025  0.00  0.00     0.173 HD
ENDROOT
BRANCH  18  22
HETATM   22  C   UNK N   1      21.457  18.644   5.029  0.00  0.00     0.165 C 
BRANCH  22  23
HETATM   23  C   UNK N   1      20.643  18.415   3.753  0.00  0.00     0.167 C 
BRANCH  23  24
HETATM   24  C   UNK N   1      20.168  19.723   3.112  0.00  0.00     0.179 C 
BRANCH  24  25
HETATM   25  C   UNK N   1      21.260  20.362   2.244  0.00  0.00     0.173 C 
BRANCH  25  26
HETATM   26  C   UNK N   1      20.699  20.664   0.865  0.00  0.00     0.198 C 
BRANCH  26  27
HETATM   27  O   UNK N   1      20.622  19.494   0.109  0.00  0.00    -0.398 OA
HETATM   28  H   UNK N   1      19.778  19.042  -0.052  0.00  0.00     0.209 HD
ENDBRANCH  26  27
ENDBRANCH  25  26
BRANCH  25  29
HETATM   29  O   UNK N   1      21.751  21.541   2.811  0.00  0.00    -0.391 OA
HETATM   30  H   UNK N   1      21.509  22.453   2.583  0.00  0.00     0.210 HD
ENDBRANCH  25  29
ENDBRANCH  24  25
BRANCH  24  31
HETATM   31  O   UNK N   1      19.027  19.525   2.329  0.00  0.00    -0.390 OA
HETATM   32  H   UNK N   1      18.076  19.686   2.427  0.00  0.00     0.210 HD
ENDBRANCH  24  31
ENDBRANCH  23  24
BRANCH  23  33
HETATM   33  O   UNK N   1      21.440  17.753   2.815  0.00  0.00    -0.391 OA
HETATM   34  H   UNK N   1      22.134  17.737   2.137  0.00  0.00     0.210 HD
ENDBRANCH  23  33
ENDBRANCH  22  23
ENDBRANCH  18  22
TORSDOF 9
ENDMDL
MODEL 5
REMARK VINA RESULT:      -7.0     16.077     18.303
REMARK  9 active torsions:
REMARK  status: ('A' for Active; 'I' for Inactive)
REMARK    1  A    between atoms: N_18  and  C_19 
REMARK    2  A    between atoms: C_19  and  C_20 
REMARK    3  A    between atoms: C_20  and  C_21 
REMARK    4  A    between atoms: C_20  and  O_22 
REMARK    5  A    between atoms: C_21  and  C_23 
REMARK    6  A    between atoms: C_21  and  O_24 
REMARK    7  A    between atoms: C_23  and  C_25 
REMARK    8  A    between atoms: C_23  and  O_26 
REMARK    9  A    between atoms: C_25  and  O_27 
ROOT
HETATM    1  C   UNK N   1      35.282  12.246  16.868  0.00  0.00     0.145 A 
HETATM    2  C   UNK N   1      35.470  11.319  17.913  0.00  0.00     0.146 A 
HETATM    3  C   UNK N   1      35.376  10.465  15.291  0.00  0.00     0.063 A 
HETATM    4  C   UNK N   1      35.575   9.554  16.360  0.00  0.00     0.060 A 
HETATM    5  C   UNK N   1      35.322   9.940  13.990  0.00  0.00     0.039 A 
HETATM    6  C   UNK N   1      35.734   8.188  16.114  0.00  0.00     0.039 A 
HETATM    7  C   UNK N   1      35.693   7.693  14.810  0.00  0.00    -0.054 A 
HETATM    8  C   UNK N   1      35.480   8.576  13.740  0.00  0.00    -0.054 A 
HETATM    9  C   UNK N   1      35.170  14.004  18.474  0.00  0.00     0.328 A 
HETATM   10  N   UNK N   1      35.617  10.004  17.633  0.00  0.00    -0.347 N 
ATOM     11  HN  UNK N   1      35.761   9.341  18.395  1.00  0.00     0.166 HD
HETATM   12  N   UNK N   1      35.138  13.567  17.176  0.00  0.00    -0.292 N 
ATOM     13  HN  UNK N   1      35.005  14.244  16.424  1.00  0.00     0.172 HD
HETATM   14  C   UNK N   1      35.503  11.777  19.235  0.00  0.00     0.280 A 
HETATM   15  O   UNK N   1      35.665  10.996  20.156  0.00  0.00    -0.265 OA
HETATM   16  O   UNK N   1      35.034  15.189  18.720  0.00  0.00    -0.247 OA
HETATM   17  N   UNK N   1      35.352  13.111  19.495  0.00  0.00    -0.273 N 
HETATM   18  N   UNK N   1      35.242  11.824  15.559  0.00  0.00    -0.327 N 
HETATM   19  C   UNK N   1      35.427   8.091  12.331  0.00  0.00     0.049 C 
HETATM   20  C   UNK N   1      35.877   6.231  14.583  0.00  0.00     0.049 C 
HETATM   21  H   UNK N   1      35.373  13.432  20.425  0.00  0.00     0.173 HD
ENDROOT
BRANCH  18  22
HETATM   22  C   UNK N   1      35.055  12.894  14.539  0.00  0.00     0.165 C 
BRANCH  22  23
HETATM   23  C   UNK N   1      36.267  13.419  13.765  0.00  0.00     0.167 C 
BRANCH  23  24
HETATM   24  C   UNK N   1      35.871  14.186  12.499  0.00  0.00     0.179 C 
BRANCH  24  25
HETATM   25  C   UNK N   1      36.692  13.739  11.282  0.00  0.00     0.173 C 
BRANCH  25  26
HETATM   26  C   UNK N   1      36.895  14.920  10.346  0.00  0.00     0.198 C 
BRANCH  26  27
HETATM   27  O   UNK N   1      36.690  16.118  11.031  0.00  0.00    -0.398 OA
HETATM   28  H   UNK N   1      35.899  16.662  10.887  0.00  0.00     0.209 HD
ENDBRANCH  26  27
ENDBRANCH  25  26
BRANCH  25  29
HETATM   29  O   UNK N   1      37.938  13.228  11.656  0.00  0.00    -0.391 OA
HETATM   30  H   UNK N   1      38.648  12.914  11.073  0.00  0.00     0.210 HD
ENDBRANCH  25  29
ENDBRANCH  24  25
BRANCH  24  31
HETATM   31  O   UNK N   1      34.513  14.030  12.209  0.00  0.00    -0.390 OA
HETATM   32  H   UNK N   1      33.990  13.740  11.445  0.00  0.00     0.210 HD
ENDBRANCH  24  31
ENDBRANCH  23  24
BRANCH  23  33
HETATM   33  O   UNK N   1      36.984  14.299  14.581  0.00  0.00    -0.391 OA
HETATM   34  H   UNK N   1      37.061  15.104  15.116  0.00  0.00     0.210 HD
ENDBRANCH  23  33
ENDBRANCH  22  23
ENDBRANCH  18  22
TORSDOF 9
ENDMDL
MODEL 6
REMARK VINA RESULT:      -6.8      2.304      5.165
REMARK  9 active torsions:
REMARK  status: ('A' for Active; 'I' for Inactive)
REMARK    1  A    between atoms: N_18  and  C_19 
REMARK    2  A    between atoms: C_19  and  C_20 
REMARK    3  A    between atoms: C_20  and  C_21 
REMARK    4  A    between atoms: C_20  and  O_22 
REMARK    5  A    between atoms: C_21  and  C_23 
REMARK    6  A    between atoms: C_21  and  O_24 
REMARK    7  A    between atoms: C_23  and  C_25 
REMARK    8  A    between atoms: C_23  and  O_26 
REMARK    9  A    between atoms: C_25  and  O_27 
ROOT
HETATM    1  C   UNK N   1      21.665  17.269   5.240  0.00  0.00     0.145 A 
HETATM    2  C   UNK N   1      22.552  16.387   5.888  0.00  0.00     0.146 A 
HETATM    3  C   UNK N   1      23.521  18.501   4.401  0.00  0.00     0.063 A 
HETATM    4  C   UNK N   1      24.393  17.606   5.072  0.00  0.00     0.060 A 
HETATM    5  C   UNK N   1      24.102  19.537   3.653  0.00  0.00     0.039 A 
HETATM    6  C   UNK N   1      25.779  17.771   5.002  0.00  0.00     0.039 A 
HETATM    7  C   UNK N   1      26.331  18.819   4.264  0.00  0.00    -0.054 A 
HETATM    8  C   UNK N   1      25.486  19.705   3.580  0.00  0.00    -0.054 A 
HETATM    9  C   UNK N   1      19.826  16.001   6.076  0.00  0.00     0.328 A 
HETATM   10  N   UNK N   1      23.888  16.580   5.792  0.00  0.00    -0.347 N 
ATOM     11  HN  UNK N   1      24.523  15.942   6.272  1.00  0.00     0.166 HD
HETATM   12  N   UNK N   1      20.322  17.054   5.352  0.00  0.00    -0.292 N 
ATOM     13  HN  UNK N   1      19.673  17.690   4.888  1.00  0.00     0.172 HD
HETATM   14  C   UNK N   1      22.036  15.317   6.626  0.00  0.00     0.280 A 
HETATM   15  O   UNK N   1      22.783  14.541   7.196  0.00  0.00    -0.265 OA
HETATM   16  O   UNK N   1      18.624  15.831   6.154  0.00  0.00    -0.247 OA
HETATM   17  N   UNK N   1      20.681  15.140   6.708  0.00  0.00    -0.273 N 
HETATM   18  N   UNK N   1      22.144  18.329   4.504  0.00  0.00    -0.327 N 
HETATM   19  C   UNK N   1      26.032  20.838   2.778  0.00  0.00     0.049 C 
HETATM   20  C   UNK N   1      27.814  18.973   4.220  0.00  0.00     0.049 C 
HETATM   21  H   UNK N   1      20.319  14.386   7.226  0.00  0.00     0.173 HD
ENDROOT
BRANCH  18  22
HETATM   22  C   UNK N   1      21.112  19.203   3.878  0.00  0.00     0.165 C 
BRANCH  22  23
HETATM   23  C   UNK N   1      20.918  19.173   2.361  0.00  0.00     0.167 C 
BRANCH  23  24
HETATM   24  C   UNK N   1      19.637  18.441   1.943  0.00  0.00     0.179 C 
BRANCH  24  25
HETATM   25  C   UNK N   1      19.939  17.223   1.061  0.00  0.00     0.173 C 
BRANCH  25  26
HETATM   26  C   UNK N   1      20.506  16.104   1.920  0.00  0.00     0.198 C 
BRANCH  26  27
HETATM   27  O   UNK N   1      19.475  15.429   2.574  0.00  0.00    -0.398 OA
HETATM   28  H   UNK N   1      18.814  14.909   2.089  0.00  0.00     0.209 HD
ENDBRANCH  26  27
ENDBRANCH  25  26
BRANCH  25  29
HETATM   29  O   UNK N   1      18.796  16.763   0.402  0.00  0.00    -0.391 OA
HETATM   30  H   UNK N   1      18.612  15.861   0.094  0.00  0.00     0.210 HD
ENDBRANCH  25  29
ENDBRANCH  24  25
BRANCH  24  31
HETATM   31  O   UNK N   1      18.902  18.023   3.056  0.00  0.00    -0.390 OA
HETATM   32  H   UNK N   1      18.024  18.211   3.424  0.00  0.00     0.210 HD
ENDBRANCH  24  31
ENDBRANCH  23  24
BRANCH  23  33
HETATM   33  O   UNK N   1      20.825  20.484   1.886  0.00  0.00    -0.391 OA
HETATM   34  H   UNK N   1      21.219  21.317   1.581  0.00  0.00     0.210 HD
ENDBRANCH  23  33
ENDBRANCH  22  23
ENDBRANCH  18  22
TORSDOF 9
ENDMDL
MODEL 7
REMARK VINA RESULT:      -6.8     12.290     14.450
REMARK  9 active torsions:
REMARK  status: ('A' for Active; 'I' for Inactive)
REMARK    1  A    between atoms: N_18  and  C_19 
REMARK    2  A    between atoms: C_19  and  C_20 
REMARK    3  A    between atoms: C_20  and  C_21 
REMARK    4  A    between atoms: C_20  and  O_22 
REMARK    5  A    between atoms: C_21  and  C_23 
REMARK    6  A    between atoms: C_21  and  O_24 
REMARK    7  A    between atoms: C_23  and  C_25 
REMARK    8  A    between atoms: C_23  and  O_26 
REMARK    9  A    between atoms: C_25  and  O_27 
ROOT
HETATM    1  C   UNK N   1      34.289  12.197  10.147  0.00  0.00     0.145 A 
HETATM    2  C   UNK N   1      33.611  10.975  10.324  0.00  0.00     0.146 A 
HETATM    3  C   UNK N   1      34.882  12.187  12.453  0.00  0.00     0.063 A 
HETATM    4  C   UNK N   1      34.182  10.963  12.607  0.00  0.00     0.060 A 
HETATM    5  C   UNK N   1      35.515  12.723  13.586  0.00  0.00     0.039 A 
HETATM    6  C   UNK N   1      34.114  10.332  13.853  0.00  0.00     0.039 A 
HETATM    7  C   UNK N   1      34.738  10.893  14.967  0.00  0.00    -0.054 A 
HETATM    8  C   UNK N   1      35.448  12.095  14.831  0.00  0.00    -0.054 A 
HETATM    9  C   UNK N   1      33.700  12.167   7.837  0.00  0.00     0.328 A 
HETATM   10  N   UNK N   1      33.570  10.394  11.546  0.00  0.00    -0.347 N 
ATOM     11  HN  UNK N   1      33.069   9.514  11.667  1.00  0.00     0.166 HD
HETATM   12  N   UNK N   1      34.315  12.763   8.906  0.00  0.00    -0.292 N 
ATOM     13  HN  UNK N   1      34.802  13.650   8.771  1.00  0.00     0.172 HD
HETATM   14  C   UNK N   1      32.984  10.375   9.227  0.00  0.00     0.280 A 
HETATM   15  O   UNK N   1      32.390   9.319   9.354  0.00  0.00    -0.265 OA
HETATM   16  O   UNK N   1      33.743  12.692   6.740  0.00  0.00    -0.247 OA
HETATM   17  N   UNK N   1      33.039  10.979   8.000  0.00  0.00    -0.273 N 
HETATM   18  N   UNK N   1      34.918  12.808  11.208  0.00  0.00    -0.327 N 
HETATM   19  C   UNK N   1      36.132  12.730  15.994  0.00  0.00     0.049 C 
HETATM   20  C   UNK N   1      34.635  10.198  16.283  0.00  0.00     0.049 C 
HETATM   21  H   UNK N   1      32.599  10.556   7.228  0.00  0.00     0.173 HD
ENDROOT
BRANCH  18  22
HETATM   22  C   UNK N   1      35.588  14.104  10.905  0.00  0.00     0.165 C 
BRANCH  22  23
HETATM   23  C   UNK N   1      34.796  15.408  11.019  0.00  0.00     0.167 C 
BRANCH  23  24
HETATM   24  C   UNK N   1      35.034  16.350   9.833  0.00  0.00     0.179 C 
BRANCH  24  25
HETATM   25  C   UNK N   1      33.763  16.543   8.995  0.00  0.00     0.173 C 
BRANCH  25  26
HETATM   26  C   UNK N   1      33.772  17.931   8.375  0.00  0.00     0.198 C 
BRANCH  26  27
HETATM   27  O   UNK N   1      34.655  17.970   7.294  0.00  0.00    -0.398 OA
HETATM   28  H   UNK N   1      35.604  17.801   7.402  0.00  0.00     0.209 HD
ENDBRANCH  26  27
ENDBRANCH  25  26
BRANCH  25  29
HETATM   29  O   UNK N   1      33.659  15.586   7.982  0.00  0.00    -0.391 OA
HETATM   30  H   UNK N   1      33.666  15.736   7.023  0.00  0.00     0.210 HD
ENDBRANCH  25  29
ENDBRANCH  24  25
BRANCH  24  31
HETATM   31  O   UNK N   1      35.491  17.601  10.256  0.00  0.00    -0.390 OA
HETATM   32  H   UNK N   1      36.212  18.201  10.010  0.00  0.00     0.210 HD
ENDBRANCH  24  31
ENDBRANCH  23  24
BRANCH  23  33
HETATM   33  O   UNK N   1      33.430  15.113  11.051  0.00  0.00    -0.391 OA
HETATM   34  H   UNK N   1      32.500  15.333  10.885  0.00  0.00     0.210 HD
ENDBRANCH  23  33
ENDBRANCH  22  23
ENDBRANCH  18  22
TORSDOF 9
ENDMDL
MODEL 8
REMARK VINA RESULT:      -6.8     13.986     16.959
REMARK  9 active torsions:
REMARK  status: ('A' for Active; 'I' for Inactive)
REMARK    1  A    between atoms: N_18  and  C_19 
REMARK    2  A    between atoms: C_19  and  C_20 
REMARK    3  A    between atoms: C_20  and  C_21 
REMARK    4  A    between atoms: C_20  and  O_22 
REMARK    5  A    between atoms: C_21  and  C_23 
REMARK    6  A    between atoms: C_21  and  O_24 
REMARK    7  A    between atoms: C_23  and  C_25 
REMARK    8  A    between atoms: C_23  and  O_26 
REMARK    9  A    between atoms: C_25  and  O_27 
ROOT
HETATM    1  C   UNK N   1      37.154  11.948  12.676  0.00  0.00     0.145 A 
HETATM    2  C   UNK N   1      37.291  10.594  13.041  0.00  0.00     0.146 A 
HETATM    3  C   UNK N   1      36.339  12.440  14.858  0.00  0.00     0.063 A 
HETATM    4  C   UNK N   1      36.474  11.070  15.197  0.00  0.00     0.060 A 
HETATM    5  C   UNK N   1      35.864  13.312  15.850  0.00  0.00     0.039 A 
HETATM    6  C   UNK N   1      36.124  10.611  16.470  0.00  0.00     0.039 A 
HETATM    7  C   UNK N   1      35.640  11.495  17.433  0.00  0.00    -0.054 A 
HETATM    8  C   UNK N   1      35.514  12.858  17.123  0.00  0.00    -0.054 A 
HETATM    9  C   UNK N   1      37.996  11.427  10.507  0.00  0.00     0.328 A 
HETATM   10  N   UNK N   1      36.943  10.190  14.285  0.00  0.00    -0.347 N 
ATOM     11  HN  UNK N   1      37.037   9.206  14.538  1.00  0.00     0.166 HD
HETATM   12  N   UNK N   1      37.509  12.330  11.415  0.00  0.00    -0.292 N 
ATOM     13  HN  UNK N   1      37.411  13.309  11.143  1.00  0.00     0.172 HD
HETATM   14  C   UNK N   1      37.786   9.680  12.105  0.00  0.00     0.280 A 
HETATM   15  O   UNK N   1      37.912   8.503  12.396  0.00  0.00    -0.265 OA
HETATM   16  O   UNK N   1      38.309  11.798   9.391  0.00  0.00    -0.247 OA
HETATM   17  N   UNK N   1      38.132  10.110  10.853  0.00  0.00    -0.273 N 
HETATM   18  N   UNK N   1      36.672  12.870  13.577  0.00  0.00    -0.327 N 
HETATM   19  C   UNK N   1      35.002  13.839  18.123  0.00  0.00     0.049 C 
HETATM   20  C   UNK N   1      35.266  10.969  18.778  0.00  0.00     0.049 C 
HETATM   21  H   UNK N   1      38.481   9.467  10.196  0.00  0.00     0.173 HD
ENDROOT
BRANCH  18  22
HETATM   22  C   UNK N   1      36.557  14.268  13.074  0.00  0.00     0.165 C 
BRANCH  22  23
HETATM   23  C   UNK N   1      35.293  14.698  12.326  0.00  0.00     0.167 C 
BRANCH  23  24
HETATM   24  C   UNK N   1      35.598  15.304  10.951  0.00  0.00     0.179 C 
BRANCH  24  25
HETATM   25  C   UNK N   1      34.443  16.177  10.444  0.00  0.00     0.173 C 
BRANCH  25  26
HETATM   26  C   UNK N   1      34.835  16.819   9.124  0.00  0.00     0.198 C 
BRANCH  26  27
HETATM   27  O   UNK N   1      35.283  18.123   9.337  0.00  0.00    -0.398 OA
HETATM   28  H   UNK N   1      34.804  18.743   9.910  0.00  0.00     0.209 HD
ENDBRANCH  26  27
ENDBRANCH  25  26
BRANCH  25  29
HETATM   29  O   UNK N   1      33.271  15.436  10.266  0.00  0.00    -0.391 OA
HETATM   30  H   UNK N   1      32.359  15.767  10.246  0.00  0.00     0.210 HD
ENDBRANCH  25  29
ENDBRANCH  24  25
BRANCH  24  31
HETATM   31  O   UNK N   1      36.766  16.071  10.978  0.00  0.00    -0.390 OA
HETATM   32  H   UNK N   1      37.051  16.895  11.403  0.00  0.00     0.210 HD
ENDBRANCH  24  31
ENDBRANCH  23  24
BRANCH  23  33
HETATM   33  O   UNK N   1      34.480  13.580  12.120  0.00  0.00    -0.391 OA
HETATM   34  H   UNK N   1      33.705  13.033  12.322  0.00  0.00     0.210 HD
ENDBRANCH  23  33
ENDBRANCH  22  23
ENDBRANCH  18  22
TORSDOF 9
ENDMDL
MODEL 9
REMARK VINA RESULT:      -6.7     11.679     13.452
REMARK  9 active torsions:
REMARK  status: ('A' for Active; 'I' for Inactive)
REMARK    1  A    between atoms: N_18  and  C_19 
REMARK    2  A    between atoms: C_19  and  C_20 
REMARK    3  A    between atoms: C_20  and  C_21 
REMARK    4  A    between atoms: C_20  and  O_22 
REMARK    5  A    between atoms: C_21  and  C_23 
REMARK    6  A    between atoms: C_21  and  O_24 
REMARK    7  A    between atoms: C_23  and  C_25 
REMARK    8  A    between atoms: C_23  and  O_26 
REMARK    9  A    between atoms: C_25  and  O_27 
ROOT
HETATM    1  C   UNK N   1      29.643  22.523  -4.894  0.00  0.00     0.145 A 
HETATM    2  C   UNK N   1      29.655  23.041  -3.583  0.00  0.00     0.146 A 
HETATM    3  C   UNK N   1      28.043  24.172  -5.517  0.00  0.00     0.063 A 
HETATM    4  C   UNK N   1      28.065  24.667  -4.188  0.00  0.00     0.060 A 
HETATM    5  C   UNK N   1      27.207  24.820  -6.439  0.00  0.00     0.039 A 
HETATM    6  C   UNK N   1      27.262  25.749  -3.815  0.00  0.00     0.039 A 
HETATM    7  C   UNK N   1      26.428  26.366  -4.748  0.00  0.00    -0.054 A 
HETATM    8  C   UNK N   1      26.403  25.901  -6.071  0.00  0.00    -0.054 A 
HETATM    9  C   UNK N   1      31.263  20.898  -4.245  0.00  0.00     0.328 A 
HETATM   10  N   UNK N   1      28.865  24.092  -3.263  0.00  0.00    -0.347 N 
ATOM     11  HN  UNK N   1      28.873  24.455  -2.310  1.00  0.00     0.166 HD
HETATM   12  N   UNK N   1      30.448  21.461  -5.191  0.00  0.00    -0.292 N 
ATOM     13  HN  UNK N   1      30.442  21.080  -6.137  1.00  0.00     0.172 HD
HETATM   14  C   UNK N   1      30.489  22.457  -2.624  0.00  0.00     0.280 A 
HETATM   15  O   UNK N   1      30.517  22.886  -1.484  0.00  0.00    -0.265 OA
HETATM   16  O   UNK N   1      31.974  19.956  -4.540  0.00  0.00    -0.247 OA
HETATM   17  N   UNK N   1      31.281  21.395  -2.970  0.00  0.00    -0.273 N 
HETATM   18  N   UNK N   1      28.834  23.080  -5.858  0.00  0.00    -0.327 N 
HETATM   19  C   UNK N   1      25.528  26.531  -7.101  0.00  0.00     0.049 C 
HETATM   20  C   UNK N   1      25.576  27.511  -4.313  0.00  0.00     0.049 C 
HETATM   21  H   UNK N   1      31.869  20.986  -2.295  0.00  0.00     0.173 HD
ENDROOT
BRANCH  18  22
HETATM   22  C   UNK N   1      28.893  22.438  -7.202  0.00  0.00     0.165 C 
BRANCH  22  23
HETATM   23  C   UNK N   1      27.967  21.261  -7.517  0.00  0.00     0.167 C 
BRANCH  23  24
HETATM   24  C   UNK N   1      27.229  21.432  -8.850  0.00  0.00     0.179 C 
BRANCH  24  25
HETATM   25  C   UNK N   1      25.772  20.961  -8.758  0.00  0.00     0.173 C 
BRANCH  25  26
HETATM   26  C   UNK N   1      25.030  21.808  -7.737  0.00  0.00     0.198 C 
BRANCH  26  27
HETATM   27  O   UNK N   1      24.430  22.901  -8.363  0.00  0.00    -0.398 OA
HETATM   28  H   UNK N   1      24.633  23.141  -9.281  0.00  0.00     0.209 HD
ENDBRANCH  26  27
ENDBRANCH  25  26
BRANCH  25  29
HETATM   29  O   UNK N   1      25.119  21.048  -9.991  0.00  0.00    -0.391 OA
HETATM   30  H   UNK N   1      25.390  21.560 -10.769  0.00  0.00     0.210 HD
ENDBRANCH  25  29
ENDBRANCH  24  25
BRANCH  24  31
HETATM   31  O   UNK N   1      27.248  22.761  -9.279  0.00  0.00    -0.390 OA
HETATM   32  H   UNK N   1      26.884  23.259 -10.028  0.00  0.00     0.210 HD
ENDBRANCH  24  31
ENDBRANCH  23  24
BRANCH  23  33
HETATM   33  O   UNK N   1      28.728  20.092  -7.606  0.00  0.00    -0.391 OA
HETATM   34  H   UNK N   1      28.844  19.160  -7.849  0.00  0.00     0.210 HD
ENDBRANCH  23  33
ENDBRANCH  22  23
ENDBRANCH  18  22
TORSDOF 9
ENDMDL
