MODEL 1
REMARK VINA RESULT:      -5.9      0.000      0.000
REMARK  7 active torsions:
REMARK  status: ('A' for Active; 'I' for Inactive)
REMARK    1  A    between atoms: P_1  and  O_2 
REMARK    2  A    between atoms: P_1  and  O_4 
REMARK    3  A    between atoms: P_1  and  O_5 
REMARK    4  A    between atoms: O_2  and  C_12 
REMARK    5  A    between atoms: O_3  and  C_13 
REMARK    6  A    between atoms: C_10  and  C_12 
REMARK    7  A    between atoms: C_11  and  C_17 
ROOT
HETATM    1  N   UNK N   1      32.922  14.923  10.283  0.00  0.00    -0.367 N 
ATOM      2  HN  UNK N   1      32.610  14.088  10.780  1.00  0.00     0.165 HD
HETATM    3  C   UNK N   1      32.474  16.657   8.685  0.00  0.00    -0.003 A 
HETATM    4  C   UNK N   1      33.790  17.183   8.893  0.00  0.00     0.046 A 
HETATM    5  C   UNK N   1      34.634  16.537   9.848  0.00  0.00     0.101 A 
HETATM    6  C   UNK N   1      34.164  15.402  10.527  0.00  0.00     0.039 A 
HETATM    7  C   UNK N   1      32.081  15.513   9.402  0.00  0.00     0.098 A 
HETATM    8  C   UNK N   1      35.030  14.706  11.536  0.00  0.00     0.071 C 
ENDROOT
BRANCH   3   9
HETATM    9  C   UNK N   1      31.477  17.304   7.736  0.00  0.00     0.221 C 
BRANCH   9  10
HETATM   10  O   UNK N   1      30.585  18.172   8.409  0.00  0.00    -0.292 OA
BRANCH  10  11
HETATM   11  P   UNK N   1      28.951  17.538   8.458  0.00  0.00     0.391 P 
HETATM   12  O   UNK N   1      28.679  18.826   7.632  0.00  0.00    -0.632 OA
BRANCH  11  13
HETATM   13  O   UNK N   1      29.524  18.017  10.033  0.00  0.00    -0.307 OA
HETATM   14  H   UNK N   1      30.313  17.443  10.221  0.00  0.00     0.222 HD
ENDBRANCH  11  13
BRANCH  11  15
HETATM   15  O   UNK N   1      27.700  18.319   9.383  0.00  0.00    -0.307 OA
HETATM   16  H   UNK N   1      28.169  18.857  10.070  0.00  0.00     0.222 HD
ENDBRANCH  11  15
ENDBRANCH  10  11
ENDBRANCH   9  10
ENDBRANCH   3   9
BRANCH   4  17
HETATM   17  C   UNK N   1      34.289  18.398   8.156  0.00  0.00     0.273 C 
HETATM   18  O   UNK N   1      35.218  19.068   8.571  0.00  0.00    -0.301 OA
ENDBRANCH   4  17
BRANCH   5  19
HETATM   19  O   UNK N   1      35.885  16.970  10.134  0.00  0.00    -0.358 OA
HETATM   20  H   UNK N   1      36.690  16.711   9.674  0.00  0.00     0.217 HD
ENDBRANCH   5  19
TORSDOF 7
ENDMDL
MODEL 2
REMARK VINA RESULT:      -5.8      9.370     11.058
REMARK  7 active torsions:
REMARK  status: ('A' for Active; 'I' for Inactive)
REMARK    1  A    between atoms: P_1  and  O_2 
REMARK    2  A    between atoms: P_1  and  O_4 
REMARK    3  A    between atoms: P_1  and  O_5 
REMARK    4  A    between atoms: O_2  and  C_12 
REMARK    5  A    between atoms: O_3  and  C_13 
REMARK    6  A    between atoms: C_10  and  C_12 
REMARK    7  A    between atoms: C_11  and  C_17 
ROOT
HETATM    1  N   UNK N   1      21.670  12.065  11.761  0.00  0.00    -0.367 N 
ATOM      2  HN  UNK N   1      20.994  11.873  12.500  1.00  0.00     0.165 HD
HETATM    3  C   UNK N   1      22.116  12.544   9.451  0.00  0.00    -0.003 A 
HETATM    4  C   UNK N   1      23.521  12.551   9.728  0.00  0.00     0.046 A 
HETATM    5  C   UNK N   1      23.947  12.330  11.074  0.00  0.00     0.101 A 
HETATM    6  C   UNK N   1      22.987  12.087  12.070  0.00  0.00     0.039 A 
HETATM    7  C   UNK N   1      21.220  12.288  10.504  0.00  0.00     0.098 A 
HETATM    8  C   UNK N   1      23.408  11.853  13.491  0.00  0.00     0.071 C 
ENDROOT
BRANCH   3   9
HETATM    9  C   UNK N   1      21.556  12.827   8.066  0.00  0.00     0.221 C 
BRANCH   9  10
HETATM   10  O   UNK N   1      20.292  13.462   8.120  0.00  0.00    -0.292 OA
BRANCH  10  11
HETATM   11  P   UNK N   1      20.424  15.209   8.044  0.00  0.00     0.391 P 
HETATM   12  O   UNK N   1      19.355  15.101   9.168  0.00  0.00    -0.632 OA
BRANCH  11  13
HETATM   13  O   UNK N   1      19.747  14.531   6.587  0.00  0.00    -0.307 OA
HETATM   14  H   UNK N   1      19.285  15.281   6.129  0.00  0.00     0.222 HD
ENDBRANCH  11  13
BRANCH  11  15
HETATM   15  O   UNK N   1      19.127  16.192   7.425  0.00  0.00    -0.307 OA
HETATM   16  H   UNK N   1      19.555  17.021   7.090  0.00  0.00     0.222 HD
ENDBRANCH  11  15
ENDBRANCH  10  11
ENDBRANCH   9  10
ENDBRANCH   3   9
BRANCH   4  17
HETATM   17  C   UNK N   1      24.545  12.806   8.654  0.00  0.00     0.273 C 
HETATM   18  O   UNK N   1      25.303  13.760   8.697  0.00  0.00    -0.301 OA
ENDBRANCH   4  17
BRANCH   5  19
HETATM   19  O   UNK N   1      25.250  12.340  11.444  0.00  0.00    -0.358 OA
HETATM   20  H   UNK N   1      25.744  13.109  11.745  0.00  0.00     0.217 HD
ENDBRANCH   5  19
TORSDOF 7
ENDMDL
MODEL 3
REMARK VINA RESULT:      -5.4      3.708      6.741
REMARK  7 active torsions:
REMARK  status: ('A' for Active; 'I' for Inactive)
REMARK    1  A    between atoms: P_1  and  O_2 
REMARK    2  A    between atoms: P_1  and  O_4 
REMARK    3  A    between atoms: P_1  and  O_5 
REMARK    4  A    between atoms: O_2  and  C_12 
REMARK    5  A    between atoms: O_3  and  C_13 
REMARK    6  A    between atoms: C_10  and  C_12 
REMARK    7  A    between atoms: C_11  and  C_17 
ROOT
HETATM    1  N   UNK N   1      29.057  18.262   4.452  0.00  0.00    -0.367 N 
ATOM      2  HN  UNK N   1      29.074  18.296   3.433  1.00  0.00     0.165 HD
HETATM    3  C   UNK N   1      30.052  17.520   6.507  0.00  0.00    -0.003 A 
HETATM    4  C   UNK N   1      28.988  18.137   7.241  0.00  0.00     0.046 A 
HETATM    5  C   UNK N   1      27.981  18.840   6.510  0.00  0.00     0.101 A 
HETATM    6  C   UNK N   1      28.047  18.880   5.108  0.00  0.00     0.039 A 
HETATM    7  C   UNK N   1      30.043  17.602   5.102  0.00  0.00     0.098 A 
HETATM    8  C   UNK N   1      27.004  19.613   4.318  0.00  0.00     0.071 C 
ENDROOT
BRANCH   3   9
HETATM    9  C   UNK N   1      31.203  16.798   7.190  0.00  0.00     0.221 C 
BRANCH   9  10
HETATM   10  O   UNK N   1      32.445  17.064   6.566  0.00  0.00    -0.292 OA
BRANCH  10  11
HETATM   11  P   UNK N   1      33.751  17.218   7.726  0.00  0.00     0.391 P 
HETATM   12  O   UNK N   1      32.825  18.343   8.264  0.00  0.00    -0.632 OA
BRANCH  11  13
HETATM   13  O   UNK N   1      34.245  17.649   6.111  0.00  0.00    -0.307 OA
HETATM   14  H   UNK N   1      33.523  17.326   5.511  0.00  0.00     0.222 HD
ENDBRANCH  11  13
BRANCH  11  15
HETATM   15  O   UNK N   1      34.807  18.602   7.730  0.00  0.00    -0.307 OA
HETATM   16  H   UNK N   1      34.401  19.248   8.363  0.00  0.00     0.222 HD
ENDBRANCH  11  15
ENDBRANCH  10  11
ENDBRANCH   9  10
ENDBRANCH   3   9
BRANCH   4  17
HETATM   17  C   UNK N   1      28.920  18.084   8.743  0.00  0.00     0.273 C 
HETATM   18  O   UNK N   1      27.880  17.854   9.336  0.00  0.00    -0.301 OA
ENDBRANCH   4  17
BRANCH   5  19
HETATM   19  O   UNK N   1      26.947  19.477   7.111  0.00  0.00    -0.358 OA
HETATM   20  H   UNK N   1      26.183  19.855   6.664  0.00  0.00     0.217 HD
ENDBRANCH   5  19
TORSDOF 7
ENDMDL
MODEL 4
REMARK VINA RESULT:      -5.3      4.545      6.403
REMARK  7 active torsions:
REMARK  status: ('A' for Active; 'I' for Inactive)
REMARK    1  A    between atoms: P_1  and  O_2 
REMARK    2  A    between atoms: P_1  and  O_4 
REMARK    3  A    between atoms: P_1  and  O_5 
REMARK    4  A    between atoms: O_2  and  C_12 
REMARK    5  A    between atoms: O_3  and  C_13 
REMARK    6  A    between atoms: C_10  and  C_12 
REMARK    7  A    between atoms: C_11  and  C_17 
ROOT
HETATM    1  N   UNK N   1      34.401  11.755  12.975  0.00  0.00    -0.367 N 
ATOM      2  HN  UNK N   1      33.854  11.008  12.547  1.00  0.00     0.165 HD
HETATM    3  C   UNK N   1      35.714  13.750  12.726  0.00  0.00    -0.003 A 
HETATM    4  C   UNK N   1      35.931  13.780  14.141  0.00  0.00     0.046 A 
HETATM    5  C   UNK N   1      35.322  12.763  14.940  0.00  0.00     0.101 A 
HETATM    6  C   UNK N   1      34.561  11.760  14.319  0.00  0.00     0.039 A 
HETATM    7  C   UNK N   1      34.942  12.708  12.180  0.00  0.00     0.098 A 
HETATM    8  C   UNK N   1      33.910  10.684  15.135  0.00  0.00     0.071 C 
ENDROOT
BRANCH   3   9
HETATM    9  C   UNK N   1      36.267  14.816  11.793  0.00  0.00     0.221 C 
BRANCH   9  10
HETATM   10  O   UNK N   1      35.344  15.866  11.574  0.00  0.00    -0.292 OA
BRANCH  10  11
HETATM   11  P   UNK N   1      35.088  16.180   9.868  0.00  0.00     0.391 P 
HETATM   12  O   UNK N   1      35.418  17.627  10.327  0.00  0.00    -0.632 OA
BRANCH  11  13
HETATM   13  O   UNK N   1      33.627  15.676  10.676  0.00  0.00    -0.307 OA
HETATM   14  H   UNK N   1      33.727  15.965  11.621  0.00  0.00     0.222 HD
ENDBRANCH  11  13
BRANCH  11  15
HETATM   15  O   UNK N   1      33.705  17.076   9.306  0.00  0.00    -0.307 OA
HETATM   16  H   UNK N   1      32.919  16.661   9.745  0.00  0.00     0.222 HD
ENDBRANCH  11  15
ENDBRANCH  10  11
ENDBRANCH   9  10
ENDBRANCH   3   9
BRANCH   4  17
HETATM   17  C   UNK N   1      36.753  14.855  14.799  0.00  0.00     0.273 C 
HETATM   18  O   UNK N   1      37.471  14.624  15.757  0.00  0.00    -0.301 OA
ENDBRANCH   4  17
BRANCH   5  19
HETATM   19  O   UNK N   1      35.446  12.716  16.289  0.00  0.00    -0.358 OA
HETATM   20  H   UNK N   1      36.260  12.548  16.774  0.00  0.00     0.217 HD
ENDBRANCH   5  19
TORSDOF 7
ENDMDL
MODEL 5
REMARK VINA RESULT:      -5.3      2.715      3.226
REMARK  7 active torsions:
REMARK  status: ('A' for Active; 'I' for Inactive)
REMARK    1  A    between atoms: P_1  and  O_2 
REMARK    2  A    between atoms: P_1  and  O_4 
REMARK    3  A    between atoms: P_1  and  O_5 
REMARK    4  A    between atoms: O_2  and  C_12 
REMARK    5  A    between atoms: O_3  and  C_13 
REMARK    6  A    between atoms: C_10  and  C_12 
REMARK    7  A    between atoms: C_11  and  C_17 
ROOT
HETATM    1  N   UNK N   1      33.365  14.937  10.334  0.00  0.00    -0.367 N 
ATOM      2  HN  UNK N   1      33.101  14.099  10.852  1.00  0.00     0.165 HD
HETATM    3  C   UNK N   1      32.922  16.481   8.550  0.00  0.00    -0.003 A 
HETATM    4  C   UNK N   1      34.108  17.208   8.890  0.00  0.00     0.046 A 
HETATM    5  C   UNK N   1      34.884  16.756  10.002  0.00  0.00     0.101 A 
HETATM    6  C   UNK N   1      34.480  15.609  10.703  0.00  0.00     0.039 A 
HETATM    7  C   UNK N   1      32.589  15.339   9.300  0.00  0.00     0.098 A 
HETATM    8  C   UNK N   1      35.275  15.115  11.875  0.00  0.00     0.071 C 
ENDROOT
BRANCH   3   9
HETATM    9  C   UNK N   1      31.996  16.911   7.423  0.00  0.00     0.221 C 
BRANCH   9  10
HETATM   10  O   UNK N   1      32.313  16.275   6.199  0.00  0.00    -0.292 OA
BRANCH  10  11
HETATM   11  P   UNK N   1      31.740  17.181   4.812  0.00  0.00     0.391 P 
HETATM   12  O   UNK N   1      31.556  15.745   4.247  0.00  0.00    -0.632 OA
BRANCH  11  13
HETATM   13  O   UNK N   1      33.439  17.432   5.111  0.00  0.00    -0.307 OA
HETATM   14  H   UNK N   1      33.736  16.654   5.651  0.00  0.00     0.222 HD
ENDBRANCH  11  13
BRANCH  11  15
HETATM   15  O   UNK N   1      32.648  17.242   3.328  0.00  0.00    -0.307 OA
HETATM   16  H   UNK N   1      32.699  16.307   3.004  0.00  0.00     0.222 HD
ENDBRANCH  11  15
ENDBRANCH  10  11
ENDBRANCH   9  10
ENDBRANCH   3   9
BRANCH   4  17
HETATM   17  C   UNK N   1      34.539  18.434   8.129  0.00  0.00     0.273 C 
HETATM   18  O   UNK N   1      35.309  19.251   8.602  0.00  0.00    -0.301 OA
ENDBRANCH   4  17
BRANCH   5  19
HETATM   19  O   UNK N   1      36.008  17.387  10.418  0.00  0.00    -0.358 OA
HETATM   20  H   UNK N   1      36.794  17.547   9.886  0.00  0.00     0.217 HD
ENDBRANCH   5  19
TORSDOF 7
ENDMDL
MODEL 6
REMARK VINA RESULT:      -5.3     15.024     16.685
REMARK  7 active torsions:
REMARK  status: ('A' for Active; 'I' for Inactive)
REMARK    1  A    between atoms: P_1  and  O_2 
REMARK    2  A    between atoms: P_1  and  O_4 
REMARK    3  A    between atoms: P_1  and  O_5 
REMARK    4  A    between atoms: O_2  and  C_12 
REMARK    5  A    between atoms: O_3  and  C_13 
REMARK    6  A    between atoms: C_10  and  C_12 
REMARK    7  A    between atoms: C_11  and  C_17 
ROOT
HETATM    1  N   UNK N   1      28.868  28.631  -3.763  0.00  0.00    -0.367 N 
ATOM      2  HN  UNK N   1      29.395  29.503  -3.807  1.00  0.00     0.165 HD
HETATM    3  C   UNK N   1      28.823  26.238  -3.950  0.00  0.00    -0.003 A 
HETATM    4  C   UNK N   1      27.416  26.247  -3.680  0.00  0.00     0.046 A 
HETATM    5  C   UNK N   1      26.784  27.504  -3.428  0.00  0.00     0.101 A 
HETATM    6  C   UNK N   1      27.545  28.682  -3.480  0.00  0.00     0.039 A 
HETATM    7  C   UNK N   1      29.513  27.463  -3.988  0.00  0.00     0.098 A 
HETATM    8  C   UNK N   1      26.906  30.013  -3.218  0.00  0.00     0.071 C 
ENDROOT
BRANCH   3   9
HETATM    9  C   UNK N   1      29.602  24.952  -4.173  0.00  0.00     0.221 C 
BRANCH   9  10
HETATM   10  O   UNK N   1      30.273  24.523  -3.003  0.00  0.00    -0.292 OA
BRANCH  10  11
HETATM   11  P   UNK N   1      30.296  22.777  -2.852  0.00  0.00     0.391 P 
HETATM   12  O   UNK N   1      30.357  23.144  -1.343  0.00  0.00    -0.632 OA
BRANCH  11  13
HETATM   13  O   UNK N   1      31.735  23.395  -3.618  0.00  0.00    -0.307 OA
HETATM   14  H   UNK N   1      32.456  23.323  -2.939  0.00  0.00     0.222 HD
ENDBRANCH  11  13
BRANCH  11  15
HETATM   15  O   UNK N   1      31.719  21.929  -2.316  0.00  0.00    -0.307 OA
HETATM   16  H   UNK N   1      32.310  22.619  -1.919  0.00  0.00     0.222 HD
ENDBRANCH  11  15
ENDBRANCH  10  11
ENDBRANCH   9  10
ENDBRANCH   3   9
BRANCH   4  17
HETATM   17  C   UNK N   1      26.605  24.980  -3.633  0.00  0.00     0.273 C 
HETATM   18  O   UNK N   1      26.657  24.214  -2.687  0.00  0.00    -0.301 OA
ENDBRANCH   4  17
BRANCH   5  19
HETATM   19  O   UNK N   1      25.464  27.618  -3.141  0.00  0.00    -0.358 OA
HETATM   20  H   UNK N   1      25.045  28.371  -2.712  0.00  0.00     0.217 HD
ENDBRANCH   5  19
TORSDOF 7
ENDMDL
MODEL 7
REMARK VINA RESULT:      -5.3      7.528      9.754
REMARK  7 active torsions:
REMARK  status: ('A' for Active; 'I' for Inactive)
REMARK    1  A    between atoms: P_1  and  O_2 
REMARK    2  A    between atoms: P_1  and  O_4 
REMARK    3  A    between atoms: P_1  and  O_5 
REMARK    4  A    between atoms: O_2  and  C_12 
REMARK    5  A    between atoms: O_3  and  C_13 
REMARK    6  A    between atoms: C_10  and  C_12 
REMARK    7  A    between atoms: C_11  and  C_17 
ROOT
HETATM    1  N   UNK N   1      35.165  10.310  17.996  0.00  0.00    -0.367 N 
ATOM      2  HN  UNK N   1      35.149   9.291  18.028  1.00  0.00     0.165 HD
HETATM    3  C   UNK N   1      35.154  12.331  16.701  0.00  0.00    -0.003 A 
HETATM    4  C   UNK N   1      35.250  13.100  17.906  0.00  0.00     0.046 A 
HETATM    5  C   UNK N   1      35.274  12.402  19.153  0.00  0.00     0.101 A 
HETATM    6  C   UNK N   1      35.232  10.999  19.159  0.00  0.00     0.039 A 
HETATM    7  C   UNK N   1      35.121  10.928  16.793  0.00  0.00     0.098 A 
HETATM    8  C   UNK N   1      35.253  10.243  20.455  0.00  0.00     0.071 C 
ENDROOT
BRANCH   3   9
HETATM    9  C   UNK N   1      35.063  12.976  15.327  0.00  0.00     0.221 C 
BRANCH   9  10
HETATM   10  O   UNK N   1      35.959  12.390  14.401  0.00  0.00    -0.292 OA
BRANCH  10  11
HETATM   11  P   UNK N   1      35.749  13.026  12.781  0.00  0.00     0.391 P 
HETATM   12  O   UNK N   1      36.010  14.364  13.527  0.00  0.00    -0.632 OA
BRANCH  11  13
HETATM   13  O   UNK N   1      34.282  12.330  13.414  0.00  0.00    -0.307 OA
HETATM   14  H   UNK N   1      33.828  11.904  12.640  0.00  0.00     0.222 HD
ENDBRANCH  11  13
BRANCH  11  15
HETATM   15  O   UNK N   1      34.355  13.974  12.349  0.00  0.00    -0.307 OA
HETATM   16  H   UNK N   1      34.691  14.894  12.195  0.00  0.00     0.222 HD
ENDBRANCH  11  15
ENDBRANCH  10  11
ENDBRANCH   9  10
ENDBRANCH   3   9
BRANCH   4  17
HETATM   17  C   UNK N   1      35.302  14.604  17.891  0.00  0.00     0.273 C 
HETATM   18  O   UNK N   1      36.201  15.225  18.431  0.00  0.00    -0.301 OA
ENDBRANCH   4  17
BRANCH   5  19
HETATM   19  O   UNK N   1      35.340  13.036  20.348  0.00  0.00    -0.358 OA
HETATM   20  H   UNK N   1      35.035  13.931  20.528  0.00  0.00     0.217 HD
ENDBRANCH   5  19
TORSDOF 7
ENDMDL
MODEL 8
REMARK VINA RESULT:      -5.2     16.556     18.640
REMARK  7 active torsions:
REMARK  status: ('A' for Active; 'I' for Inactive)
REMARK    1  A    between atoms: P_1  and  O_2 
REMARK    2  A    between atoms: P_1  and  O_4 
REMARK    3  A    between atoms: P_1  and  O_5 
REMARK    4  A    between atoms: O_2  and  C_12 
REMARK    5  A    between atoms: O_3  and  C_13 
REMARK    6  A    between atoms: C_10  and  C_12 
REMARK    7  A    between atoms: C_11  and  C_17 
ROOT
HETATM    1  N   UNK N   1      26.589  28.357  -5.586  0.00  0.00    -0.367 N 
ATOM      2  HN  UNK N   1      26.640  29.285  -6.004  1.00  0.00     0.165 HD
HETATM    3  C   UNK N   1      26.600  25.971  -5.855  0.00  0.00    -0.003 A 
HETATM    4  C   UNK N   1      26.410  25.815  -4.444  0.00  0.00     0.046 A 
HETATM    5  C   UNK N   1      26.342  26.992  -3.636  0.00  0.00     0.101 A 
HETATM    6  C   UNK N   1      26.434  28.253  -4.245  0.00  0.00     0.039 A 
HETATM    7  C   UNK N   1      26.678  27.271  -6.388  0.00  0.00     0.098 A 
HETATM    8  C   UNK N   1      26.367  29.504  -3.419  0.00  0.00     0.071 C 
ENDROOT
BRANCH   3   9
HETATM    9  C   UNK N   1      26.744  24.785  -6.795  0.00  0.00     0.221 C 
BRANCH   9  10
HETATM   10  O   UNK N   1      25.490  24.293  -7.230  0.00  0.00    -0.292 OA
BRANCH  10  11
HETATM   11  P   UNK N   1      25.650  22.865  -8.235  0.00  0.00     0.391 P 
HETATM   12  O   UNK N   1      24.591  23.630  -9.078  0.00  0.00    -0.632 OA
BRANCH  11  13
HETATM   13  O   UNK N   1      24.947  22.506  -6.681  0.00  0.00    -0.307 OA
HETATM   14  H   UNK N   1      24.505  21.623  -6.781  0.00  0.00     0.222 HD
ENDBRANCH  11  13
BRANCH  11  15
HETATM   15  O   UNK N   1      24.364  21.699  -8.370  0.00  0.00    -0.307 OA
HETATM   16  H   UNK N   1      24.566  20.997  -7.701  0.00  0.00     0.222 HD
ENDBRANCH  11  15
ENDBRANCH  10  11
ENDBRANCH   9  10
ENDBRANCH   3   9
BRANCH   4  17
HETATM   17  C   UNK N   1      26.305  24.459  -3.798  0.00  0.00     0.273 C 
HETATM   18  O   UNK N   1      26.672  24.258  -2.653  0.00  0.00    -0.301 OA
ENDBRANCH   4  17
BRANCH   5  19
HETATM   19  O   UNK N   1      26.188  26.951  -2.290  0.00  0.00    -0.358 OA
HETATM   20  H   UNK N   1      26.698  26.409  -1.681  0.00  0.00     0.217 HD
ENDBRANCH   5  19
TORSDOF 7
ENDMDL
MODEL 9
REMARK VINA RESULT:      -5.2     14.649     16.606
REMARK  7 active torsions:
REMARK  status: ('A' for Active; 'I' for Inactive)
REMARK    1  A    between atoms: P_1  and  O_2 
REMARK    2  A    between atoms: P_1  and  O_4 
REMARK    3  A    between atoms: P_1  and  O_5 
REMARK    4  A    between atoms: O_2  and  C_12 
REMARK    5  A    between atoms: O_3  and  C_13 
REMARK    6  A    between atoms: C_10  and  C_12 
REMARK    7  A    between atoms: C_11  and  C_17 
ROOT
HETATM    1  N   UNK N   1      27.741  22.371  -7.194  0.00  0.00    -0.367 N 
ATOM      2  HN  UNK N   1      27.828  21.792  -8.029  1.00  0.00     0.165 HD
HETATM    3  C   UNK N   1      28.726  23.273  -5.200  0.00  0.00    -0.003 A 
HETATM    4  C   UNK N   1      27.490  23.925  -4.888  0.00  0.00     0.046 A 
HETATM    5  C   UNK N   1      26.400  23.781  -5.801  0.00  0.00     0.101 A 
HETATM    6  C   UNK N   1      26.562  22.990  -6.950  0.00  0.00     0.039 A 
HETATM    7  C   UNK N   1      28.806  22.494  -6.369  0.00  0.00     0.098 A 
HETATM    8  C   UNK N   1      25.435  22.825  -7.925  0.00  0.00     0.071 C 
ENDROOT
BRANCH   3   9
HETATM    9  C   UNK N   1      29.964  23.409  -4.326  0.00  0.00     0.221 C 
BRANCH   9  10
HETATM   10  O   UNK N   1      30.309  22.190  -3.696  0.00  0.00    -0.292 OA
BRANCH  10  11
HETATM   11  P   UNK N   1      32.037  22.044  -3.435  0.00  0.00     0.391 P 
HETATM   12  O   UNK N   1      31.719  20.555  -3.749  0.00  0.00    -0.632 OA
BRANCH  11  13
HETATM   13  O   UNK N   1      31.183  22.485  -1.981  0.00  0.00    -0.307 OA
HETATM   14  H   UNK N   1      31.169  23.478  -1.966  0.00  0.00     0.222 HD
ENDBRANCH  11  13
BRANCH  11  15
HETATM   15  O   UNK N   1      32.680  21.221  -2.042  0.00  0.00    -0.307 OA
HETATM   16  H   UNK N   1      33.616  21.537  -1.951  0.00  0.00     0.222 HD
ENDBRANCH  11  15
ENDBRANCH  10  11
ENDBRANCH   9  10
ENDBRANCH   3   9
BRANCH   4  17
HETATM   17  C   UNK N   1      27.322  24.766  -3.651  0.00  0.00     0.273 C 
HETATM   18  O   UNK N   1      26.596  24.426  -2.732  0.00  0.00    -0.301 OA
ENDBRANCH   4  17
BRANCH   5  19
HETATM   19  O   UNK N   1      25.198  24.376  -5.610  0.00  0.00    -0.358 OA
HETATM   20  H   UNK N   1      24.340  23.985  -5.800  0.00  0.00     0.217 HD
ENDBRANCH   5  19
TORSDOF 7
ENDMDL
