MODEL 1
REMARK VINA RESULT:      -7.8      0.000      0.000
REMARK  12 active torsions:
REMARK  status: ('A' for Active; 'I' for Inactive)
REMARK    1  A    between atoms: C_1  and  C_2 
REMARK    2  A    between atoms: C_5  and  C_6 
REMARK    3  A    between atoms: C_7  and  C_9 
REMARK    4  A    between atoms: C_10  and  C_11 
REMARK    5  A    between atoms: C_12  and  C_14 
REMARK    6  A    between atoms: C_15  and  C_16 
REMARK    7  A    between atoms: C_17  and  C_18 
REMARK    8  A    between atoms: C_20  and  C_21 
REMARK    9  A    between atoms: C_22  and  C_23 
REMARK   10  A    between atoms: C_26  and  C_25 
REMARK   11  A    between atoms: C_39  and  O_40 
REMARK   12  A    between atoms: C_41  and  O_42 
ROOT
HETATM    1  C   UNK N   1      29.366  22.529  -6.176  0.00  0.00     0.001 C 
HETATM    2  C   UNK N   1      29.675  21.617  -5.258  0.00  0.00     0.001 C 
ENDROOT
BRANCH   1   3
HETATM    3  C   UNK N   1      27.961  22.847  -6.516  0.00  0.00     0.007 C 
HETATM    4  C   UNK N   1      27.198  22.208  -7.421  0.00  0.00    -0.062 C 
HETATM    5  C   UNK N   1      27.751  21.108  -8.283  0.00  0.00     0.048 C 
BRANCH   4   6
HETATM    6  C   UNK N   1      25.793  22.648  -7.555  0.00  0.00     0.007 C 
HETATM    7  C   UNK N   1      25.327  23.573  -8.405  0.00  0.00     0.001 C 
BRANCH   7   8
HETATM    8  C   UNK N   1      26.144  24.278  -9.415  0.00  0.00     0.007 C 
HETATM    9  C   UNK N   1      26.537  25.562  -9.324  0.00  0.00    -0.062 C 
HETATM   10  C   UNK N   1      27.362  26.116 -10.433  0.00  0.00     0.048 C 
BRANCH   9  11
HETATM   11  C   UNK N   1      26.236  26.455  -8.175  0.00  0.00     0.007 C 
HETATM   12  C   UNK N   1      27.106  26.697  -7.192  0.00  0.00     0.009 C 
BRANCH  12  13
HETATM   13  C   UNK N   1      26.854  27.612  -6.047  0.00  0.00    -0.048 C 
HETATM   14  C   UNK N   1      27.553  28.780  -5.997  0.00  0.00    -0.074 C 
HETATM   15  C   UNK N   1      27.395  29.749  -4.854  0.00  0.00     0.066 C 
HETATM   16  C   UNK N   1      28.530  29.148  -7.069  0.00  0.00     0.044 C 
HETATM   17  C   UNK N   1      26.919  29.054  -3.591  0.00  0.00     0.123 C 
HETATM   18  C   UNK N   1      25.625  28.343  -3.922  0.00  0.00     0.045 C 
HETATM   19  C   UNK N   1      25.850  27.231  -4.952  0.00  0.00    -0.018 C 
HETATM   20  C   UNK N   1      26.335  25.987  -4.225  0.00  0.00     0.020 C 
HETATM   21  C   UNK N   1      24.489  26.937  -5.562  0.00  0.00     0.020 C 
BRANCH  17  22
HETATM   22  O   UNK N   1      26.688  30.007  -2.601  0.00  0.00    -0.395 OA
HETATM   23  H   UNK N   1      25.833  30.075  -2.146  0.00  0.00     0.210 HD
ENDBRANCH  17  22
ENDBRANCH  12  13
ENDBRANCH   9  11
ENDBRANCH   7   8
ENDBRANCH   4   6
ENDBRANCH   1   3
BRANCH   2  24
HETATM   24  C   UNK N   1      31.064  21.339  -4.905  0.00  0.00     0.007 C 
HETATM   25  C   UNK N   1      31.553  21.586  -3.681  0.00  0.00    -0.062 C 
HETATM   26  C   UNK N   1      30.679  22.156  -2.606  0.00  0.00     0.048 C 
BRANCH  25  27
HETATM   27  C   UNK N   1      32.967  21.313  -3.341  0.00  0.00     0.007 C 
HETATM   28  C   UNK N   1      34.018  21.364  -4.174  0.00  0.00     0.001 C 
BRANCH  28  29
HETATM   29  C   UNK N   1      33.954  21.739  -5.603  0.00  0.00     0.007 C 
HETATM   30  C   UNK N   1      33.759  22.992  -6.057  0.00  0.00    -0.062 C 
HETATM   31  C   UNK N   1      33.733  23.200  -7.531  0.00  0.00     0.048 C 
BRANCH  30  32
HETATM   32  C   UNK N   1      33.590  24.187  -5.187  0.00  0.00     0.003 C 
HETATM   33  C   UNK N   1      32.581  25.047  -5.330  0.00  0.00    -0.016 C 
BRANCH  33  34
HETATM   34  C   UNK N   1      32.359  26.238  -4.437  0.00  0.00     0.044 C 
HETATM   35  C   UNK N   1      30.888  26.312  -4.049  0.00  0.00    -0.077 C 
HETATM   36  C   UNK N   1      30.238  27.481  -3.944  0.00  0.00     0.007 C 
HETATM   37  C   UNK N   1      30.146  25.064  -3.688  0.00  0.00     0.044 C 
HETATM   38  C   UNK N   1      30.895  28.817  -4.169  0.00  0.00     0.142 C 
HETATM   39  C   UNK N   1      32.423  28.724  -4.173  0.00  0.00     0.045 C 
HETATM   40  C   UNK N   1      32.906  27.563  -5.034  0.00  0.00    -0.035 C 
HETATM   41  C   UNK N   1      32.450  27.777  -6.476  0.00  0.00     0.016 C 
HETATM   42  C   UNK N   1      34.423  27.562  -5.008  0.00  0.00     0.016 C 
BRANCH  38  43
HETATM   43  O   UNK N   1      30.500  29.699  -3.165  0.00  0.00    -0.392 OA
HETATM   44  H   UNK N   1      29.919  29.416  -2.443  0.00  0.00     0.210 HD
ENDBRANCH  38  43
ENDBRANCH  33  34
ENDBRANCH  30  32
ENDBRANCH  28  29
ENDBRANCH  25  27
ENDBRANCH   2  24
TORSDOF 12
ENDMDL
MODEL 2
REMARK VINA RESULT:      -7.7     13.616     17.011
REMARK  12 active torsions:
REMARK  status: ('A' for Active; 'I' for Inactive)
REMARK    1  A    between atoms: C_1  and  C_2 
REMARK    2  A    between atoms: C_5  and  C_6 
REMARK    3  A    between atoms: C_7  and  C_9 
REMARK    4  A    between atoms: C_10  and  C_11 
REMARK    5  A    between atoms: C_12  and  C_14 
REMARK    6  A    between atoms: C_15  and  C_16 
REMARK    7  A    between atoms: C_17  and  C_18 
REMARK    8  A    between atoms: C_20  and  C_21 
REMARK    9  A    between atoms: C_22  and  C_23 
REMARK   10  A    between atoms: C_26  and  C_25 
REMARK   11  A    between atoms: C_39  and  O_40 
REMARK   12  A    between atoms: C_41  and  O_42 
ROOT
HETATM    1  C   UNK N   1      23.042  17.650   5.445  0.00  0.00     0.001 C 
HETATM    2  C   UNK N   1      23.807  17.215   4.447  0.00  0.00     0.001 C 
ENDROOT
BRANCH   1   3
HETATM    3  C   UNK N   1      21.726  17.038   5.742  0.00  0.00     0.007 C 
HETATM    4  C   UNK N   1      20.600  17.189   5.022  0.00  0.00    -0.062 C 
HETATM    5  C   UNK N   1      20.539  18.108   3.835  0.00  0.00     0.048 C 
BRANCH   4   6
HETATM    6  C   UNK N   1      19.409  16.430   5.460  0.00  0.00     0.007 C 
HETATM    7  C   UNK N   1      19.001  15.245   4.982  0.00  0.00     0.001 C 
BRANCH   7   8
HETATM    8  C   UNK N   1      19.721  14.454   3.963  0.00  0.00     0.007 C 
HETATM    9  C   UNK N   1      20.585  13.458   4.234  0.00  0.00    -0.062 C 
HETATM   10  C   UNK N   1      21.223  12.760   3.084  0.00  0.00     0.048 C 
BRANCH   9  11
HETATM   11  C   UNK N   1      20.918  12.982   5.601  0.00  0.00     0.007 C 
HETATM   12  C   UNK N   1      21.913  13.495   6.330  0.00  0.00     0.009 C 
BRANCH  12  13
HETATM   13  C   UNK N   1      22.252  13.070   7.715  0.00  0.00    -0.048 C 
HETATM   14  C   UNK N   1      21.545  13.617   8.742  0.00  0.00    -0.074 C 
HETATM   15  C   UNK N   1      21.847  13.279  10.179  0.00  0.00     0.066 C 
HETATM   16  C   UNK N   1      20.444  14.600   8.493  0.00  0.00     0.044 C 
HETATM   17  C   UNK N   1      23.283  12.823  10.358  0.00  0.00     0.123 C 
HETATM   18  C   UNK N   1      23.506  11.645   9.434  0.00  0.00     0.045 C 
HETATM   19  C   UNK N   1      23.380  12.061   7.965  0.00  0.00    -0.018 C 
HETATM   20  C   UNK N   1      24.705  12.654   7.513  0.00  0.00     0.020 C 
HETATM   21  C   UNK N   1      23.127  10.783   7.183  0.00  0.00     0.020 C 
BRANCH  17  22
HETATM   22  O   UNK N   1      23.478  12.422  11.679  0.00  0.00    -0.395 OA
HETATM   23  H   UNK N   1      23.020  11.652  12.052  0.00  0.00     0.210 HD
ENDBRANCH  17  22
ENDBRANCH  12  13
ENDBRANCH   9  11
ENDBRANCH   7   8
ENDBRANCH   4   6
ENDBRANCH   1   3
BRANCH   2  24
HETATM   24  C   UNK N   1      25.119  17.801   4.188  0.00  0.00     0.007 C 
HETATM   25  C   UNK N   1      25.261  19.026   3.662  0.00  0.00    -0.062 C 
HETATM   26  C   UNK N   1      24.065  19.861   3.325  0.00  0.00     0.048 C 
BRANCH  25  27
HETATM   27  C   UNK N   1      26.597  19.602   3.391  0.00  0.00     0.007 C 
HETATM   28  C   UNK N   1      27.235  20.533   4.118  0.00  0.00     0.001 C 
BRANCH  28  29
HETATM   29  C   UNK N   1      26.717  21.141   5.363  0.00  0.00     0.007 C 
HETATM   30  C   UNK N   1      26.729  20.542   6.569  0.00  0.00    -0.062 C 
HETATM   31  C   UNK N   1      26.179  21.301   7.726  0.00  0.00     0.048 C 
BRANCH  30  32
HETATM   32  C   UNK N   1      27.273  19.183   6.830  0.00  0.00     0.003 C 
HETATM   33  C   UNK N   1      28.580  18.917   6.839  0.00  0.00    -0.016 C 
BRANCH  33  34
HETATM   34  C   UNK N   1      29.161  17.563   7.145  0.00  0.00     0.044 C 
HETATM   35  C   UNK N   1      30.285  17.713   8.162  0.00  0.00    -0.077 C 
HETATM   36  C   UNK N   1      31.404  16.975   8.099  0.00  0.00     0.007 C 
HETATM   37  C   UNK N   1      30.125  18.643   9.322  0.00  0.00     0.044 C 
HETATM   38  C   UNK N   1      31.644  15.922   7.050  0.00  0.00     0.142 C 
HETATM   39  C   UNK N   1      30.363  15.539   6.302  0.00  0.00     0.045 C 
HETATM   40  C   UNK N   1      29.580  16.775   5.875  0.00  0.00    -0.035 C 
HETATM   41  C   UNK N   1      30.437  17.616   4.930  0.00  0.00     0.016 C 
HETATM   42  C   UNK N   1      28.350  16.309   5.118  0.00  0.00     0.016 C 
BRANCH  38  43
HETATM   43  O   UNK N   1      32.171  14.781   7.654  0.00  0.00    -0.392 OA
HETATM   44  H   UNK N   1      33.040  14.792   8.083  0.00  0.00     0.210 HD
ENDBRANCH  38  43
ENDBRANCH  33  34
ENDBRANCH  30  32
ENDBRANCH  28  29
ENDBRANCH  25  27
ENDBRANCH   2  24
TORSDOF 12
ENDMDL
MODEL 3
REMARK VINA RESULT:      -7.6     13.748     17.302
REMARK  12 active torsions:
REMARK  status: ('A' for Active; 'I' for Inactive)
REMARK    1  A    between atoms: C_1  and  C_2 
REMARK    2  A    between atoms: C_5  and  C_6 
REMARK    3  A    between atoms: C_7  and  C_9 
REMARK    4  A    between atoms: C_10  and  C_11 
REMARK    5  A    between atoms: C_12  and  C_14 
REMARK    6  A    between atoms: C_15  and  C_16 
REMARK    7  A    between atoms: C_17  and  C_18 
REMARK    8  A    between atoms: C_20  and  C_21 
REMARK    9  A    between atoms: C_22  and  C_23 
REMARK   10  A    between atoms: C_26  and  C_25 
REMARK   11  A    between atoms: C_39  and  O_40 
REMARK   12  A    between atoms: C_41  and  O_42 
ROOT
HETATM    1  C   UNK N   1      26.130  15.549   3.331  0.00  0.00     0.001 C 
HETATM    2  C   UNK N   1      25.733  16.727   3.807  0.00  0.00     0.001 C 
ENDROOT
BRANCH   1   3
HETATM    3  C   UNK N   1      25.173  14.445   3.088  0.00  0.00     0.007 C 
HETATM    4  C   UNK N   1      24.824  13.489   3.968  0.00  0.00    -0.062 C 
HETATM    5  C   UNK N   1      25.467  13.390   5.322  0.00  0.00     0.048 C 
BRANCH   4   6
HETATM    6  C   UNK N   1      23.795  12.518   3.540  0.00  0.00     0.007 C 
HETATM    7  C   UNK N   1      22.472  12.729   3.497  0.00  0.00     0.001 C 
BRANCH   7   8
HETATM    8  C   UNK N   1      21.812  14.013   3.815  0.00  0.00     0.007 C 
HETATM    9  C   UNK N   1      21.387  14.373   5.040  0.00  0.00    -0.062 C 
HETATM   10  C   UNK N   1      20.743  15.708   5.186  0.00  0.00     0.048 C 
BRANCH   9  11
HETATM   11  C   UNK N   1      21.548  13.547   6.264  0.00  0.00     0.007 C 
HETATM   12  C   UNK N   1      22.069  14.019   7.399  0.00  0.00     0.009 C 
BRANCH  12  13
HETATM   13  C   UNK N   1      22.212  13.233   8.655  0.00  0.00    -0.048 C 
HETATM   14  C   UNK N   1      21.275  13.408   9.628  0.00  0.00    -0.074 C 
HETATM   15  C   UNK N   1      21.361  12.688  10.947  0.00  0.00     0.066 C 
HETATM   16  C   UNK N   1      20.122  14.344   9.438  0.00  0.00     0.044 C 
HETATM   17  C   UNK N   1      22.789  12.298  11.282  0.00  0.00     0.123 C 
HETATM   18  C   UNK N   1      23.313  11.459  10.136  0.00  0.00     0.045 C 
HETATM   19  C   UNK N   1      23.394  12.275   8.842  0.00  0.00    -0.018 C 
HETATM   20  C   UNK N   1      24.695  13.063   8.846  0.00  0.00     0.020 C 
HETATM   21  C   UNK N   1      23.441  11.265   7.707  0.00  0.00     0.020 C 
BRANCH  17  22
HETATM   22  O   UNK N   1      22.799  11.544  12.454  0.00  0.00    -0.395 OA
HETATM   23  H   UNK N   1      22.603  11.939  13.318  0.00  0.00     0.210 HD
ENDBRANCH  17  22
ENDBRANCH  12  13
ENDBRANCH   9  11
ENDBRANCH   7   8
ENDBRANCH   4   6
ENDBRANCH   1   3
BRANCH   2  24
HETATM   24  C   UNK N   1      26.680  17.820   4.007  0.00  0.00     0.007 C 
HETATM   25  C   UNK N   1      26.280  19.087   4.186  0.00  0.00    -0.062 C 
HETATM   26  C   UNK N   1      24.824  19.437   4.201  0.00  0.00     0.048 C 
BRANCH  25  27
HETATM   27  C   UNK N   1      27.252  20.187   4.373  0.00  0.00     0.007 C 
HETATM   28  C   UNK N   1      27.812  20.578   5.528  0.00  0.00     0.001 C 
BRANCH  28  29
HETATM   29  C   UNK N   1      27.576  19.946   6.844  0.00  0.00     0.007 C 
HETATM   30  C   UNK N   1      28.313  18.940   7.353  0.00  0.00    -0.062 C 
HETATM   31  C   UNK N   1      27.948  18.426   8.702  0.00  0.00     0.048 C 
BRANCH  30  32
HETATM   32  C   UNK N   1      29.480  18.321   6.671  0.00  0.00     0.003 C 
HETATM   33  C   UNK N   1      30.070  17.209   7.112  0.00  0.00    -0.016 C 
BRANCH  33  34
HETATM   34  C   UNK N   1      31.222  16.536   6.418  0.00  0.00     0.044 C 
HETATM   35  C   UNK N   1      30.767  15.187   5.874  0.00  0.00    -0.077 C 
HETATM   36  C   UNK N   1      31.563  14.108   5.895  0.00  0.00     0.007 C 
HETATM   37  C   UNK N   1      29.430  15.058   5.217  0.00  0.00     0.044 C 
HETATM   38  C   UNK N   1      32.973  14.127   6.423  0.00  0.00     0.142 C 
HETATM   39  C   UNK N   1      33.514  15.550   6.595  0.00  0.00     0.045 C 
HETATM   40  C   UNK N   1      32.500  16.448   7.294  0.00  0.00    -0.035 C 
HETATM   41  C   UNK N   1      32.207  15.891   8.687  0.00  0.00     0.016 C 
HETATM   42  C   UNK N   1      33.124  17.822   7.451  0.00  0.00     0.016 C 
BRANCH  38  43
HETATM   43  O   UNK N   1      33.804  13.432   5.546  0.00  0.00    -0.392 OA
HETATM   44  H   UNK N   1      34.768  13.449   5.642  0.00  0.00     0.210 HD
ENDBRANCH  38  43
ENDBRANCH  33  34
ENDBRANCH  30  32
ENDBRANCH  28  29
ENDBRANCH  25  27
ENDBRANCH   2  24
TORSDOF 12
ENDMDL
MODEL 4
REMARK VINA RESULT:      -7.5     12.590     15.351
REMARK  12 active torsions:
REMARK  status: ('A' for Active; 'I' for Inactive)
REMARK    1  A    between atoms: C_1  and  C_2 
REMARK    2  A    between atoms: C_5  and  C_6 
REMARK    3  A    between atoms: C_7  and  C_9 
REMARK    4  A    between atoms: C_10  and  C_11 
REMARK    5  A    between atoms: C_12  and  C_14 
REMARK    6  A    between atoms: C_15  and  C_16 
REMARK    7  A    between atoms: C_17  and  C_18 
REMARK    8  A    between atoms: C_20  and  C_21 
REMARK    9  A    between atoms: C_22  and  C_23 
REMARK   10  A    between atoms: C_26  and  C_25 
REMARK   11  A    between atoms: C_39  and  O_40 
REMARK   12  A    between atoms: C_41  and  O_42 
ROOT
HETATM    1  C   UNK N   1      26.539  15.951   2.410  0.00  0.00     0.001 C 
HETATM    2  C   UNK N   1      26.345  16.593   3.558  0.00  0.00     0.001 C 
ENDROOT
BRANCH   1   3
HETATM    3  C   UNK N   1      25.723  14.777   2.025  0.00  0.00     0.007 C 
HETATM    4  C   UNK N   1      26.155  13.507   1.929  0.00  0.00    -0.062 C 
HETATM    5  C   UNK N   1      27.600  13.147   2.128  0.00  0.00     0.048 C 
BRANCH   4   6
HETATM    6  C   UNK N   1      25.151  12.474   1.595  0.00  0.00     0.007 C 
HETATM    7  C   UNK N   1      24.497  11.690   2.464  0.00  0.00     0.001 C 
BRANCH   7   8
HETATM    8  C   UNK N   1      24.623  11.772   3.934  0.00  0.00     0.007 C 
HETATM    9  C   UNK N   1      23.834  12.515   4.731  0.00  0.00    -0.062 C 
HETATM   10  C   UNK N   1      24.097  12.481   6.197  0.00  0.00     0.048 C 
BRANCH   9  11
HETATM   11  C   UNK N   1      22.693  13.339   4.255  0.00  0.00     0.007 C 
HETATM   12  C   UNK N   1      22.789  14.649   4.014  0.00  0.00     0.009 C 
BRANCH  12  13
HETATM   13  C   UNK N   1      21.680  15.498   3.502  0.00  0.00    -0.048 C 
HETATM   14  C   UNK N   1      21.402  15.449   2.169  0.00  0.00    -0.074 C 
HETATM   15  C   UNK N   1      20.325  16.305   1.554  0.00  0.00     0.066 C 
HETATM   16  C   UNK N   1      22.169  14.555   1.246  0.00  0.00     0.044 C 
HETATM   17  C   UNK N   1      20.065  17.555   2.375  0.00  0.00     0.123 C 
HETATM   18  C   UNK N   1      19.714  17.114   3.779  0.00  0.00     0.045 C 
HETATM   19  C   UNK N   1      20.896  16.410   4.452  0.00  0.00    -0.018 C 
HETATM   20  C   UNK N   1      21.825  17.467   5.028  0.00  0.00     0.020 C 
HETATM   21  C   UNK N   1      20.311  15.601   5.598  0.00  0.00     0.020 C 
BRANCH  17  22
HETATM   22  O   UNK N   1      18.992  18.253   1.823  0.00  0.00    -0.395 OA
HETATM   23  H   UNK N   1      18.852  18.300   0.864  0.00  0.00     0.210 HD
ENDBRANCH  17  22
ENDBRANCH  12  13
ENDBRANCH   9  11
ENDBRANCH   7   8
ENDBRANCH   4   6
ENDBRANCH   1   3
BRANCH   2  24
HETATM   24  C   UNK N   1      27.131  17.773   3.910  0.00  0.00     0.007 C 
HETATM   25  C   UNK N   1      26.563  18.958   4.171  0.00  0.00    -0.062 C 
HETATM   26  C   UNK N   1      25.075  19.122   4.125  0.00  0.00     0.048 C 
BRANCH  25  27
HETATM   27  C   UNK N   1      27.373  20.148   4.511  0.00  0.00     0.007 C 
HETATM   28  C   UNK N   1      27.789  20.516   5.733  0.00  0.00     0.001 C 
BRANCH  28  29
HETATM   29  C   UNK N   1      27.530  19.765   6.981  0.00  0.00     0.007 C 
HETATM   30  C   UNK N   1      28.260  18.717   7.409  0.00  0.00    -0.062 C 
HETATM   31  C   UNK N   1      27.871  18.080   8.697  0.00  0.00     0.048 C 
BRANCH  30  32
HETATM   32  C   UNK N   1      29.442  18.165   6.694  0.00  0.00     0.003 C 
HETATM   33  C   UNK N   1      29.997  16.994   7.011  0.00  0.00    -0.016 C 
BRANCH  33  34
HETATM   34  C   UNK N   1      31.163  16.390   6.278  0.00  0.00     0.044 C 
HETATM   35  C   UNK N   1      30.741  15.061   5.665  0.00  0.00    -0.077 C 
HETATM   36  C   UNK N   1      31.565  14.003   5.625  0.00  0.00     0.007 C 
HETATM   37  C   UNK N   1      29.404  14.931   5.007  0.00  0.00     0.044 C 
HETATM   38  C   UNK N   1      32.977  14.032   6.148  0.00  0.00     0.142 C 
HETATM   39  C   UNK N   1      33.480  15.458   6.393  0.00  0.00     0.045 C 
HETATM   40  C   UNK N   1      32.447  16.290   7.143  0.00  0.00    -0.035 C 
HETATM   41  C   UNK N   1      32.176  15.652   8.505  0.00  0.00     0.016 C 
HETATM   42  C   UNK N   1      33.036  17.670   7.371  0.00  0.00     0.016 C 
BRANCH  38  43
HETATM   43  O   UNK N   1      33.821  13.407   5.231  0.00  0.00    -0.392 OA
HETATM   44  H   UNK N   1      33.540  13.240   4.319  0.00  0.00     0.210 HD
ENDBRANCH  38  43
ENDBRANCH  33  34
ENDBRANCH  30  32
ENDBRANCH  28  29
ENDBRANCH  25  27
ENDBRANCH   2  24
TORSDOF 12
ENDMDL
MODEL 5
REMARK VINA RESULT:      -7.5      3.150      8.413
REMARK  12 active torsions:
REMARK  status: ('A' for Active; 'I' for Inactive)
REMARK    1  A    between atoms: C_1  and  C_2 
REMARK    2  A    between atoms: C_5  and  C_6 
REMARK    3  A    between atoms: C_7  and  C_9 
REMARK    4  A    between atoms: C_10  and  C_11 
REMARK    5  A    between atoms: C_12  and  C_14 
REMARK    6  A    between atoms: C_15  and  C_16 
REMARK    7  A    between atoms: C_17  and  C_18 
REMARK    8  A    between atoms: C_20  and  C_21 
REMARK    9  A    between atoms: C_22  and  C_23 
REMARK   10  A    between atoms: C_26  and  C_25 
REMARK   11  A    between atoms: C_39  and  O_40 
REMARK   12  A    between atoms: C_41  and  O_42 
ROOT
HETATM    1  C   UNK N   1      28.796  23.177  -5.963  0.00  0.00     0.001 C 
HETATM    2  C   UNK N   1      27.556  22.816  -6.279  0.00  0.00     0.001 C 
ENDROOT
BRANCH   1   3
HETATM    3  C   UNK N   1      29.636  22.367  -5.052  0.00  0.00     0.007 C 
HETATM    4  C   UNK N   1      30.069  22.734  -3.832  0.00  0.00    -0.062 C 
HETATM    5  C   UNK N   1      29.803  24.107  -3.281  0.00  0.00     0.048 C 
BRANCH   4   6
HETATM    6  C   UNK N   1      30.842  21.740  -3.059  0.00  0.00     0.007 C 
HETATM    7  C   UNK N   1      32.156  21.495  -3.168  0.00  0.00     0.001 C 
BRANCH   7   8
HETATM    8  C   UNK N   1      33.082  22.237  -4.049  0.00  0.00     0.007 C 
HETATM    9  C   UNK N   1      33.372  21.895  -5.318  0.00  0.00    -0.062 C 
HETATM   10  C   UNK N   1      34.326  22.757  -6.069  0.00  0.00     0.048 C 
BRANCH   9  11
HETATM   11  C   UNK N   1      32.777  20.738  -6.035  0.00  0.00     0.007 C 
HETATM   12  C   UNK N   1      32.604  20.710  -7.359  0.00  0.00     0.009 C 
BRANCH  12  13
HETATM   13  C   UNK N   1      32.047  19.556  -8.114  0.00  0.00    -0.048 C 
HETATM   14  C   UNK N   1      32.904  18.569  -8.495  0.00  0.00    -0.074 C 
HETATM   15  C   UNK N   1      32.438  17.383  -9.299  0.00  0.00     0.066 C 
HETATM   16  C   UNK N   1      34.359  18.624  -8.148  0.00  0.00     0.044 C 
HETATM   17  C   UNK N   1      31.191  17.706 -10.103  0.00  0.00     0.123 C 
HETATM   18  C   UNK N   1      30.135  18.189  -9.132  0.00  0.00     0.045 C 
HETATM   19  C   UNK N   1      30.555  19.503  -8.465  0.00  0.00    -0.018 C 
HETATM   20  C   UNK N   1      30.209  20.653  -9.399  0.00  0.00     0.020 C 
HETATM   21  C   UNK N   1      29.712  19.628  -7.207  0.00  0.00     0.020 C 
BRANCH  17  22
HETATM   22  O   UNK N   1      30.743  16.550 -10.741  0.00  0.00    -0.395 OA
HETATM   23  H   UNK N   1      30.367  16.573 -11.635  0.00  0.00     0.210 HD
ENDBRANCH  17  22
ENDBRANCH  12  13
ENDBRANCH   9  11
ENDBRANCH   7   8
ENDBRANCH   4   6
ENDBRANCH   1   3
BRANCH   2  24
HETATM   24  C   UNK N   1      26.750  23.604  -7.208  0.00  0.00     0.007 C 
HETATM   25  C   UNK N   1      26.231  23.078  -8.326  0.00  0.00    -0.062 C 
HETATM   26  C   UNK N   1      26.447  21.636  -8.669  0.00  0.00     0.048 C 
BRANCH  25  27
HETATM   27  C   UNK N   1      25.429  23.892  -9.266  0.00  0.00     0.007 C 
HETATM   28  C   UNK N   1      25.886  24.836 -10.103  0.00  0.00     0.001 C 
BRANCH  28  29
HETATM   29  C   UNK N   1      27.306  25.219 -10.261  0.00  0.00     0.007 C 
HETATM   30  C   UNK N   1      27.900  26.238  -9.611  0.00  0.00    -0.062 C 
HETATM   31  C   UNK N   1      29.345  26.481  -9.876  0.00  0.00     0.048 C 
BRANCH  30  32
HETATM   32  C   UNK N   1      27.219  27.124  -8.630  0.00  0.00     0.003 C 
HETATM   33  C   UNK N   1      27.516  27.125  -7.329  0.00  0.00    -0.016 C 
BRANCH  33  34
HETATM   34  C   UNK N   1      26.877  28.041  -6.322  0.00  0.00     0.044 C 
HETATM   35  C   UNK N   1      27.904  29.055  -5.836  0.00  0.00    -0.077 C 
HETATM   36  C   UNK N   1      27.952  29.463  -4.558  0.00  0.00     0.007 C 
HETATM   37  C   UNK N   1      28.844  29.692  -6.809  0.00  0.00     0.044 C 
HETATM   38  C   UNK N   1      26.992  28.987  -3.500  0.00  0.00     0.142 C 
HETATM   39  C   UNK N   1      25.765  28.289  -4.095  0.00  0.00     0.045 C 
HETATM   40  C   UNK N   1      26.165  27.284  -5.169  0.00  0.00    -0.035 C 
HETATM   41  C   UNK N   1      27.057  26.209  -4.548  0.00  0.00     0.016 C 
HETATM   42  C   UNK N   1      24.901  26.619  -5.680  0.00  0.00     0.016 C 
BRANCH  38  43
HETATM   43  O   UNK N   1      26.566  30.076  -2.741  0.00  0.00    -0.392 OA
HETATM   44  H   UNK N   1      26.298  29.973  -1.816  0.00  0.00     0.210 HD
ENDBRANCH  38  43
ENDBRANCH  33  34
ENDBRANCH  30  32
ENDBRANCH  28  29
ENDBRANCH  25  27
ENDBRANCH   2  24
TORSDOF 12
ENDMDL
MODEL 6
REMARK VINA RESULT:      -7.4     12.438     17.154
REMARK  12 active torsions:
REMARK  status: ('A' for Active; 'I' for Inactive)
REMARK    1  A    between atoms: C_1  and  C_2 
REMARK    2  A    between atoms: C_5  and  C_6 
REMARK    3  A    between atoms: C_7  and  C_9 
REMARK    4  A    between atoms: C_10  and  C_11 
REMARK    5  A    between atoms: C_12  and  C_14 
REMARK    6  A    between atoms: C_15  and  C_16 
REMARK    7  A    between atoms: C_17  and  C_18 
REMARK    8  A    between atoms: C_20  and  C_21 
REMARK    9  A    between atoms: C_22  and  C_23 
REMARK   10  A    between atoms: C_26  and  C_25 
REMARK   11  A    between atoms: C_39  and  O_40 
REMARK   12  A    between atoms: C_41  and  O_42 
ROOT
HETATM    1  C   UNK N   1      24.203  18.515   3.735  0.00  0.00     0.001 C 
HETATM    2  C   UNK N   1      22.998  19.044   3.926  0.00  0.00     0.001 C 
ENDROOT
BRANCH   1   3
HETATM    3  C   UNK N   1      25.440  19.241   4.099  0.00  0.00     0.007 C 
HETATM    4  C   UNK N   1      26.656  18.697   4.284  0.00  0.00    -0.062 C 
HETATM    5  C   UNK N   1      26.873  17.211   4.222  0.00  0.00     0.048 C 
BRANCH   4   6
HETATM    6  C   UNK N   1      27.775  19.619   4.577  0.00  0.00     0.007 C 
HETATM    7  C   UNK N   1      28.270  19.908   5.788  0.00  0.00     0.001 C 
BRANCH   7   8
HETATM    8  C   UNK N   1      27.815  19.295   7.054  0.00  0.00     0.007 C 
HETATM    9  C   UNK N   1      28.526  18.408   7.775  0.00  0.00    -0.062 C 
HETATM   10  C   UNK N   1      27.918  17.890   9.032  0.00  0.00     0.048 C 
BRANCH   9  11
HETATM   11  C   UNK N   1      29.890  17.938   7.423  0.00  0.00     0.007 C 
HETATM   12  C   UNK N   1      30.127  16.767   6.827  0.00  0.00     0.009 C 
BRANCH  12  13
HETATM   13  C   UNK N   1      31.475  16.280   6.426  0.00  0.00    -0.048 C 
HETATM   14  C   UNK N   1      32.319  15.856   7.408  0.00  0.00    -0.074 C 
HETATM   15  C   UNK N   1      33.716  15.386   7.101  0.00  0.00     0.066 C 
HETATM   16  C   UNK N   1      31.902  15.857   8.846  0.00  0.00     0.044 C 
HETATM   17  C   UNK N   1      34.240  15.987   5.810  0.00  0.00     0.123 C 
HETATM   18  C   UNK N   1      33.262  15.629   4.711  0.00  0.00     0.045 C 
HETATM   19  C   UNK N   1      31.896  16.280   4.952  0.00  0.00    -0.018 C 
HETATM   20  C   UNK N   1      31.940  17.708   4.433  0.00  0.00     0.020 C 
HETATM   21  C   UNK N   1      30.899  15.491   4.118  0.00  0.00     0.020 C 
BRANCH  17  22
HETATM   22  O   UNK N   1      35.488  15.438   5.519  0.00  0.00    -0.395 OA
HETATM   23  H   UNK N   1      35.850  14.694   6.025  0.00  0.00     0.210 HD
ENDBRANCH  17  22
ENDBRANCH  12  13
ENDBRANCH   9  11
ENDBRANCH   7   8
ENDBRANCH   4   6
ENDBRANCH   1   3
BRANCH   2  24
HETATM   24  C   UNK N   1      21.784  18.302   3.597  0.00  0.00     0.007 C 
HETATM   25  C   UNK N   1      20.926  18.718   2.654  0.00  0.00    -0.062 C 
HETATM   26  C   UNK N   1      21.187  19.973   1.878  0.00  0.00     0.048 C 
BRANCH  25  27
HETATM   27  C   UNK N   1      19.692  17.964   2.342  0.00  0.00     0.007 C 
HETATM   28  C   UNK N   1      19.601  16.831   1.628  0.00  0.00     0.001 C 
BRANCH  28  29
HETATM   29  C   UNK N   1      20.745  16.104   1.036  0.00  0.00     0.007 C 
HETATM   30  C   UNK N   1      21.399  15.090   1.635  0.00  0.00    -0.062 C 
HETATM   31  C   UNK N   1      22.524  14.456   0.895  0.00  0.00     0.048 C 
BRANCH  30  32
HETATM   32  C   UNK N   1      21.060  14.544   2.977  0.00  0.00     0.003 C 
HETATM   33  C   UNK N   1      21.570  15.036   4.107  0.00  0.00    -0.016 C 
BRANCH  33  34
HETATM   34  C   UNK N   1      21.211  14.535   5.479  0.00  0.00     0.044 C 
HETATM   35  C   UNK N   1      20.126  15.422   6.074  0.00  0.00    -0.077 C 
HETATM   36  C   UNK N   1      20.107  15.748   7.375  0.00  0.00     0.007 C 
HETATM   37  C   UNK N   1      18.990  15.889   5.220  0.00  0.00     0.044 C 
HETATM   38  C   UNK N   1      21.126  15.252   8.368  0.00  0.00     0.142 C 
HETATM   39  C   UNK N   1      21.950  14.082   7.825  0.00  0.00     0.045 C 
HETATM   40  C   UNK N   1      22.442  14.359   6.409  0.00  0.00    -0.035 C 
HETATM   41  C   UNK N   1      23.340  15.595   6.418  0.00  0.00     0.016 C 
HETATM   42  C   UNK N   1      23.271  13.170   5.962  0.00  0.00     0.016 C 
BRANCH  38  43
HETATM   43  O   UNK N   1      20.476  14.844   9.531  0.00  0.00    -0.392 OA
HETATM   44  H   UNK N   1      19.590  15.168   9.755  0.00  0.00     0.210 HD
ENDBRANCH  38  43
ENDBRANCH  33  34
ENDBRANCH  30  32
ENDBRANCH  28  29
ENDBRANCH  25  27
ENDBRANCH   2  24
TORSDOF 12
ENDMDL
MODEL 7
REMARK VINA RESULT:      -7.3     12.855     16.123
REMARK  12 active torsions:
REMARK  status: ('A' for Active; 'I' for Inactive)
REMARK    1  A    between atoms: C_1  and  C_2 
REMARK    2  A    between atoms: C_5  and  C_6 
REMARK    3  A    between atoms: C_7  and  C_9 
REMARK    4  A    between atoms: C_10  and  C_11 
REMARK    5  A    between atoms: C_12  and  C_14 
REMARK    6  A    between atoms: C_15  and  C_16 
REMARK    7  A    between atoms: C_17  and  C_18 
REMARK    8  A    between atoms: C_20  and  C_21 
REMARK    9  A    between atoms: C_22  and  C_23 
REMARK   10  A    between atoms: C_26  and  C_25 
REMARK   11  A    between atoms: C_39  and  O_40 
REMARK   12  A    between atoms: C_41  and  O_42 
ROOT
HETATM    1  C   UNK N   1      25.315  15.739   5.823  0.00  0.00     0.001 C 
HETATM    2  C   UNK N   1      25.609  16.501   4.773  0.00  0.00     0.001 C 
ENDROOT
BRANCH   1   3
HETATM    3  C   UNK N   1      24.426  14.560   5.706  0.00  0.00     0.007 C 
HETATM    4  C   UNK N   1      24.238  13.612   6.641  0.00  0.00    -0.062 C 
HETATM    5  C   UNK N   1      25.016  13.607   7.927  0.00  0.00     0.048 C 
BRANCH   4   6
HETATM    6  C   UNK N   1      23.249  12.554   6.344  0.00  0.00     0.007 C 
HETATM    7  C   UNK N   1      22.048  12.404   6.922  0.00  0.00     0.001 C 
BRANCH   7   8
HETATM    8  C   UNK N   1      21.474  13.324   7.926  0.00  0.00     0.007 C 
HETATM    9  C   UNK N   1      20.816  14.462   7.636  0.00  0.00    -0.062 C 
HETATM   10  C   UNK N   1      20.297  15.273   8.771  0.00  0.00     0.048 C 
BRANCH   9  11
HETATM   11  C   UNK N   1      20.538  14.946   6.259  0.00  0.00     0.007 C 
HETATM   12  C   UNK N   1      21.361  15.759   5.592  0.00  0.00     0.009 C 
BRANCH  12  13
HETATM   13  C   UNK N   1      21.135  16.234   4.200  0.00  0.00    -0.048 C 
HETATM   14  C   UNK N   1      21.087  17.578   3.984  0.00  0.00    -0.074 C 
HETATM   15  C   UNK N   1      20.822  18.150   2.616  0.00  0.00     0.066 C 
HETATM   16  C   UNK N   1      21.279  18.554   5.103  0.00  0.00     0.044 C 
HETATM   17  C   UNK N   1      20.051  17.178   1.741  0.00  0.00     0.123 C 
HETATM   18  C   UNK N   1      20.847  15.892   1.679  0.00  0.00     0.045 C 
HETATM   19  C   UNK N   1      20.941  15.230   3.057  0.00  0.00    -0.018 C 
HETATM   20  C   UNK N   1      19.675  14.423   3.295  0.00  0.00     0.020 C 
HETATM   21  C   UNK N   1      22.121  14.275   2.988  0.00  0.00     0.020 C 
BRANCH  17  22
HETATM   22  O   UNK N   1      19.926  17.712   0.459  0.00  0.00    -0.395 OA
HETATM   23  H   UNK N   1      20.068  18.655   0.282  0.00  0.00     0.210 HD
ENDBRANCH  17  22
ENDBRANCH  12  13
ENDBRANCH   9  11
ENDBRANCH   7   8
ENDBRANCH   4   6
ENDBRANCH   1   3
BRANCH   2  24
HETATM   24  C   UNK N   1      26.516  17.639   4.893  0.00  0.00     0.007 C 
HETATM   25  C   UNK N   1      26.122  18.895   4.642  0.00  0.00    -0.062 C 
HETATM   26  C   UNK N   1      24.711  19.191   4.234  0.00  0.00     0.048 C 
BRANCH  25  27
HETATM   27  C   UNK N   1      27.056  20.037   4.754  0.00  0.00     0.007 C 
HETATM   28  C   UNK N   1      27.684  20.457   5.863  0.00  0.00     0.001 C 
BRANCH  28  29
HETATM   29  C   UNK N   1      27.574  19.824   7.195  0.00  0.00     0.007 C 
HETATM   30  C   UNK N   1      28.374  18.836   7.640  0.00  0.00    -0.062 C 
HETATM   31  C   UNK N   1      28.135  18.316   9.015  0.00  0.00     0.048 C 
BRANCH  30  32
HETATM   32  C   UNK N   1      29.494  18.243   6.862  0.00  0.00     0.003 C 
HETATM   33  C   UNK N   1      30.060  17.078   7.182  0.00  0.00    -0.016 C 
BRANCH  33  34
HETATM   34  C   UNK N   1      31.163  16.433   6.389  0.00  0.00     0.044 C 
HETATM   35  C   UNK N   1      30.673  15.104   5.828  0.00  0.00    -0.077 C 
HETATM   36  C   UNK N   1      31.467  14.026   5.757  0.00  0.00     0.007 C 
HETATM   37  C   UNK N   1      29.294  14.996   5.258  0.00  0.00     0.044 C 
HETATM   38  C   UNK N   1      32.910  14.030   6.190  0.00  0.00     0.142 C 
HETATM   39  C   UNK N   1      33.461  15.446   6.376  0.00  0.00     0.045 C 
HETATM   40  C   UNK N   1      32.497  16.316   7.174  0.00  0.00    -0.035 C 
HETATM   41  C   UNK N   1      32.297  15.709   8.562  0.00  0.00     0.016 C 
HETATM   42  C   UNK N   1      33.130  17.685   7.338  0.00  0.00     0.016 C 
BRANCH  38  43
HETATM   43  O   UNK N   1      33.680  13.369   5.235  0.00  0.00    -0.392 OA
HETATM   44  H   UNK N   1      34.023  13.830   4.454  0.00  0.00     0.210 HD
ENDBRANCH  38  43
ENDBRANCH  33  34
ENDBRANCH  30  32
ENDBRANCH  28  29
ENDBRANCH  25  27
ENDBRANCH   2  24
TORSDOF 12
ENDMDL
MODEL 8
REMARK VINA RESULT:      -7.3     12.975     16.396
REMARK  12 active torsions:
REMARK  status: ('A' for Active; 'I' for Inactive)
REMARK    1  A    between atoms: C_1  and  C_2 
REMARK    2  A    between atoms: C_5  and  C_6 
REMARK    3  A    between atoms: C_7  and  C_9 
REMARK    4  A    between atoms: C_10  and  C_11 
REMARK    5  A    between atoms: C_12  and  C_14 
REMARK    6  A    between atoms: C_15  and  C_16 
REMARK    7  A    between atoms: C_17  and  C_18 
REMARK    8  A    between atoms: C_20  and  C_21 
REMARK    9  A    between atoms: C_22  and  C_23 
REMARK   10  A    between atoms: C_26  and  C_25 
REMARK   11  A    between atoms: C_39  and  O_40 
REMARK   12  A    between atoms: C_41  and  O_42 
ROOT
HETATM    1  C   UNK N   1      22.692  18.224   5.294  0.00  0.00     0.001 C 
HETATM    2  C   UNK N   1      23.843  17.877   4.724  0.00  0.00     0.001 C 
ENDROOT
BRANCH   1   3
HETATM    3  C   UNK N   1      21.576  17.263   5.444  0.00  0.00     0.007 C 
HETATM    4  C   UNK N   1      20.512  17.148   4.629  0.00  0.00    -0.062 C 
HETATM    5  C   UNK N   1      20.295  18.088   3.476  0.00  0.00     0.048 C 
BRANCH   4   6
HETATM    6  C   UNK N   1      19.544  16.069   4.925  0.00  0.00     0.007 C 
HETATM    7  C   UNK N   1      19.515  14.852   4.364  0.00  0.00     0.001 C 
BRANCH   7   8
HETATM    8  C   UNK N   1      20.501  14.351   3.383  0.00  0.00     0.007 C 
HETATM    9  C   UNK N   1      21.643  13.715   3.701  0.00  0.00    -0.062 C 
HETATM   10  C   UNK N   1      22.525  13.272   2.586  0.00  0.00     0.048 C 
BRANCH   9  11
HETATM   11  C   UNK N   1      22.069  13.392   5.088  0.00  0.00     0.007 C 
HETATM   12  C   UNK N   1      22.842  14.198   5.820  0.00  0.00     0.009 C 
BRANCH  12  13
HETATM   13  C   UNK N   1      23.258  13.926   7.222  0.00  0.00    -0.048 C 
HETATM   14  C   UNK N   1      24.591  13.913   7.502  0.00  0.00    -0.074 C 
HETATM   15  C   UNK N   1      25.106  13.606   8.884  0.00  0.00     0.066 C 
HETATM   16  C   UNK N   1      25.612  14.187   6.442  0.00  0.00     0.044 C 
HETATM   17  C   UNK N   1      24.121  12.765   9.676  0.00  0.00     0.123 C 
HETATM   18  C   UNK N   1      22.807  13.514   9.709  0.00  0.00     0.045 C 
HETATM   19  C   UNK N   1      22.208  13.648   8.305  0.00  0.00    -0.018 C 
HETATM   20  C   UNK N   1      21.459  12.367   7.973  0.00  0.00     0.020 C 
HETATM   21  C   UNK N   1      21.209  14.791   8.377  0.00  0.00     0.020 C 
BRANCH  17  22
HETATM   22  O   UNK N   1      24.597  12.601  10.975  0.00  0.00    -0.395 OA
HETATM   23  H   UNK N   1      25.415  13.025  11.278  0.00  0.00     0.210 HD
ENDBRANCH  17  22
ENDBRANCH  12  13
ENDBRANCH   9  11
ENDBRANCH   7   8
ENDBRANCH   4   6
ENDBRANCH   1   3
BRANCH   2  24
HETATM   24  C   UNK N   1      24.950  18.824   4.616  0.00  0.00     0.007 C 
HETATM   25  C   UNK N   1      26.161  18.457   4.176  0.00  0.00    -0.062 C 
HETATM   26  C   UNK N   1      26.432  17.044   3.760  0.00  0.00     0.048 C 
BRANCH  25  27
HETATM   27  C   UNK N   1      27.278  19.424   4.086  0.00  0.00     0.007 C 
HETATM   28  C   UNK N   1      28.029  19.882   5.099  0.00  0.00     0.001 C 
BRANCH  28  29
HETATM   29  C   UNK N   1      27.892  19.471   6.513  0.00  0.00     0.007 C 
HETATM   30  C   UNK N   1      28.361  18.316   7.023  0.00  0.00    -0.062 C 
HETATM   31  C   UNK N   1      28.148  18.060   8.475  0.00  0.00     0.048 C 
BRANCH  30  32
HETATM   32  C   UNK N   1      29.096  17.286   6.241  0.00  0.00     0.003 C 
HETATM   33  C   UNK N   1      30.412  17.098   6.351  0.00  0.00    -0.016 C 
BRANCH  33  34
HETATM   34  C   UNK N   1      31.175  16.036   5.608  0.00  0.00     0.044 C 
HETATM   35  C   UNK N   1      32.407  15.641   6.412  0.00  0.00    -0.077 C 
HETATM   36  C   UNK N   1      33.580  15.361   5.824  0.00  0.00     0.007 C 
HETATM   37  C   UNK N   1      32.310  15.473   7.895  0.00  0.00     0.044 C 
HETATM   38  C   UNK N   1      33.784  15.380   4.332  0.00  0.00     0.142 C 
HETATM   39  C   UNK N   1      32.462  15.398   3.560  0.00  0.00     0.045 C 
HETATM   40  C   UNK N   1      31.496  16.424   4.139  0.00  0.00    -0.035 C 
HETATM   41  C   UNK N   1      32.114  17.818   4.033  0.00  0.00     0.016 C 
HETATM   42  C   UNK N   1      30.230  16.399   3.302  0.00  0.00     0.016 C 
BRANCH  38  43
HETATM   43  O   UNK N   1      34.512  14.254   3.952  0.00  0.00    -0.392 OA
HETATM   44  H   UNK N   1      34.141  13.362   4.030  0.00  0.00     0.210 HD
ENDBRANCH  38  43
ENDBRANCH  33  34
ENDBRANCH  30  32
ENDBRANCH  28  29
ENDBRANCH  25  27
ENDBRANCH   2  24
TORSDOF 12
ENDMDL
MODEL 9
REMARK VINA RESULT:      -7.3     13.627     18.258
REMARK  12 active torsions:
REMARK  status: ('A' for Active; 'I' for Inactive)
REMARK    1  A    between atoms: C_1  and  C_2 
REMARK    2  A    between atoms: C_5  and  C_6 
REMARK    3  A    between atoms: C_7  and  C_9 
REMARK    4  A    between atoms: C_10  and  C_11 
REMARK    5  A    between atoms: C_12  and  C_14 
REMARK    6  A    between atoms: C_15  and  C_16 
REMARK    7  A    between atoms: C_17  and  C_18 
REMARK    8  A    between atoms: C_20  and  C_21 
REMARK    9  A    between atoms: C_22  and  C_23 
REMARK   10  A    between atoms: C_26  and  C_25 
REMARK   11  A    between atoms: C_39  and  O_40 
REMARK   12  A    between atoms: C_41  and  O_42 
ROOT
HETATM    1  C   UNK N   1      24.137  17.068   4.531  0.00  0.00     0.001 C 
HETATM    2  C   UNK N   1      23.042  17.379   5.219  0.00  0.00     0.001 C 
ENDROOT
BRANCH   1   3
HETATM    3  C   UNK N   1      25.319  17.960   4.502  0.00  0.00     0.007 C 
HETATM    4  C   UNK N   1      26.600  17.577   4.352  0.00  0.00    -0.062 C 
HETATM    5  C   UNK N   1      26.987  16.127   4.285  0.00  0.00     0.048 C 
BRANCH   4   6
HETATM    6  C   UNK N   1      27.622  18.643   4.281  0.00  0.00     0.007 C 
HETATM    7  C   UNK N   1      28.147  19.312   5.318  0.00  0.00     0.001 C 
BRANCH   7   8
HETATM    8  C   UNK N   1      27.833  19.048   6.738  0.00  0.00     0.007 C 
HETATM    9  C   UNK N   1      28.657  18.429   7.603  0.00  0.00    -0.062 C 
HETATM   10  C   UNK N   1      28.184  18.246   9.003  0.00  0.00     0.048 C 
BRANCH   9  11
HETATM   11  C   UNK N   1      30.022  17.947   7.268  0.00  0.00     0.007 C 
HETATM   12  C   UNK N   1      30.274  16.706   6.845  0.00  0.00     0.009 C 
BRANCH  12  13
HETATM   13  C   UNK N   1      31.621  16.200   6.466  0.00  0.00    -0.048 C 
HETATM   14  C   UNK N   1      32.446  15.771   7.461  0.00  0.00    -0.074 C 
HETATM   15  C   UNK N   1      33.842  15.282   7.175  0.00  0.00     0.066 C 
HETATM   16  C   UNK N   1      32.010  15.785   8.893  0.00  0.00     0.044 C 
HETATM   17  C   UNK N   1      34.390  15.869   5.888  0.00  0.00     0.123 C 
HETATM   18  C   UNK N   1      33.422  15.519   4.778  0.00  0.00     0.045 C 
HETATM   19  C   UNK N   1      32.061  16.187   4.997  0.00  0.00    -0.018 C 
HETATM   20  C   UNK N   1      32.131  17.612   4.471  0.00  0.00     0.020 C 
HETATM   21  C   UNK N   1      31.066  15.406   4.154  0.00  0.00     0.020 C 
BRANCH  17  22
HETATM   22  O   UNK N   1      35.635  15.304   5.617  0.00  0.00    -0.395 OA
HETATM   23  H   UNK N   1      36.035  14.643   6.203  0.00  0.00     0.210 HD
ENDBRANCH  17  22
ENDBRANCH  12  13
ENDBRANCH   9  11
ENDBRANCH   7   8
ENDBRANCH   4   6
ENDBRANCH   1   3
BRANCH   2  24
HETATM   24  C   UNK N   1      21.898  16.474   5.271  0.00  0.00     0.007 C 
HETATM   25  C   UNK N   1      20.741  16.750   4.653  0.00  0.00    -0.062 C 
HETATM   26  C   UNK N   1      20.574  18.011   3.862  0.00  0.00     0.048 C 
BRANCH  25  27
HETATM   27  C   UNK N   1      19.584  15.830   4.726  0.00  0.00     0.007 C 
HETATM   28  C   UNK N   1      19.479  14.623   4.150  0.00  0.00     0.001 C 
BRANCH  28  29
HETATM   29  C   UNK N   1      20.534  13.970   3.345  0.00  0.00     0.007 C 
HETATM   30  C   UNK N   1      21.362  13.011   3.803  0.00  0.00    -0.062 C 
HETATM   31  C   UNK N   1      22.363  12.448   2.855  0.00  0.00     0.048 C 
BRANCH  30  32
HETATM   32  C   UNK N   1      21.331  12.459   5.184  0.00  0.00     0.003 C 
HETATM   33  C   UNK N   1      22.133  12.896   6.155  0.00  0.00    -0.016 C 
BRANCH  33  34
HETATM   34  C   UNK N   1      22.093  12.389   7.571  0.00  0.00     0.044 C 
HETATM   35  C   UNK N   1      21.658  13.516   8.500  0.00  0.00    -0.077 C 
HETATM   36  C   UNK N   1      22.187  13.674   9.722  0.00  0.00     0.007 C 
HETATM   37  C   UNK N   1      20.551  14.435   8.092  0.00  0.00     0.044 C 
HETATM   38  C   UNK N   1      23.227  12.751  10.301  0.00  0.00     0.142 C 
HETATM   39  C   UNK N   1      23.350  11.442   9.515  0.00  0.00     0.045 C 
HETATM   40  C   UNK N   1      23.411  11.700   8.014  0.00  0.00    -0.035 C 
HETATM   41  C   UNK N   1      24.641  12.550   7.696  0.00  0.00     0.016 C 
HETATM   42  C   UNK N   1      23.563  10.361   7.316  0.00  0.00     0.016 C 
BRANCH  38  43
HETATM   43  O   UNK N   1      22.896  12.454  11.621  0.00  0.00    -0.392 OA
HETATM   44  H   UNK N   1      22.078  11.984  11.845  0.00  0.00     0.210 HD
ENDBRANCH  38  43
ENDBRANCH  33  34
ENDBRANCH  30  32
ENDBRANCH  28  29
ENDBRANCH  25  27
ENDBRANCH   2  24
TORSDOF 12
ENDMDL
