MODEL 1
REMARK VINA RESULT:      -4.7      0.000      0.000
REMARK  11 active torsions:
REMARK  status: ('A' for Active; 'I' for Inactive)
REMARK    1  A    between atoms: C_1  and  C_2 
REMARK    2  A    between atoms: O_7  and  C_1 
REMARK    3  A    between atoms: C_2  and  N_4 
REMARK    4  A    between atoms: C_2  and  C_6 
REMARK    5  A    between atoms: S_5  and  C_6 
REMARK    6  A    between atoms: S_5  and  S_12 
REMARK    7  A    between atoms: C_8  and  C_9 
REMARK    8  A    between atoms: O_14  and  C_8 
REMARK    9  A    between atoms: C_9  and  N_11 
REMARK   10  A    between atoms: C_9  and  C_13 
REMARK   11  A    between atoms: S_12  and  C_13 
ROOT
HETATM    1  S   UNK N   1      35.085  12.902   8.649  0.00  0.00    -0.095 SA
ENDROOT
BRANCH   1   2
HETATM    2  C   UNK N   1      36.065  13.919   9.792  0.00  0.00     0.121 C 
BRANCH   2   3
HETATM    3  C   UNK N   1      36.127  13.226  11.143  0.00  0.00     0.183 C 
BRANCH   3   4
HETATM    4  C   UNK N   1      34.962  13.640  12.001  0.00  0.00     0.163 C 
HETATM    5  O   UNK N   1      34.456  14.746  11.850  0.00  0.00    -0.648 OA
BRANCH   4   6
HETATM    6  O   UNK N   1      34.460  12.808  12.930  0.00  0.00    -0.775 OA
HETATM    7  H   UNK N   1      34.686  12.856  13.839  0.00  0.00     0.167 HD
ENDBRANCH   4   6
ENDBRANCH   3   4
BRANCH   3   8
HETATM    8  N   UNK N   1      37.384  13.554  11.799  0.00  0.00    -0.417 N 
HETATM    9  H   UNK N   1      38.244  13.679  11.266  0.00  0.00     0.150 HD
HETATM   10  H   UNK N   1      37.405  13.659  12.814  0.00  0.00     0.150 HD
ENDBRANCH   3   8
ENDBRANCH   2   3
ENDBRANCH   1   2
BRANCH   1  11
HETATM   11  S   UNK N   1      33.644  14.441   8.426  0.00  0.00    -0.095 SA
BRANCH  11  12
HETATM   12  C   UNK N   1      34.937  15.719   8.450  0.00  0.00     0.121 C 
BRANCH  12  13
HETATM   13  C   UNK N   1      34.349  17.009   8.998  0.00  0.00     0.183 C 
BRANCH  13  14
HETATM   14  C   UNK N   1      34.622  18.153   8.058  0.00  0.00     0.163 C 
HETATM   15  O   UNK N   1      35.088  19.200   8.491  0.00  0.00    -0.648 OA
BRANCH  14  16
HETATM   16  O   UNK N   1      34.368  18.039   6.742  0.00  0.00    -0.775 OA
HETATM   17  H   UNK N   1      33.889  17.324   6.372  0.00  0.00     0.167 HD
ENDBRANCH  14  16
ENDBRANCH  13  14
BRANCH  13  18
HETATM   18  N   UNK N   1      34.915  17.282  10.309  0.00  0.00    -0.417 N 
HETATM   19  H   UNK N   1      34.593  18.068  10.874  0.00  0.00     0.150 HD
HETATM   20  H   UNK N   1      35.651  16.674  10.672  0.00  0.00     0.150 HD
ENDBRANCH  13  18
ENDBRANCH  12  13
ENDBRANCH  11  12
ENDBRANCH   1  11
TORSDOF 11
ENDMDL
MODEL 2
REMARK VINA RESULT:      -4.7      4.021      5.697
REMARK  11 active torsions:
REMARK  status: ('A' for Active; 'I' for Inactive)
REMARK    1  A    between atoms: C_1  and  C_2 
REMARK    2  A    between atoms: O_7  and  C_1 
REMARK    3  A    between atoms: C_2  and  N_4 
REMARK    4  A    between atoms: C_2  and  C_6 
REMARK    5  A    between atoms: S_5  and  C_6 
REMARK    6  A    between atoms: S_5  and  S_12 
REMARK    7  A    between atoms: C_8  and  C_9 
REMARK    8  A    between atoms: O_14  and  C_8 
REMARK    9  A    between atoms: C_9  and  N_11 
REMARK   10  A    between atoms: C_9  and  C_13 
REMARK   11  A    between atoms: S_12  and  C_13 
ROOT
HETATM    1  S   UNK N   1      31.864  15.566   8.942  0.00  0.00    -0.095 SA
ENDROOT
BRANCH   1   2
HETATM    2  C   UNK N   1      33.489  16.104   8.334  0.00  0.00     0.121 C 
BRANCH   2   3
HETATM    3  C   UNK N   1      33.888  17.384   9.049  0.00  0.00     0.183 C 
BRANCH   3   4
HETATM    4  C   UNK N   1      34.586  18.321   8.101  0.00  0.00     0.163 C 
HETATM    5  O   UNK N   1      34.436  18.190   6.892  0.00  0.00    -0.648 OA
BRANCH   4   6
HETATM    6  O   UNK N   1      35.372  19.310   8.564  0.00  0.00    -0.775 OA
HETATM    7  H   UNK N   1      35.408  19.557   9.467  0.00  0.00     0.167 HD
ENDBRANCH   4   6
ENDBRANCH   3   4
BRANCH   3   8
HETATM    8  N   UNK N   1      34.752  17.062  10.175  0.00  0.00    -0.417 N 
HETATM    9  H   UNK N   1      35.457  17.719  10.508  0.00  0.00     0.150 HD
HETATM   10  H   UNK N   1      34.649  16.160  10.641  0.00  0.00     0.150 HD
ENDBRANCH   3   8
ENDBRANCH   2   3
ENDBRANCH   1   2
BRANCH   1  11
HETATM   11  S   UNK N   1      30.924  16.186   7.147  0.00  0.00    -0.095 SA
BRANCH  11  12
HETATM   12  C   UNK N   1      30.478  17.789   7.877  0.00  0.00     0.121 C 
BRANCH  12  13
HETATM   13  C   UNK N   1      29.659  17.551   9.135  0.00  0.00     0.183 C 
BRANCH  13  14
HETATM   14  C   UNK N   1      28.194  17.466   8.801  0.00  0.00     0.163 C 
HETATM   15  O   UNK N   1      27.440  16.825   9.524  0.00  0.00    -0.648 OA
BRANCH  14  16
HETATM   16  O   UNK N   1      27.697  18.090   7.719  0.00  0.00    -0.775 OA
HETATM   17  H   UNK N   1      28.046  17.981   6.857  0.00  0.00     0.167 HD
ENDBRANCH  14  16
ENDBRANCH  13  14
BRANCH  13  18
HETATM   18  N   UNK N   1      29.903  18.627  10.084  0.00  0.00    -0.417 N 
HETATM   19  H   UNK N   1      29.214  19.363  10.240  0.00  0.00     0.150 HD
HETATM   20  H   UNK N   1      30.781  18.646  10.603  0.00  0.00     0.150 HD
ENDBRANCH  13  18
ENDBRANCH  12  13
ENDBRANCH  11  12
ENDBRANCH   1  11
TORSDOF 11
ENDMDL
MODEL 3
REMARK VINA RESULT:      -4.5      1.070      5.431
REMARK  11 active torsions:
REMARK  status: ('A' for Active; 'I' for Inactive)
REMARK    1  A    between atoms: C_1  and  C_2 
REMARK    2  A    between atoms: O_7  and  C_1 
REMARK    3  A    between atoms: C_2  and  N_4 
REMARK    4  A    between atoms: C_2  and  C_6 
REMARK    5  A    between atoms: S_5  and  C_6 
REMARK    6  A    between atoms: S_5  and  S_12 
REMARK    7  A    between atoms: C_8  and  C_9 
REMARK    8  A    between atoms: O_14  and  C_8 
REMARK    9  A    between atoms: C_9  and  N_11 
REMARK   10  A    between atoms: C_9  and  C_13 
REMARK   11  A    between atoms: S_12  and  C_13 
ROOT
HETATM    1  S   UNK N   1      33.831  14.335   8.806  0.00  0.00    -0.095 SA
ENDROOT
BRANCH   1   2
HETATM    2  C   UNK N   1      34.893  15.732   8.333  0.00  0.00     0.121 C 
BRANCH   2   3
HETATM    3  C   UNK N   1      34.352  17.003   8.967  0.00  0.00     0.183 C 
BRANCH   3   4
HETATM    4  C   UNK N   1      34.667  18.196   8.106  0.00  0.00     0.163 C 
HETATM    5  O   UNK N   1      34.349  18.195   6.923  0.00  0.00    -0.648 OA
BRANCH   4   6
HETATM    6  O   UNK N   1      35.290  19.271   8.620  0.00  0.00    -0.775 OA
HETATM    7  H   UNK N   1      35.243  20.125   8.236  0.00  0.00     0.167 HD
ENDBRANCH   4   6
ENDBRANCH   3   4
BRANCH   3   8
HETATM    8  N   UNK N   1      34.928  17.166  10.294  0.00  0.00    -0.417 N 
HETATM    9  H   UNK N   1      34.998  18.084  10.733  0.00  0.00     0.150 HD
HETATM   10  H   UNK N   1      35.268  16.345  10.795  0.00  0.00     0.150 HD
ENDBRANCH   3   8
ENDBRANCH   2   3
ENDBRANCH   1   2
BRANCH   1  11
HETATM   11  S   UNK N   1      35.516  13.152   9.309  0.00  0.00    -0.095 SA
BRANCH  11  12
HETATM   12  C   UNK N   1      35.051  13.153  11.066  0.00  0.00     0.121 C 
BRANCH  12  13
HETATM   13  C   UNK N   1      36.290  13.416  11.907  0.00  0.00     0.183 C 
BRANCH  13  14
HETATM   14  C   UNK N   1      35.912  14.070  13.210  0.00  0.00     0.163 C 
HETATM   15  O   UNK N   1      34.994  13.611  13.878  0.00  0.00    -0.648 OA
BRANCH  14  16
HETATM   16  O   UNK N   1      36.576  15.150  13.656  0.00  0.00    -0.775 OA
HETATM   17  H   UNK N   1      36.153  15.884  14.057  0.00  0.00     0.167 HD
ENDBRANCH  14  16
ENDBRANCH  13  14
BRANCH  13  18
HETATM   18  N   UNK N   1      37.211  14.260  11.162  0.00  0.00    -0.417 N 
HETATM   19  H   UNK N   1      36.948  15.200  10.866  0.00  0.00     0.150 HD
HETATM   20  H   UNK N   1      38.139  13.905  10.932  0.00  0.00     0.150 HD
ENDBRANCH  13  18
ENDBRANCH  12  13
ENDBRANCH  11  12
ENDBRANCH   1  11
TORSDOF 11
ENDMDL
MODEL 4
REMARK VINA RESULT:      -4.5      4.802      6.321
REMARK  11 active torsions:
REMARK  status: ('A' for Active; 'I' for Inactive)
REMARK    1  A    between atoms: C_1  and  C_2 
REMARK    2  A    between atoms: O_7  and  C_1 
REMARK    3  A    between atoms: C_2  and  N_4 
REMARK    4  A    between atoms: C_2  and  C_6 
REMARK    5  A    between atoms: S_5  and  C_6 
REMARK    6  A    between atoms: S_5  and  S_12 
REMARK    7  A    between atoms: C_8  and  C_9 
REMARK    8  A    between atoms: O_14  and  C_8 
REMARK    9  A    between atoms: C_9  and  N_11 
REMARK   10  A    between atoms: C_9  and  C_13 
REMARK   11  A    between atoms: S_12  and  C_13 
ROOT
HETATM    1  S   UNK N   1      31.624  16.008   6.967  0.00  0.00    -0.095 SA
ENDROOT
BRANCH   1   2
HETATM    2  C   UNK N   1      32.933  17.234   6.678  0.00  0.00     0.121 C 
BRANCH   2   3
HETATM    3  C   UNK N   1      33.074  18.109   7.912  0.00  0.00     0.183 C 
BRANCH   3   4
HETATM    4  C   UNK N   1      34.482  18.051   8.441  0.00  0.00     0.163 C 
HETATM    5  O   UNK N   1      34.935  16.989   8.853  0.00  0.00    -0.648 OA
BRANCH   4   6
HETATM    6  O   UNK N   1      35.256  19.150   8.462  0.00  0.00    -0.775 OA
HETATM    7  H   UNK N   1      35.424  19.674   7.704  0.00  0.00     0.167 HD
ENDBRANCH   4   6
ENDBRANCH   3   4
BRANCH   3   8
HETATM    8  N   UNK N   1      32.130  17.670   8.929  0.00  0.00    -0.417 N 
HETATM    9  H   UNK N   1      31.395  18.288   9.273  0.00  0.00     0.150 HD
HETATM   10  H   UNK N   1      32.205  16.724   9.306  0.00  0.00     0.150 HD
ENDBRANCH   3   8
ENDBRANCH   2   3
ENDBRANCH   1   2
BRANCH   1  11
HETATM   11  S   UNK N   1      30.295  17.040   5.678  0.00  0.00    -0.095 SA
BRANCH  11  12
HETATM   12  C   UNK N   1      28.963  16.964   6.912  0.00  0.00     0.121 C 
BRANCH  12  13
HETATM   13  C   UNK N   1      28.651  18.371   7.393  0.00  0.00     0.183 C 
BRANCH  13  14
HETATM   14  C   UNK N   1      28.522  18.398   8.893  0.00  0.00     0.163 C 
HETATM   15  O   UNK N   1      29.480  18.730   9.581  0.00  0.00    -0.648 OA
BRANCH  14  16
HETATM   16  O   UNK N   1      27.364  18.069   9.491  0.00  0.00    -0.775 OA
HETATM   17  H   UNK N   1      26.838  18.682   9.965  0.00  0.00     0.167 HD
ENDBRANCH  14  16
ENDBRANCH  13  14
BRANCH  13  18
HETATM   18  N   UNK N   1      27.422  18.836   6.768  0.00  0.00    -0.417 N 
HETATM   19  H   UNK N   1      26.515  18.695   7.213  0.00  0.00     0.150 HD
HETATM   20  H   UNK N   1      27.469  19.312   5.867  0.00  0.00     0.150 HD
ENDBRANCH  13  18
ENDBRANCH  12  13
ENDBRANCH  11  12
ENDBRANCH   1  11
TORSDOF 11
ENDMDL
MODEL 5
REMARK VINA RESULT:      -4.5      1.915      4.827
REMARK  11 active torsions:
REMARK  status: ('A' for Active; 'I' for Inactive)
REMARK    1  A    between atoms: C_1  and  C_2 
REMARK    2  A    between atoms: O_7  and  C_1 
REMARK    3  A    between atoms: C_2  and  N_4 
REMARK    4  A    between atoms: C_2  and  C_6 
REMARK    5  A    between atoms: S_5  and  C_6 
REMARK    6  A    between atoms: S_5  and  S_12 
REMARK    7  A    between atoms: C_8  and  C_9 
REMARK    8  A    between atoms: O_14  and  C_8 
REMARK    9  A    between atoms: C_9  and  N_11 
REMARK   10  A    between atoms: C_9  and  C_13 
REMARK   11  A    between atoms: S_12  and  C_13 
ROOT
HETATM    1  S   UNK N   1      33.363  14.090   8.980  0.00  0.00    -0.095 SA
ENDROOT
BRANCH   1   2
HETATM    2  C   UNK N   1      34.209  15.331   7.957  0.00  0.00     0.121 C 
BRANCH   2   3
HETATM    3  C   UNK N   1      33.353  16.584   7.887  0.00  0.00     0.183 C 
BRANCH   3   4
HETATM    4  C   UNK N   1      34.161  17.746   7.374  0.00  0.00     0.163 C 
HETATM    5  O   UNK N   1      34.220  17.962   6.169  0.00  0.00    -0.648 OA
BRANCH   4   6
HETATM    6  O   UNK N   1      34.816  18.557   8.222  0.00  0.00    -0.775 OA
HETATM    7  H   UNK N   1      35.547  18.279   8.739  0.00  0.00     0.167 HD
ENDBRANCH   4   6
ENDBRANCH   3   4
BRANCH   3   8
HETATM    8  N   UNK N   1      32.819  16.880   9.208  0.00  0.00    -0.417 N 
HETATM    9  H   UNK N   1      33.403  17.288   9.938  0.00  0.00     0.150 HD
HETATM   10  H   UNK N   1      31.839  16.676   9.408  0.00  0.00     0.150 HD
ENDBRANCH   3   8
ENDBRANCH   2   3
ENDBRANCH   1   2
BRANCH   1  11
HETATM   11  S   UNK N   1      35.186  13.526   9.902  0.00  0.00    -0.095 SA
BRANCH  11  12
HETATM   12  C   UNK N   1      34.576  14.044  11.534  0.00  0.00     0.121 C 
BRANCH  12  13
HETATM   13  C   UNK N   1      35.607  14.952  12.184  0.00  0.00     0.183 C 
BRANCH  13  14
HETATM   14  C   UNK N   1      36.015  16.048  11.236  0.00  0.00     0.163 C 
HETATM   15  O   UNK N   1      35.212  16.921  10.932  0.00  0.00    -0.648 OA
BRANCH  14  16
HETATM   16  O   UNK N   1      37.257  16.086  10.721  0.00  0.00    -0.775 OA
HETATM   17  H   UNK N   1      37.433  16.045   9.802  0.00  0.00     0.167 HD
ENDBRANCH  14  16
ENDBRANCH  13  14
BRANCH  13  18
HETATM   18  N   UNK N   1      36.765  14.166  12.581  0.00  0.00    -0.417 N 
HETATM   19  H   UNK N   1      37.655  14.609  12.807  0.00  0.00     0.150 HD
HETATM   20  H   UNK N   1      36.684  13.150  12.634  0.00  0.00     0.150 HD
ENDBRANCH  13  18
ENDBRANCH  12  13
ENDBRANCH  11  12
ENDBRANCH   1  11
TORSDOF 11
ENDMDL
MODEL 6
REMARK VINA RESULT:      -4.4     13.241     15.376
REMARK  11 active torsions:
REMARK  status: ('A' for Active; 'I' for Inactive)
REMARK    1  A    between atoms: C_1  and  C_2 
REMARK    2  A    between atoms: O_7  and  C_1 
REMARK    3  A    between atoms: C_2  and  N_4 
REMARK    4  A    between atoms: C_2  and  C_6 
REMARK    5  A    between atoms: S_5  and  C_6 
REMARK    6  A    between atoms: S_5  and  S_12 
REMARK    7  A    between atoms: C_8  and  C_9 
REMARK    8  A    between atoms: O_14  and  C_8 
REMARK    9  A    between atoms: C_9  and  N_11 
REMARK   10  A    between atoms: C_9  and  C_13 
REMARK   11  A    between atoms: S_12  and  C_13 
ROOT
HETATM    1  S   UNK N   1      21.573  17.098   3.350  0.00  0.00    -0.095 SA
ENDROOT
BRANCH   1   2
HETATM    2  C   UNK N   1      21.318  18.892   3.219  0.00  0.00     0.121 C 
BRANCH   2   3
HETATM    3  C   UNK N   1      20.530  19.190   1.955  0.00  0.00     0.183 C 
BRANCH   3   4
HETATM    4  C   UNK N   1      20.982  20.490   1.347  0.00  0.00     0.163 C 
HETATM    5  O   UNK N   1      21.037  20.606   0.128  0.00  0.00    -0.648 OA
BRANCH   4   6
HETATM    6  O   UNK N   1      21.323  21.533   2.124  0.00  0.00    -0.775 OA
HETATM    7  H   UNK N   1      22.111  22.026   2.005  0.00  0.00     0.167 HD
ENDBRANCH   4   6
ENDBRANCH   3   4
BRANCH   3   8
HETATM    8  N   UNK N   1      19.109  19.243   2.270  0.00  0.00    -0.417 N 
HETATM    9  H   UNK N   1      18.533  20.037   1.990  0.00  0.00     0.150 HD
HETATM   10  H   UNK N   1      18.682  18.470   2.781  0.00  0.00     0.150 HD
ENDBRANCH   3   8
ENDBRANCH   2   3
ENDBRANCH   1   2
BRANCH   1  11
HETATM   11  S   UNK N   1      23.175  17.367   4.710  0.00  0.00    -0.095 SA
BRANCH  11  12
HETATM   12  C   UNK N   1      23.514  19.028   4.055  0.00  0.00     0.121 C 
BRANCH  12  13
HETATM   13  C   UNK N   1      25.014  19.194   3.875  0.00  0.00     0.183 C 
BRANCH  13  14
HETATM   14  C   UNK N   1      25.309  20.339   2.943  0.00  0.00     0.163 C 
HETATM   15  O   UNK N   1      26.449  20.779   2.860  0.00  0.00    -0.648 OA
BRANCH  14  16
HETATM   16  O   UNK N   1      24.336  20.883   2.191  0.00  0.00    -0.775 OA
HETATM   17  H   UNK N   1      23.445  20.594   2.217  0.00  0.00     0.167 HD
ENDBRANCH  14  16
ENDBRANCH  13  14
BRANCH  13  18
HETATM   18  N   UNK N   1      25.580  17.958   3.359  0.00  0.00    -0.417 N 
HETATM   19  H   UNK N   1      26.296  17.446   3.875  0.00  0.00     0.150 HD
HETATM   20  H   UNK N   1      25.255  17.596   2.462  0.00  0.00     0.150 HD
ENDBRANCH  13  18
ENDBRANCH  12  13
ENDBRANCH  11  12
ENDBRANCH   1  11
TORSDOF 11
ENDMDL
MODEL 7
REMARK VINA RESULT:      -4.3     14.779     16.621
REMARK  11 active torsions:
REMARK  status: ('A' for Active; 'I' for Inactive)
REMARK    1  A    between atoms: C_1  and  C_2 
REMARK    2  A    between atoms: O_7  and  C_1 
REMARK    3  A    between atoms: C_2  and  N_4 
REMARK    4  A    between atoms: C_2  and  C_6 
REMARK    5  A    between atoms: S_5  and  C_6 
REMARK    6  A    between atoms: S_5  and  S_12 
REMARK    7  A    between atoms: C_8  and  C_9 
REMARK    8  A    between atoms: O_14  and  C_8 
REMARK    9  A    between atoms: C_9  and  N_11 
REMARK   10  A    between atoms: C_9  and  C_13 
REMARK   11  A    between atoms: S_12  and  C_13 
ROOT
HETATM    1  S   UNK N   1      21.762  17.451   4.132  0.00  0.00    -0.095 SA
ENDROOT
BRANCH   1   2
HETATM    2  C   UNK N   1      20.745  18.858   3.597  0.00  0.00     0.121 C 
BRANCH   2   3
HETATM    3  C   UNK N   1      20.471  18.735   2.107  0.00  0.00     0.183 C 
BRANCH   3   4
HETATM    4  C   UNK N   1      20.844  20.007   1.396  0.00  0.00     0.163 C 
HETATM    5  O   UNK N   1      21.278  20.958   2.036  0.00  0.00    -0.648 OA
BRANCH   4   6
HETATM    6  O   UNK N   1      20.715  20.115   0.063  0.00  0.00    -0.775 OA
HETATM    7  H   UNK N   1      20.496  19.392  -0.492  0.00  0.00     0.167 HD
ENDBRANCH   4   6
ENDBRANCH   3   4
BRANCH   3   8
HETATM    8  N   UNK N   1      19.064  18.427   1.896  0.00  0.00    -0.417 N 
HETATM    9  H   UNK N   1      18.740  17.992   1.032  0.00  0.00     0.150 HD
HETATM   10  H   UNK N   1      18.389  18.652   2.627  0.00  0.00     0.150 HD
ENDBRANCH   3   8
ENDBRANCH   2   3
ENDBRANCH   1   2
BRANCH   1  11
HETATM   11  S   UNK N   1      20.146  16.628   5.229  0.00  0.00    -0.095 SA
BRANCH  11  12
HETATM   12  C   UNK N   1      21.128  16.615   6.758  0.00  0.00     0.121 C 
BRANCH  12  13
HETATM   13  C   UNK N   1      20.192  16.492   7.949  0.00  0.00     0.183 C 
BRANCH  13  14
HETATM   14  C   UNK N   1      19.887  17.850   8.522  0.00  0.00     0.163 C 
HETATM   15  O   UNK N   1      19.111  17.954   9.464  0.00  0.00    -0.648 OA
BRANCH  14  16
HETATM   16  O   UNK N   1      20.462  18.955   8.017  0.00  0.00    -0.775 OA
HETATM   17  H   UNK N   1      21.112  18.934   7.342  0.00  0.00     0.167 HD
ENDBRANCH  14  16
ENDBRANCH  13  14
BRANCH  13  18
HETATM   18  N   UNK N   1      20.800  15.638   8.958  0.00  0.00    -0.417 N 
HETATM   19  H   UNK N   1      20.365  14.761   9.243  0.00  0.00     0.150 HD
HETATM   20  H   UNK N   1      21.680  15.923   9.389  0.00  0.00     0.150 HD
ENDBRANCH  13  18
ENDBRANCH  12  13
ENDBRANCH  11  12
ENDBRANCH   1  11
TORSDOF 11
ENDMDL
MODEL 8
REMARK VINA RESULT:      -4.3      2.439      2.969
REMARK  11 active torsions:
REMARK  status: ('A' for Active; 'I' for Inactive)
REMARK    1  A    between atoms: C_1  and  C_2 
REMARK    2  A    between atoms: O_7  and  C_1 
REMARK    3  A    between atoms: C_2  and  N_4 
REMARK    4  A    between atoms: C_2  and  C_6 
REMARK    5  A    between atoms: S_5  and  C_6 
REMARK    6  A    between atoms: S_5  and  S_12 
REMARK    7  A    between atoms: C_8  and  C_9 
REMARK    8  A    between atoms: O_14  and  C_8 
REMARK    9  A    between atoms: C_9  and  N_11 
REMARK   10  A    between atoms: C_9  and  C_13 
REMARK   11  A    between atoms: S_12  and  C_13 
ROOT
HETATM    1  S   UNK N   1      35.558  14.509   7.534  0.00  0.00    -0.095 SA
ENDROOT
BRANCH   1   2
HETATM    2  C   UNK N   1      35.287  14.259   9.313  0.00  0.00     0.121 C 
BRANCH   2   3
HETATM    3  C   UNK N   1      34.587  15.480   9.885  0.00  0.00     0.183 C 
BRANCH   3   4
HETATM    4  C   UNK N   1      35.596  16.501  10.338  0.00  0.00     0.163 C 
HETATM    5  O   UNK N   1      35.382  17.693  10.152  0.00  0.00    -0.648 OA
BRANCH   4   6
HETATM    6  O   UNK N   1      36.730  16.123  10.953  0.00  0.00    -0.775 OA
HETATM    7  H   UNK N   1      36.941  16.362  11.834  0.00  0.00     0.167 HD
ENDBRANCH   4   6
ENDBRANCH   3   4
BRANCH   3   8
HETATM    8  N   UNK N   1      33.738  15.076  10.996  0.00  0.00    -0.417 N 
HETATM    9  H   UNK N   1      33.777  15.555  11.896  0.00  0.00     0.150 HD
HETATM   10  H   UNK N   1      33.090  14.297  10.872  0.00  0.00     0.150 HD
ENDBRANCH   3   8
ENDBRANCH   2   3
ENDBRANCH   1   2
BRANCH   1  11
HETATM   11  S   UNK N   1      33.524  14.091   7.108  0.00  0.00    -0.095 SA
BRANCH  11  12
HETATM   12  C   UNK N   1      33.415  15.521   5.991  0.00  0.00     0.121 C 
BRANCH  12  13
HETATM   13  C   UNK N   1      32.566  16.598   6.645  0.00  0.00     0.183 C 
BRANCH  13  14
HETATM   14  C   UNK N   1      33.438  17.698   7.190  0.00  0.00     0.163 C 
HETATM   15  O   UNK N   1      34.510  17.947   6.654  0.00  0.00    -0.648 OA
BRANCH  14  16
HETATM   16  O   UNK N   1      33.052  18.417   8.258  0.00  0.00    -0.775 OA
HETATM   17  H   UNK N   1      32.193  18.365   8.629  0.00  0.00     0.167 HD
ENDBRANCH  14  16
ENDBRANCH  13  14
BRANCH  13  18
HETATM   18  N   UNK N   1      31.767  16.008   7.708  0.00  0.00    -0.417 N 
HETATM   19  H   UNK N   1      31.677  14.996   7.805  0.00  0.00     0.150 HD
HETATM   20  H   UNK N   1      31.287  16.618   8.371  0.00  0.00     0.150 HD
ENDBRANCH  13  18
ENDBRANCH  12  13
ENDBRANCH  11  12
ENDBRANCH   1  11
TORSDOF 11
ENDMDL
MODEL 9
REMARK VINA RESULT:      -4.2     14.760     16.592
REMARK  11 active torsions:
REMARK  status: ('A' for Active; 'I' for Inactive)
REMARK    1  A    between atoms: C_1  and  C_2 
REMARK    2  A    between atoms: O_7  and  C_1 
REMARK    3  A    between atoms: C_2  and  N_4 
REMARK    4  A    between atoms: C_2  and  C_6 
REMARK    5  A    between atoms: S_5  and  C_6 
REMARK    6  A    between atoms: S_5  and  S_12 
REMARK    7  A    between atoms: C_8  and  C_9 
REMARK    8  A    between atoms: O_14  and  C_8 
REMARK    9  A    between atoms: C_9  and  N_11 
REMARK   10  A    between atoms: C_9  and  C_13 
REMARK   11  A    between atoms: S_12  and  C_13 
ROOT
HETATM    1  S   UNK N   1      20.726  17.440   4.353  0.00  0.00    -0.095 SA
ENDROOT
BRANCH   1   2
HETATM    2  C   UNK N   1      21.128  19.107   3.752  0.00  0.00     0.121 C 
BRANCH   2   3
HETATM    3  C   UNK N   1      20.589  19.268   2.340  0.00  0.00     0.183 C 
BRANCH   3   4
HETATM    4  C   UNK N   1      21.077  20.556   1.734  0.00  0.00     0.163 C 
HETATM    5  O   UNK N   1      21.266  20.628   0.525  0.00  0.00    -0.648 OA
BRANCH   4   6
HETATM    6  O   UNK N   1      21.305  21.636   2.502  0.00  0.00    -0.775 OA
HETATM    7  H   UNK N   1      20.666  22.306   2.649  0.00  0.00     0.167 HD
ENDBRANCH   4   6
ENDBRANCH   3   4
BRANCH   3   8
HETATM    8  N   UNK N   1      19.134  19.239   2.369  0.00  0.00    -0.417 N 
HETATM    9  H   UNK N   1      18.607  18.525   1.866  0.00  0.00     0.150 HD
HETATM   10  H   UNK N   1      18.631  19.947   2.904  0.00  0.00     0.150 HD
ENDBRANCH   3   8
ENDBRANCH   2   3
ENDBRANCH   1   2
BRANCH   1  11
HETATM   11  S   UNK N   1      21.694  17.813   6.201  0.00  0.00    -0.095 SA
BRANCH  11  12
HETATM   12  C   UNK N   1      21.321  16.134   6.789  0.00  0.00     0.121 C 
BRANCH  12  13
HETATM   13  C   UNK N   1      20.792  16.212   8.212  0.00  0.00     0.183 C 
BRANCH  13  14
HETATM   14  C   UNK N   1      20.087  14.935   8.583  0.00  0.00     0.163 C 
HETATM   15  O   UNK N   1      19.280  14.929   9.504  0.00  0.00    -0.648 OA
BRANCH  14  16
HETATM   16  O   UNK N   1      20.327  13.796   7.910  0.00  0.00    -0.775 OA
HETATM   17  H   UNK N   1      20.485  12.974   8.332  0.00  0.00     0.167 HD
ENDBRANCH  14  16
ENDBRANCH  13  14
BRANCH  13  18
HETATM   18  N   UNK N   1      19.888  17.346   8.332  0.00  0.00    -0.417 N 
HETATM   19  H   UNK N   1      18.907  17.273   8.062  0.00  0.00     0.150 HD
HETATM   20  H   UNK N   1      20.243  18.232   8.692  0.00  0.00     0.150 HD
ENDBRANCH  13  18
ENDBRANCH  12  13
ENDBRANCH  11  12
ENDBRANCH   1  11
TORSDOF 11
ENDMDL
