MODEL 1
REMARK VINA RESULT:      -5.1      0.000      0.000
REMARK  14 active torsions:
REMARK  status: ('A' for Active; 'I' for Inactive)
REMARK    1  A    between atoms: C_1  and  C_3 
REMARK    2  A    between atoms: C_2  and  C_4 
REMARK    3  A    between atoms: C_3  and  C_5 
REMARK    4  A    between atoms: C_4  and  C_6 
REMARK    5  A    between atoms: C_7  and  C_9 
REMARK    6  A    between atoms: C_8  and  C_10 
REMARK    7  A    between atoms: C_9  and  C_11 
REMARK    8  A    between atoms: C_10  and  C_12 
REMARK    9  A    between atoms: C_11  and  C_13 
REMARK   10  A    between atoms: C_13  and  C_15 
REMARK   11  A    between atoms: C_14  and  C_16 
REMARK   12  A    between atoms: C_15  and  O_17 
REMARK   13  A    between atoms: C_16  and  C_19 
REMARK   14  A    between atoms: C_20  and  C_21 
ROOT
HETATM    1  C   UNK N   1      29.531  28.053  -6.507  0.00  0.00    -0.027 C 
HETATM    2  C   UNK N   1      28.497  28.875  -6.718  0.00  0.00    -0.027 C 
ENDROOT
BRANCH   2   3
HETATM    3  C   UNK N   1      27.148  28.627  -6.109  0.00  0.00     0.053 C 
BRANCH   3   4
HETATM    4  C   UNK N   1      26.954  29.432  -4.859  0.00  0.00    -0.027 C 
HETATM    5  C   UNK N   1      26.286  28.981  -3.791  0.00  0.00    -0.027 C 
BRANCH   5   6
HETATM    6  C   UNK N   1      25.640  27.629  -3.751  0.00  0.00     0.053 C 
BRANCH   6   7
HETATM    7  C   UNK N   1      26.547  26.648  -3.072  0.00  0.00    -0.027 C 
HETATM    8  C   UNK N   1      26.702  25.390  -3.506  0.00  0.00    -0.027 C 
BRANCH   8   9
HETATM    9  C   UNK N   1      25.945  24.860  -4.683  0.00  0.00     0.053 C 
BRANCH   9  10
HETATM   10  C   UNK N   1      26.893  24.246  -5.663  0.00  0.00    -0.027 C 
HETATM   11  C   UNK N   1      26.870  24.556  -6.963  0.00  0.00    -0.031 C 
BRANCH  11  12
HETATM   12  C   UNK N   1      25.895  25.537  -7.530  0.00  0.00     0.022 C 
HETATM   13  C   UNK N   1      26.485  26.182  -8.765  0.00  0.00     0.009 C 
ENDBRANCH  11  12
ENDBRANCH   9  10
ENDBRANCH   8   9
ENDBRANCH   6   7
ENDBRANCH   5   6
ENDBRANCH   3   4
ENDBRANCH   2   3
BRANCH   1  14
HETATM   14  C   UNK N   1      29.435  26.854  -5.616  0.00  0.00     0.053 C 
BRANCH  14  15
HETATM   15  C   UNK N   1      30.047  27.152  -4.279  0.00  0.00    -0.027 C 
HETATM   16  C   UNK N   1      30.668  26.220  -3.547  0.00  0.00    -0.030 C 
BRANCH  16  17
HETATM   17  C   UNK N   1      30.807  24.790  -3.984  0.00  0.00     0.027 C 
BRANCH  17  18
HETATM   18  C   UNK N   1      30.096  23.864  -3.006  0.00  0.00     0.014 C 
BRANCH  18  19
HETATM   19  C   UNK N   1      29.973  22.442  -3.538  0.00  0.00     0.110 C 
BRANCH  19  20
HETATM   20  C   UNK N   1      31.090  21.559  -3.079  0.00  0.00     0.139 C 
HETATM   21  O   UNK N   1      31.845  21.930  -2.192  0.00  0.00    -0.650 OA
BRANCH  20  22
HETATM   22  O   UNK N   1      31.274  20.360  -3.658  0.00  0.00    -0.776 OA
HETATM   23  H   UNK N   1      31.382  19.951  -4.494  0.00  0.00     0.167 HD
ENDBRANCH  20  22
ENDBRANCH  19  20
ENDBRANCH  18  19
ENDBRANCH  17  18
ENDBRANCH  16  17
ENDBRANCH  14  15
ENDBRANCH   1  14
TORSDOF 14
ENDMDL
MODEL 2
REMARK VINA RESULT:      -5.0     11.118     13.742
REMARK  14 active torsions:
REMARK  status: ('A' for Active; 'I' for Inactive)
REMARK    1  A    between atoms: C_1  and  C_3 
REMARK    2  A    between atoms: C_2  and  C_4 
REMARK    3  A    between atoms: C_3  and  C_5 
REMARK    4  A    between atoms: C_4  and  C_6 
REMARK    5  A    between atoms: C_7  and  C_9 
REMARK    6  A    between atoms: C_8  and  C_10 
REMARK    7  A    between atoms: C_9  and  C_11 
REMARK    8  A    between atoms: C_10  and  C_12 
REMARK    9  A    between atoms: C_11  and  C_13 
REMARK   10  A    between atoms: C_13  and  C_15 
REMARK   11  A    between atoms: C_14  and  C_16 
REMARK   12  A    between atoms: C_15  and  O_17 
REMARK   13  A    between atoms: C_16  and  C_19 
REMARK   14  A    between atoms: C_20  and  C_21 
ROOT
HETATM    1  C   UNK N   1      27.699  19.946   7.163  0.00  0.00    -0.027 C 
HETATM    2  C   UNK N   1      27.397  20.626   6.052  0.00  0.00    -0.027 C 
ENDROOT
BRANCH   2   3
HETATM    3  C   UNK N   1      27.824  20.157   4.692  0.00  0.00     0.053 C 
BRANCH   3   4
HETATM    4  C   UNK N   1      26.657  20.057   3.756  0.00  0.00    -0.027 C 
HETATM    5  C   UNK N   1      25.902  18.958   3.638  0.00  0.00    -0.027 C 
BRANCH   5   6
HETATM    6  C   UNK N   1      26.167  17.705   4.416  0.00  0.00     0.053 C 
BRANCH   6   7
HETATM    7  C   UNK N   1      26.438  16.567   3.479  0.00  0.00    -0.027 C 
HETATM    8  C   UNK N   1      27.676  16.210   3.117  0.00  0.00    -0.027 C 
BRANCH   8   9
HETATM    9  C   UNK N   1      28.885  16.951   3.594  0.00  0.00     0.053 C 
BRANCH   9  10
HETATM   10  C   UNK N   1      29.527  16.207   4.721  0.00  0.00    -0.027 C 
HETATM   11  C   UNK N   1      30.818  15.862   4.700  0.00  0.00    -0.031 C 
BRANCH  11  12
HETATM   12  C   UNK N   1      31.712  16.193   3.549  0.00  0.00     0.022 C 
HETATM   13  C   UNK N   1      32.506  17.440   3.866  0.00  0.00     0.009 C 
ENDBRANCH  11  12
ENDBRANCH   9  10
ENDBRANCH   8   9
ENDBRANCH   6   7
ENDBRANCH   5   6
ENDBRANCH   3   4
ENDBRANCH   2   3
BRANCH   1  14
HETATM   14  C   UNK N   1      28.443  18.647   7.133  0.00  0.00     0.053 C 
BRANCH  14  15
HETATM   15  C   UNK N   1      28.572  18.092   8.520  0.00  0.00    -0.027 C 
HETATM   16  C   UNK N   1      29.728  18.098   9.195  0.00  0.00    -0.030 C 
BRANCH  16  17
HETATM   17  C   UNK N   1      31.005  18.649   8.630  0.00  0.00     0.027 C 
BRANCH  17  18
HETATM   18  C   UNK N   1      31.864  17.528   8.062  0.00  0.00     0.014 C 
BRANCH  18  19
HETATM   19  C   UNK N   1      33.257  17.496   8.677  0.00  0.00     0.110 C 
BRANCH  19  20
HETATM   20  C   UNK N   1      34.268  18.220   7.845  0.00  0.00     0.139 C 
HETATM   21  O   UNK N   1      34.386  17.964   6.655  0.00  0.00    -0.650 OA
BRANCH  20  22
HETATM   22  O   UNK N   1      35.061  19.145   8.413  0.00  0.00    -0.776 OA
HETATM   23  H   UNK N   1      35.950  19.439   8.444  0.00  0.00     0.167 HD
ENDBRANCH  20  22
ENDBRANCH  19  20
ENDBRANCH  18  19
ENDBRANCH  17  18
ENDBRANCH  16  17
ENDBRANCH  14  15
ENDBRANCH   1  14
TORSDOF 14
ENDMDL
MODEL 3
REMARK VINA RESULT:      -4.9      3.391      5.723
REMARK  14 active torsions:
REMARK  status: ('A' for Active; 'I' for Inactive)
REMARK    1  A    between atoms: C_1  and  C_3 
REMARK    2  A    between atoms: C_2  and  C_4 
REMARK    3  A    between atoms: C_3  and  C_5 
REMARK    4  A    between atoms: C_4  and  C_6 
REMARK    5  A    between atoms: C_7  and  C_9 
REMARK    6  A    between atoms: C_8  and  C_10 
REMARK    7  A    between atoms: C_9  and  C_11 
REMARK    8  A    between atoms: C_10  and  C_12 
REMARK    9  A    between atoms: C_11  and  C_13 
REMARK   10  A    between atoms: C_13  and  C_15 
REMARK   11  A    between atoms: C_14  and  C_16 
REMARK   12  A    between atoms: C_15  and  O_17 
REMARK   13  A    between atoms: C_16  and  C_19 
REMARK   14  A    between atoms: C_20  and  C_21 
ROOT
HETATM    1  C   UNK N   1      25.188  27.743  -4.980  0.00  0.00    -0.027 C 
HETATM    2  C   UNK N   1      26.085  27.762  -3.988  0.00  0.00    -0.027 C 
ENDROOT
BRANCH   2   3
HETATM    3  C   UNK N   1      26.754  26.513  -3.496  0.00  0.00     0.053 C 
BRANCH   3   4
HETATM    4  C   UNK N   1      28.135  26.370  -4.064  0.00  0.00    -0.027 C 
HETATM    5  C   UNK N   1      28.802  25.211  -4.090  0.00  0.00    -0.027 C 
BRANCH   5   6
HETATM    6  C   UNK N   1      28.241  23.940  -3.529  0.00  0.00     0.053 C 
BRANCH   6   7
HETATM    7  C   UNK N   1      29.305  23.196  -2.780  0.00  0.00    -0.027 C 
HETATM    8  C   UNK N   1      30.103  22.295  -3.367  0.00  0.00    -0.027 C 
BRANCH   8   9
HETATM    9  C   UNK N   1      29.964  21.937  -4.813  0.00  0.00     0.053 C 
BRANCH   9  10
HETATM   10  C   UNK N   1      30.976  20.900  -5.181  0.00  0.00    -0.027 C 
HETATM   11  C   UNK N   1      30.798  20.068  -6.212  0.00  0.00    -0.031 C 
BRANCH  11  12
HETATM   12  C   UNK N   1      29.575  20.113  -7.070  0.00  0.00     0.022 C 
HETATM   13  C   UNK N   1      29.544  18.900  -7.974  0.00  0.00     0.009 C 
ENDBRANCH  11  12
ENDBRANCH   9  10
ENDBRANCH   8   9
ENDBRANCH   6   7
ENDBRANCH   5   6
ENDBRANCH   3   4
ENDBRANCH   2   3
BRANCH   1  14
HETATM   14  C   UNK N   1      24.818  26.485  -5.703  0.00  0.00     0.053 C 
BRANCH  14  15
HETATM   15  C   UNK N   1      25.713  26.288  -6.891  0.00  0.00    -0.027 C 
HETATM   16  C   UNK N   1      26.229  25.096  -7.216  0.00  0.00    -0.030 C 
BRANCH  16  17
HETATM   17  C   UNK N   1      25.972  23.848  -6.423  0.00  0.00     0.027 C 
BRANCH  17  18
HETATM   18  C   UNK N   1      26.933  22.744  -6.843  0.00  0.00     0.014 C 
BRANCH  18  19
HETATM   19  C   UNK N   1      26.283  21.734  -7.780  0.00  0.00     0.110 C 
BRANCH  19  20
HETATM   20  C   UNK N   1      24.814  21.587  -7.535  0.00  0.00     0.139 C 
HETATM   21  O   UNK N   1      24.409  20.914  -6.599  0.00  0.00    -0.650 OA
BRANCH  20  22
HETATM   22  O   UNK N   1      23.937  22.187  -8.359  0.00  0.00    -0.776 OA
HETATM   23  H   UNK N   1      23.791  22.983  -8.830  0.00  0.00     0.167 HD
ENDBRANCH  20  22
ENDBRANCH  19  20
ENDBRANCH  18  19
ENDBRANCH  17  18
ENDBRANCH  16  17
ENDBRANCH  14  15
ENDBRANCH   1  14
TORSDOF 14
ENDMDL
MODEL 4
REMARK VINA RESULT:      -4.9      1.629      2.608
REMARK  14 active torsions:
REMARK  status: ('A' for Active; 'I' for Inactive)
REMARK    1  A    between atoms: C_1  and  C_3 
REMARK    2  A    between atoms: C_2  and  C_4 
REMARK    3  A    between atoms: C_3  and  C_5 
REMARK    4  A    between atoms: C_4  and  C_6 
REMARK    5  A    between atoms: C_7  and  C_9 
REMARK    6  A    between atoms: C_8  and  C_10 
REMARK    7  A    between atoms: C_9  and  C_11 
REMARK    8  A    between atoms: C_10  and  C_12 
REMARK    9  A    between atoms: C_11  and  C_13 
REMARK   10  A    between atoms: C_13  and  C_15 
REMARK   11  A    between atoms: C_14  and  C_16 
REMARK   12  A    between atoms: C_15  and  O_17 
REMARK   13  A    between atoms: C_16  and  C_19 
REMARK   14  A    between atoms: C_20  and  C_21 
ROOT
HETATM    1  C   UNK N   1      30.668  26.353  -3.632  0.00  0.00    -0.027 C 
HETATM    2  C   UNK N   1      30.860  27.549  -3.066  0.00  0.00    -0.027 C 
ENDROOT
BRANCH   2   3
HETATM    3  C   UNK N   1      30.046  28.750  -3.448  0.00  0.00     0.053 C 
BRANCH   3   4
HETATM    4  C   UNK N   1      29.345  29.338  -2.260  0.00  0.00    -0.027 C 
HETATM    5  C   UNK N   1      28.038  29.623  -2.245  0.00  0.00    -0.027 C 
BRANCH   5   6
HETATM    6  C   UNK N   1      27.147  29.404  -3.430  0.00  0.00     0.053 C 
BRANCH   6   7
HETATM    7  C   UNK N   1      26.132  28.345  -3.119  0.00  0.00    -0.027 C 
HETATM    8  C   UNK N   1      25.581  27.575  -4.066  0.00  0.00    -0.027 C 
BRANCH   8   9
HETATM    9  C   UNK N   1      25.913  27.742  -5.515  0.00  0.00     0.053 C 
BRANCH   9  10
HETATM   10  C   UNK N   1      25.384  26.583  -6.297  0.00  0.00    -0.027 C 
HETATM   11  C   UNK N   1      26.095  25.995  -7.265  0.00  0.00    -0.031 C 
BRANCH  11  12
HETATM   12  C   UNK N   1      27.467  26.456  -7.637  0.00  0.00     0.022 C 
HETATM   13  C   UNK N   1      28.221  25.322  -8.295  0.00  0.00     0.009 C 
ENDBRANCH  11  12
ENDBRANCH   9  10
ENDBRANCH   8   9
ENDBRANCH   6   7
ENDBRANCH   5   6
ENDBRANCH   3   4
ENDBRANCH   2   3
BRANCH   1  14
HETATM   14  C   UNK N   1      29.600  26.110  -4.653  0.00  0.00     0.053 C 
BRANCH  14  15
HETATM   15  C   UNK N   1      28.479  25.316  -4.050  0.00  0.00    -0.027 C 
HETATM   16  C   UNK N   1      28.273  24.025  -4.340  0.00  0.00    -0.030 C 
BRANCH  16  17
HETATM   17  C   UNK N   1      29.132  23.251  -5.297  0.00  0.00     0.027 C 
BRANCH  17  18
HETATM   18  C   UNK N   1      29.879  22.144  -4.565  0.00  0.00     0.014 C 
BRANCH  18  19
HETATM   19  C   UNK N   1      31.233  22.605  -4.041  0.00  0.00     0.110 C 
BRANCH  19  20
HETATM   20  C   UNK N   1      31.412  22.319  -2.584  0.00  0.00     0.139 C 
HETATM   21  O   UNK N   1      30.735  22.905  -1.752  0.00  0.00    -0.650 OA
BRANCH  20  22
HETATM   22  O   UNK N   1      32.333  21.423  -2.188  0.00  0.00    -0.776 OA
HETATM   23  H   UNK N   1      32.441  20.516  -1.981  0.00  0.00     0.167 HD
ENDBRANCH  20  22
ENDBRANCH  19  20
ENDBRANCH  18  19
ENDBRANCH  17  18
ENDBRANCH  16  17
ENDBRANCH  14  15
ENDBRANCH   1  14
TORSDOF 14
ENDMDL
MODEL 5
REMARK VINA RESULT:      -4.8     10.506     14.178
REMARK  14 active torsions:
REMARK  status: ('A' for Active; 'I' for Inactive)
REMARK    1  A    between atoms: C_1  and  C_3 
REMARK    2  A    between atoms: C_2  and  C_4 
REMARK    3  A    between atoms: C_3  and  C_5 
REMARK    4  A    between atoms: C_4  and  C_6 
REMARK    5  A    between atoms: C_7  and  C_9 
REMARK    6  A    between atoms: C_8  and  C_10 
REMARK    7  A    between atoms: C_9  and  C_11 
REMARK    8  A    between atoms: C_10  and  C_12 
REMARK    9  A    between atoms: C_11  and  C_13 
REMARK   10  A    between atoms: C_13  and  C_15 
REMARK   11  A    between atoms: C_14  and  C_16 
REMARK   12  A    between atoms: C_15  and  O_17 
REMARK   13  A    between atoms: C_16  and  C_19 
REMARK   14  A    between atoms: C_20  and  C_21 
ROOT
HETATM    1  C   UNK N   1      27.304  20.151   4.053  0.00  0.00    -0.027 C 
HETATM    2  C   UNK N   1      27.939  19.693   5.137  0.00  0.00    -0.027 C 
ENDROOT
BRANCH   2   3
HETATM    3  C   UNK N   1      27.429  18.521   5.922  0.00  0.00     0.053 C 
BRANCH   3   4
HETATM    4  C   UNK N   1      28.231  17.285   5.644  0.00  0.00    -0.027 C 
HETATM    5  C   UNK N   1      29.282  16.910   6.383  0.00  0.00    -0.027 C 
BRANCH   5   6
HETATM    6  C   UNK N   1      29.778  17.708   7.551  0.00  0.00     0.053 C 
BRANCH   6   7
HETATM    7  C   UNK N   1      30.609  16.841   8.448  0.00  0.00    -0.027 C 
HETATM    8  C   UNK N   1      31.930  17.010   8.592  0.00  0.00    -0.027 C 
BRANCH   8   9
HETATM    9  C   UNK N   1      32.681  18.058   7.834  0.00  0.00     0.053 C 
BRANCH   9  10
HETATM   10  C   UNK N   1      33.870  17.448   7.162  0.00  0.00    -0.027 C 
HETATM   11  C   UNK N   1      33.896  17.204   5.848  0.00  0.00    -0.031 C 
BRANCH  11  12
HETATM   12  C   UNK N   1      32.740  17.522   4.956  0.00  0.00     0.022 C 
HETATM   13  C   UNK N   1      32.138  16.238   4.430  0.00  0.00     0.009 C 
ENDBRANCH  11  12
ENDBRANCH   9  10
ENDBRANCH   8   9
ENDBRANCH   6   7
ENDBRANCH   5   6
ENDBRANCH   3   4
ENDBRANCH   2   3
BRANCH   1  14
HETATM   14  C   UNK N   1      26.066  19.504   3.515  0.00  0.00     0.053 C 
BRANCH  14  15
HETATM   15  C   UNK N   1      25.243  20.506   2.760  0.00  0.00    -0.027 C 
HETATM   16  C   UNK N   1      23.906  20.526   2.811  0.00  0.00    -0.030 C 
BRANCH  16  17
HETATM   17  C   UNK N   1      23.100  19.548   3.615  0.00  0.00     0.027 C 
BRANCH  17  18
HETATM   18  C   UNK N   1      21.694  19.420   3.045  0.00  0.00     0.014 C 
BRANCH  18  19
HETATM   19  C   UNK N   1      21.078  20.773   2.713  0.00  0.00     0.110 C 
BRANCH  19  20
HETATM   20  C   UNK N   1      20.783  20.926   1.254  0.00  0.00     0.139 C 
HETATM   21  O   UNK N   1      20.894  19.972   0.498  0.00  0.00    -0.650 OA
BRANCH  20  22
HETATM   22  O   UNK N   1      20.411  22.124   0.771  0.00  0.00    -0.776 OA
HETATM   23  H   UNK N   1      20.388  22.629  -0.018  0.00  0.00     0.167 HD
ENDBRANCH  20  22
ENDBRANCH  19  20
ENDBRANCH  18  19
ENDBRANCH  17  18
ENDBRANCH  16  17
ENDBRANCH  14  15
ENDBRANCH   1  14
TORSDOF 14
ENDMDL
MODEL 6
REMARK VINA RESULT:      -4.6      3.272      6.651
REMARK  14 active torsions:
REMARK  status: ('A' for Active; 'I' for Inactive)
REMARK    1  A    between atoms: C_1  and  C_3 
REMARK    2  A    between atoms: C_2  and  C_4 
REMARK    3  A    between atoms: C_3  and  C_5 
REMARK    4  A    between atoms: C_4  and  C_6 
REMARK    5  A    between atoms: C_7  and  C_9 
REMARK    6  A    between atoms: C_8  and  C_10 
REMARK    7  A    between atoms: C_9  and  C_11 
REMARK    8  A    between atoms: C_10  and  C_12 
REMARK    9  A    between atoms: C_11  and  C_13 
REMARK   10  A    between atoms: C_13  and  C_15 
REMARK   11  A    between atoms: C_14  and  C_16 
REMARK   12  A    between atoms: C_15  and  O_17 
REMARK   13  A    between atoms: C_16  and  C_19 
REMARK   14  A    between atoms: C_20  and  C_21 
ROOT
HETATM    1  C   UNK N   1      26.684  25.216  -3.444  0.00  0.00    -0.027 C 
HETATM    2  C   UNK N   1      27.004  24.082  -4.077  0.00  0.00    -0.027 C 
ENDROOT
BRANCH   2   3
HETATM    3  C   UNK N   1      27.887  24.070  -5.290  0.00  0.00     0.053 C 
BRANCH   3   4
HETATM    4  C   UNK N   1      27.377  23.119  -6.330  0.00  0.00    -0.027 C 
HETATM    5  C   UNK N   1      28.161  22.248  -6.977  0.00  0.00    -0.027 C 
BRANCH   5   6
HETATM    6  C   UNK N   1      29.639  22.157  -6.740  0.00  0.00     0.053 C 
BRANCH   6   7
HETATM    7  C   UNK N   1      29.955  20.929  -5.942  0.00  0.00    -0.027 C 
HETATM    8  C   UNK N   1      30.768  20.951  -4.877  0.00  0.00    -0.027 C 
BRANCH   8   9
HETATM    9  C   UNK N   1      31.451  22.203  -4.429  0.00  0.00     0.053 C 
BRANCH   9  10
HETATM   10  C   UNK N   1      30.765  22.753  -3.219  0.00  0.00    -0.027 C 
HETATM   11  C   UNK N   1      30.642  24.067  -3.008  0.00  0.00    -0.031 C 
BRANCH  11  12
HETATM   12  C   UNK N   1      31.180  25.081  -3.965  0.00  0.00     0.022 C 
HETATM   13  C   UNK N   1      30.901  26.472  -3.440  0.00  0.00     0.009 C 
ENDBRANCH  11  12
ENDBRANCH   9  10
ENDBRANCH   8   9
ENDBRANCH   6   7
ENDBRANCH   5   6
ENDBRANCH   3   4
ENDBRANCH   2   3
BRANCH   1  14
HETATM   14  C   UNK N   1      27.217  26.549  -3.867  0.00  0.00     0.053 C 
BRANCH  14  15
HETATM   15  C   UNK N   1      26.087  27.466  -4.232  0.00  0.00    -0.027 C 
HETATM   16  C   UNK N   1      25.728  27.698  -5.501  0.00  0.00    -0.030 C 
BRANCH  16  17
HETATM   17  C   UNK N   1      26.421  27.074  -6.677  0.00  0.00     0.027 C 
BRANCH  17  18
HETATM   18  C   UNK N   1      25.452  26.201  -7.464  0.00  0.00     0.014 C 
BRANCH  18  19
HETATM   19  C   UNK N   1      26.127  25.493  -8.632  0.00  0.00     0.110 C 
BRANCH  19  20
HETATM   20  C   UNK N   1      25.217  24.525  -9.319  0.00  0.00     0.139 C 
HETATM   21  O   UNK N   1      24.914  24.687 -10.492  0.00  0.00    -0.650 OA
BRANCH  20  22
HETATM   22  O   UNK N   1      24.716  23.480  -8.635  0.00  0.00    -0.776 OA
HETATM   23  H   UNK N   1      24.970  22.683  -8.213  0.00  0.00     0.167 HD
ENDBRANCH  20  22
ENDBRANCH  19  20
ENDBRANCH  18  19
ENDBRANCH  17  18
ENDBRANCH  16  17
ENDBRANCH  14  15
ENDBRANCH   1  14
TORSDOF 14
ENDMDL
MODEL 7
REMARK VINA RESULT:      -4.6      2.939      5.335
REMARK  14 active torsions:
REMARK  status: ('A' for Active; 'I' for Inactive)
REMARK    1  A    between atoms: C_1  and  C_3 
REMARK    2  A    between atoms: C_2  and  C_4 
REMARK    3  A    between atoms: C_3  and  C_5 
REMARK    4  A    between atoms: C_4  and  C_6 
REMARK    5  A    between atoms: C_7  and  C_9 
REMARK    6  A    between atoms: C_8  and  C_10 
REMARK    7  A    between atoms: C_9  and  C_11 
REMARK    8  A    between atoms: C_10  and  C_12 
REMARK    9  A    between atoms: C_11  and  C_13 
REMARK   10  A    between atoms: C_13  and  C_15 
REMARK   11  A    between atoms: C_14  and  C_16 
REMARK   12  A    between atoms: C_15  and  O_17 
REMARK   13  A    between atoms: C_16  and  C_19 
REMARK   14  A    between atoms: C_20  and  C_21 
ROOT
HETATM    1  C   UNK N   1      31.106  21.792  -3.249  0.00  0.00    -0.027 C 
HETATM    2  C   UNK N   1      30.817  22.912  -2.577  0.00  0.00    -0.027 C 
ENDROOT
BRANCH   2   3
HETATM    3  C   UNK N   1      29.533  23.658  -2.789  0.00  0.00     0.053 C 
BRANCH   3   4
HETATM    4  C   UNK N   1      29.742  24.881  -3.631  0.00  0.00    -0.027 C 
HETATM    5  C   UNK N   1      28.736  25.612  -4.125  0.00  0.00    -0.027 C 
BRANCH   5   6
HETATM    6  C   UNK N   1      27.296  25.264  -3.905  0.00  0.00     0.053 C 
BRANCH   6   7
HETATM    7  C   UNK N   1      26.595  26.391  -3.210  0.00  0.00    -0.027 C 
HETATM    8  C   UNK N   1      25.841  27.284  -3.863  0.00  0.00    -0.027 C 
BRANCH   8   9
HETATM    9  C   UNK N   1      25.674  27.242  -5.349  0.00  0.00     0.053 C 
BRANCH   9  10
HETATM   10  C   UNK N   1      26.693  28.121  -6.002  0.00  0.00    -0.027 C 
HETATM   11  C   UNK N   1      27.477  27.685  -6.992  0.00  0.00    -0.031 C 
BRANCH  11  12
HETATM   12  C   UNK N   1      27.393  26.288  -7.518  0.00  0.00     0.022 C 
HETATM   13  C   UNK N   1      26.604  26.278  -8.808  0.00  0.00     0.009 C 
ENDBRANCH  11  12
ENDBRANCH   9  10
ENDBRANCH   8   9
ENDBRANCH   6   7
ENDBRANCH   5   6
ENDBRANCH   3   4
ENDBRANCH   2   3
BRANCH   1  14
HETATM   14  C   UNK N   1      30.155  21.175  -4.226  0.00  0.00     0.053 C 
BRANCH  14  15
HETATM   15  C   UNK N   1      30.600  21.455  -5.631  0.00  0.00    -0.027 C 
HETATM   16  C   UNK N   1      29.820  22.076  -6.524  0.00  0.00    -0.030 C 
BRANCH  16  17
HETATM   17  C   UNK N   1      28.427  22.541  -6.214  0.00  0.00     0.027 C 
BRANCH  17  18
HETATM   18  C   UNK N   1      27.549  22.459  -7.456  0.00  0.00     0.014 C 
BRANCH  18  19
HETATM   19  C   UNK N   1      26.089  22.773  -7.157  0.00  0.00     0.110 C 
BRANCH  19  20
HETATM   20  C   UNK N   1      25.146  21.912  -7.937  0.00  0.00     0.139 C 
HETATM   21  O   UNK N   1      23.987  22.262  -8.107  0.00  0.00    -0.650 OA
BRANCH  20  22
HETATM   22  O   UNK N   1      25.573  20.740  -8.439  0.00  0.00    -0.776 OA
HETATM   23  H   UNK N   1      25.587  20.235  -9.228  0.00  0.00     0.167 HD
ENDBRANCH  20  22
ENDBRANCH  19  20
ENDBRANCH  18  19
ENDBRANCH  17  18
ENDBRANCH  16  17
ENDBRANCH  14  15
ENDBRANCH   1  14
TORSDOF 14
ENDMDL
MODEL 8
REMARK VINA RESULT:      -4.6      2.798      4.726
REMARK  14 active torsions:
REMARK  status: ('A' for Active; 'I' for Inactive)
REMARK    1  A    between atoms: C_1  and  C_3 
REMARK    2  A    between atoms: C_2  and  C_4 
REMARK    3  A    between atoms: C_3  and  C_5 
REMARK    4  A    between atoms: C_4  and  C_6 
REMARK    5  A    between atoms: C_7  and  C_9 
REMARK    6  A    between atoms: C_8  and  C_10 
REMARK    7  A    between atoms: C_9  and  C_11 
REMARK    8  A    between atoms: C_10  and  C_12 
REMARK    9  A    between atoms: C_11  and  C_13 
REMARK   10  A    between atoms: C_13  and  C_15 
REMARK   11  A    between atoms: C_14  and  C_16 
REMARK   12  A    between atoms: C_15  and  O_17 
REMARK   13  A    between atoms: C_16  and  C_19 
REMARK   14  A    between atoms: C_20  and  C_21 
ROOT
HETATM    1  C   UNK N   1      27.904  27.935  -7.659  0.00  0.00    -0.027 C 
HETATM    2  C   UNK N   1      28.129  28.909  -6.771  0.00  0.00    -0.027 C 
ENDROOT
BRANCH   2   3
HETATM    3  C   UNK N   1      28.007  28.681  -5.293  0.00  0.00     0.053 C 
BRANCH   3   4
HETATM    4  C   UNK N   1      26.659  29.099  -4.784  0.00  0.00    -0.027 C 
HETATM    5  C   UNK N   1      25.955  28.385  -3.898  0.00  0.00    -0.027 C 
BRANCH   5   6
HETATM    6  C   UNK N   1      26.437  27.078  -3.345  0.00  0.00     0.053 C 
BRANCH   6   7
HETATM    7  C   UNK N   1      25.757  25.941  -4.047  0.00  0.00    -0.027 C 
HETATM    8  C   UNK N   1      26.239  24.693  -4.033  0.00  0.00    -0.027 C 
BRANCH   8   9
HETATM    9  C   UNK N   1      27.521  24.347  -3.342  0.00  0.00     0.053 C 
BRANCH   9  10
HETATM   10  C   UNK N   1      28.530  23.882  -4.343  0.00  0.00    -0.027 C 
HETATM   11  C   UNK N   1      29.576  24.634  -4.699  0.00  0.00    -0.031 C 
BRANCH  11  12
HETATM   12  C   UNK N   1      29.812  25.993  -4.125  0.00  0.00     0.022 C 
HETATM   13  C   UNK N   1      31.275  26.148  -3.774  0.00  0.00     0.009 C 
ENDBRANCH  11  12
ENDBRANCH   9  10
ENDBRANCH   8   9
ENDBRANCH   6   7
ENDBRANCH   5   6
ENDBRANCH   3   4
ENDBRANCH   2   3
BRANCH   1  14
HETATM   14  C   UNK N   1      27.559  26.537  -7.248  0.00  0.00     0.053 C 
BRANCH  14  15
HETATM   15  C   UNK N   1      26.119  26.249  -7.552  0.00  0.00    -0.027 C 
HETATM   16  C   UNK N   1      25.655  25.006  -7.735  0.00  0.00    -0.030 C 
BRANCH  16  17
HETATM   17  C   UNK N   1      26.526  23.786  -7.663  0.00  0.00     0.027 C 
BRANCH  17  18
HETATM   18  C   UNK N   1      25.920  22.754  -6.721  0.00  0.00     0.014 C 
BRANCH  18  19
HETATM   19  C   UNK N   1      25.048  21.742  -7.453  0.00  0.00     0.110 C 
BRANCH  19  20
HETATM   20  C   UNK N   1      25.750  21.117  -8.617  0.00  0.00     0.139 C 
HETATM   21  O   UNK N   1      26.819  20.546  -8.459  0.00  0.00    -0.650 OA
BRANCH  20  22
HETATM   22  O   UNK N   1      25.208  21.199  -9.845  0.00  0.00    -0.776 OA
HETATM   23  H   UNK N   1      25.436  21.282 -10.749  0.00  0.00     0.167 HD
ENDBRANCH  20  22
ENDBRANCH  19  20
ENDBRANCH  18  19
ENDBRANCH  17  18
ENDBRANCH  16  17
ENDBRANCH  14  15
ENDBRANCH   1  14
TORSDOF 14
ENDMDL
MODEL 9
REMARK VINA RESULT:      -4.6     20.084     24.616
REMARK  14 active torsions:
REMARK  status: ('A' for Active; 'I' for Inactive)
REMARK    1  A    between atoms: C_1  and  C_3 
REMARK    2  A    between atoms: C_2  and  C_4 
REMARK    3  A    between atoms: C_3  and  C_5 
REMARK    4  A    between atoms: C_4  and  C_6 
REMARK    5  A    between atoms: C_7  and  C_9 
REMARK    6  A    between atoms: C_8  and  C_10 
REMARK    7  A    between atoms: C_9  and  C_11 
REMARK    8  A    between atoms: C_10  and  C_12 
REMARK    9  A    between atoms: C_11  and  C_13 
REMARK   10  A    between atoms: C_13  and  C_15 
REMARK   11  A    between atoms: C_14  and  C_16 
REMARK   12  A    between atoms: C_15  and  O_17 
REMARK   13  A    between atoms: C_16  and  C_19 
REMARK   14  A    between atoms: C_20  and  C_21 
ROOT
HETATM    1  C   UNK N   1      36.695  14.223  14.718  0.00  0.00    -0.027 C 
HETATM    2  C   UNK N   1      36.578  13.969  16.026  0.00  0.00    -0.027 C 
ENDROOT
BRANCH   2   3
HETATM    3  C   UNK N   1      35.354  13.322  16.604  0.00  0.00     0.053 C 
BRANCH   3   4
HETATM    4  C   UNK N   1      35.256  13.557  18.081  0.00  0.00    -0.027 C 
HETATM    5  C   UNK N   1      35.157  12.568  18.977  0.00  0.00    -0.027 C 
BRANCH   5   6
HETATM    6  C   UNK N   1      35.110  11.122  18.586  0.00  0.00     0.053 C 
BRANCH   6   7
HETATM    7  C   UNK N   1      36.337  10.416  19.082  0.00  0.00    -0.027 C 
HETATM    8  C   UNK N   1      36.968   9.477  18.366  0.00  0.00    -0.027 C 
BRANCH   8   9
HETATM    9  C   UNK N   1      36.469   9.036  17.026  0.00  0.00     0.053 C 
BRANCH   9  10
HETATM   10  C   UNK N   1      36.931   9.988  15.971  0.00  0.00    -0.027 C 
HETATM   11  C   UNK N   1      36.181  10.286  14.905  0.00  0.00    -0.031 C 
BRANCH  11  12
HETATM   12  C   UNK N   1      34.828   9.689  14.691  0.00  0.00     0.022 C 
HETATM   13  C   UNK N   1      33.811  10.793  14.502  0.00  0.00     0.009 C 
ENDBRANCH  11  12
ENDBRANCH   9  10
ENDBRANCH   8   9
ENDBRANCH   6   7
ENDBRANCH   5   6
ENDBRANCH   3   4
ENDBRANCH   2   3
BRANCH   1  14
HETATM   14  C   UNK N   1      35.638  13.842  13.728  0.00  0.00     0.053 C 
BRANCH  14  15
HETATM   15  C   UNK N   1      36.265  13.481  12.414  0.00  0.00    -0.027 C 
HETATM   16  C   UNK N   1      36.166  14.260  11.330  0.00  0.00    -0.030 C 
BRANCH  16  17
HETATM   17  C   UNK N   1      35.414  15.558  11.319  0.00  0.00     0.027 C 
BRANCH  17  18
HETATM   18  C   UNK N   1      34.854  15.838   9.930  0.00  0.00     0.014 C 
BRANCH  18  19
HETATM   19  C   UNK N   1      34.950  17.310   9.551  0.00  0.00     0.110 C 
BRANCH  19  20
HETATM   20  C   UNK N   1      34.050  17.668   8.411  0.00  0.00     0.139 C 
HETATM   21  O   UNK N   1      32.837  17.573   8.529  0.00  0.00    -0.650 OA
BRANCH  20  22
HETATM   22  O   UNK N   1      34.580  18.081   7.246  0.00  0.00    -0.776 OA
HETATM   23  H   UNK N   1      34.357  18.259   6.354  0.00  0.00     0.167 HD
ENDBRANCH  20  22
ENDBRANCH  19  20
ENDBRANCH  18  19
ENDBRANCH  17  18
ENDBRANCH  16  17
ENDBRANCH  14  15
ENDBRANCH   1  14
TORSDOF 14
ENDMDL
