REMARK  6 active torsions:
REMARK  status: ('A' for Active; 'I' for Inactive)
REMARK    1  A    between atoms: O_1  and  C_10 
REMARK    2  A    between atoms: O_2  and  C_13 
REMARK    3  A    between atoms: C_6  and  N_4 
REMARK    4  A    between atoms: C_5  and  C_6 
REMARK    5  A    between atoms: C_5  and  C_7 
REMARK    6  A    between atoms: C_6  and  C_10 
ROOT
HETATM    1  C   UNK N   1       2.254   1.166   0.085  0.00  0.00     0.074 C 
ENDROOT
BRANCH   1   2
HETATM    2  C   UNK N   1       3.601   1.874   0.339  0.00  0.00     0.177 C 
BRANCH   2   3
HETATM    3  N   UNK N   1       4.703   1.226  -0.351  0.00  0.00    -0.417 N 
HETATM    4  H   UNK N   1       4.695   0.328  -0.836  0.00  0.00     0.150 HD
HETATM    5  H   UNK N   1       5.590   1.729  -0.351  0.00  0.00     0.150 HD
ENDBRANCH   2   3
BRANCH   2   6
HETATM    6  C   UNK N   1       3.541   3.309  -0.118  0.00  0.00     0.163 C 
HETATM    7  O   UNK N   1       2.558   3.747  -0.692  0.00  0.00    -0.648 OA
BRANCH   6   8
HETATM    8  O   UNK N   1       4.605   4.113   0.079  0.00  0.00    -0.775 OA
HETATM    9  H   UNK N   1       5.459   3.751   0.215  0.00  0.00     0.167 HD
ENDBRANCH   6   8
ENDBRANCH   2   6
ENDBRANCH   1   2
BRANCH   1  10
HETATM   10  C   UNK N   1       2.180  -0.339   0.110  0.00  0.00    -0.056 A 
HETATM   11  C   UNK N   1       3.321  -1.154   0.065  0.00  0.00     0.010 A 
HETATM   12  C   UNK N   1       3.195  -2.545   0.002  0.00  0.00     0.037 A 
HETATM   13  C   UNK N   1       1.927  -3.131  -0.014  0.00  0.00     0.065 A 
HETATM   14  C   UNK N   1       0.786  -2.326   0.043  0.00  0.00     0.037 A 
HETATM   15  C   UNK N   1       0.914  -0.935   0.098  0.00  0.00     0.010 A 
BRANCH  13  16
HETATM   16  O   UNK N   1       1.805  -4.465  -0.090  0.00  0.00    -0.361 OA
HETATM   17  H   UNK N   1       0.955  -4.857  -0.142  0.00  0.00     0.217 HD
ENDBRANCH  13  16
ENDBRANCH   1  10
TORSDOF 6
