MODEL 1
REMARK VINA RESULT:      -5.8      0.000      0.000
REMARK  6 active torsions:
REMARK  status: ('A' for Active; 'I' for Inactive)
REMARK    1  A    between atoms: O_2  and  C_16 
REMARK    2  A    between atoms: N_3  and  C_10 
REMARK    3  A    between atoms: N_8  and  C_17 
REMARK    4  A    between atoms: C_10  and  C_13 
REMARK    5  A    between atoms: C_11  and  C_12 
REMARK    6  A    between atoms: C_12  and  C_16 
ROOT
HETATM    1  N   UNK N   1      31.977  17.762   9.017  0.00  0.00    -0.332 N 
ATOM      2  HN  UNK N   1      32.353  18.008   9.933  1.00  0.00     0.168 HD
HETATM    3  N   UNK N   1      32.321  16.967   6.834  0.00  0.00    -0.355 N 
ATOM      4  HN  UNK N   1      32.953  16.621   6.113  1.00  0.00     0.166 HD
HETATM    5  C   UNK N   1      30.111  17.565   7.524  0.00  0.00     0.019 A 
HETATM    6  C   UNK N   1      30.647  17.894   8.784  0.00  0.00     0.109 A 
HETATM    7  C   UNK N   1      30.996  17.080   6.566  0.00  0.00     0.102 A 
HETATM    8  C   UNK N   1      32.815  17.310   8.050  0.00  0.00     0.078 A 
HETATM    9  C   UNK N   1      34.269  17.186   8.323  0.00  0.00     0.089 C 
ENDROOT
BRANCH   5  10
HETATM   10  C   UNK N   1      28.617  17.737   7.310  0.00  0.00     0.172 C 
BRANCH  10  11
HETATM   11  N   UNK N   1      27.941  18.760   6.480  0.00  0.00    -0.349 N 
HETATM   12  C   UNK N   1      27.592  18.807   5.124  0.00  0.00     0.021 A 
HETATM   13  C   UNK N   1      26.970  20.003   4.728  0.00  0.00     0.008 A 
HETATM   14  C   UNK N   1      27.852  17.747   4.120  0.00  0.00     0.069 C 
HETATM   15  S   UNK N   1      26.898  20.951   6.065  0.00  0.00    -0.087 SA
HETATM   16  C   UNK N   1      27.611  19.911   7.131  0.00  0.00     0.141 A 
BRANCH  13  17
HETATM   17  C   UNK N   1      26.489  20.398   3.367  0.00  0.00     0.074 C 
BRANCH  17  18
HETATM   18  C   UNK N   1      25.004  20.126   3.201  0.00  0.00     0.169 C 
BRANCH  18  19
HETATM   19  O   UNK N   1      24.500  20.900   2.156  0.00  0.00    -0.401 OA
HETATM   20  H   UNK N   1      25.032  21.350   1.481  0.00  0.00     0.209 HD
ENDBRANCH  18  19
ENDBRANCH  17  18
ENDBRANCH  13  17
ENDBRANCH  10  11
ENDBRANCH   5  10
BRANCH   6  21
HETATM   21  N   UNK N   1      29.807  18.365   9.818  0.00  0.00    -0.385 N 
HETATM   22  H   UNK N   1      28.899  17.999   9.921  0.00  0.00     0.157 HD
HETATM   23  H   UNK N   1      30.130  19.061  10.435  0.00  0.00     0.157 HD
ENDBRANCH   6  21
TORSDOF 6
ENDMDL
MODEL 2
REMARK VINA RESULT:      -5.7      4.018      6.830
REMARK  6 active torsions:
REMARK  status: ('A' for Active; 'I' for Inactive)
REMARK    1  A    between atoms: O_2  and  C_16 
REMARK    2  A    between atoms: N_3  and  C_10 
REMARK    3  A    between atoms: N_8  and  C_17 
REMARK    4  A    between atoms: C_10  and  C_13 
REMARK    5  A    between atoms: C_11  and  C_12 
REMARK    6  A    between atoms: C_12  and  C_16 
ROOT
HETATM    1  N   UNK N   1      27.105  19.919   7.522  0.00  0.00    -0.332 N 
ATOM      2  HN  UNK N   1      26.595  20.354   8.290  1.00  0.00     0.168 HD
HETATM    3  N   UNK N   1      27.816  19.958   5.283  0.00  0.00    -0.355 N 
ATOM      4  HN  UNK N   1      27.834  20.418   4.373  1.00  0.00     0.166 HD
HETATM    5  C   UNK N   1      28.459  18.127   6.680  0.00  0.00     0.019 A 
HETATM    6  C   UNK N   1      27.754  18.745   7.731  0.00  0.00     0.109 A 
HETATM    7  C   UNK N   1      28.480  18.787   5.456  0.00  0.00     0.102 A 
HETATM    8  C   UNK N   1      27.126  20.522   6.306  0.00  0.00     0.078 A 
HETATM    9  C   UNK N   1      26.399  21.799   6.096  0.00  0.00     0.089 C 
ENDROOT
BRANCH   5  10
HETATM   10  C   UNK N   1      29.163  16.811   6.963  0.00  0.00     0.172 C 
BRANCH  10  11
HETATM   11  N   UNK N   1      30.591  16.610   7.296  0.00  0.00    -0.349 N 
HETATM   12  C   UNK N   1      31.491  17.324   8.098  0.00  0.00     0.021 A 
HETATM   13  C   UNK N   1      32.792  16.794   8.123  0.00  0.00     0.008 A 
HETATM   14  C   UNK N   1      31.189  18.561   8.858  0.00  0.00     0.069 C 
HETATM   15  S   UNK N   1      32.773  15.481   7.140  0.00  0.00    -0.087 SA
HETATM   16  C   UNK N   1      31.186  15.545   6.689  0.00  0.00     0.141 A 
BRANCH  13  17
HETATM   17  C   UNK N   1      33.995  17.307   8.849  0.00  0.00     0.074 C 
BRANCH  17  18
HETATM   18  C   UNK N   1      34.639  18.466   8.109  0.00  0.00     0.169 C 
BRANCH  18  19
HETATM   19  O   UNK N   1      35.523  19.131   8.959  0.00  0.00    -0.401 OA
HETATM   20  H   UNK N   1      36.331  18.752   9.341  0.00  0.00     0.209 HD
ENDBRANCH  18  19
ENDBRANCH  17  18
ENDBRANCH  13  17
ENDBRANCH  10  11
ENDBRANCH   5  10
BRANCH   6  21
HETATM   21  N   UNK N   1      27.712  18.151   9.011  0.00  0.00    -0.385 N 
HETATM   22  H   UNK N   1      28.547  17.891   9.462  0.00  0.00     0.157 HD
HETATM   23  H   UNK N   1      26.845  17.996   9.453  0.00  0.00     0.157 HD
ENDBRANCH   6  21
TORSDOF 6
ENDMDL
MODEL 3
REMARK VINA RESULT:      -5.6      4.418      7.537
REMARK  6 active torsions:
REMARK  status: ('A' for Active; 'I' for Inactive)
REMARK    1  A    between atoms: O_2  and  C_16 
REMARK    2  A    between atoms: N_3  and  C_10 
REMARK    3  A    between atoms: N_8  and  C_17 
REMARK    4  A    between atoms: C_10  and  C_13 
REMARK    5  A    between atoms: C_11  and  C_12 
REMARK    6  A    between atoms: C_12  and  C_16 
ROOT
HETATM    1  N   UNK N   1      27.652  19.482   7.576  0.00  0.00    -0.332 N 
ATOM      2  HN  UNK N   1      27.102  20.077   8.194  1.00  0.00     0.168 HD
HETATM    3  N   UNK N   1      28.277  18.850   5.401  0.00  0.00    -0.355 N 
ATOM      4  HN  UNK N   1      28.192  18.969   4.392  1.00  0.00     0.166 HD
HETATM    5  C   UNK N   1      29.249  17.719   7.270  0.00  0.00     0.019 A 
HETATM    6  C   UNK N   1      28.486  18.554   8.109  0.00  0.00     0.109 A 
HETATM    7  C   UNK N   1      29.125  17.916   5.898  0.00  0.00     0.102 A 
HETATM    8  C   UNK N   1      27.538  19.628   6.231  0.00  0.00     0.078 A 
HETATM    9  C   UNK N   1      26.608  20.641   5.669  0.00  0.00     0.089 C 
ENDROOT
BRANCH   5  10
HETATM   10  C   UNK N   1      30.163  16.692   7.915  0.00  0.00     0.172 C 
BRANCH  10  11
HETATM   11  N   UNK N   1      31.613  16.825   8.186  0.00  0.00    -0.349 N 
HETATM   12  C   UNK N   1      32.570  15.943   8.703  0.00  0.00     0.021 A 
HETATM   13  C   UNK N   1      33.858  16.490   8.823  0.00  0.00     0.008 A 
HETATM   14  C   UNK N   1      32.321  14.548   9.143  0.00  0.00     0.069 C 
HETATM   15  S   UNK N   1      33.750  18.042   8.303  0.00  0.00    -0.087 SA
HETATM   16  C   UNK N   1      32.143  18.052   7.921  0.00  0.00     0.141 A 
BRANCH  13  17
HETATM   17  C   UNK N   1      35.101  15.845   9.349  0.00  0.00     0.074 C 
BRANCH  17  18
HETATM   18  C   UNK N   1      35.568  16.504  10.636  0.00  0.00     0.169 C 
BRANCH  18  19
HETATM   19  O   UNK N   1      36.892  16.148  10.891  0.00  0.00    -0.401 OA
HETATM   20  H   UNK N   1      37.399  16.393  11.680  0.00  0.00     0.209 HD
ENDBRANCH  18  19
ENDBRANCH  17  18
ENDBRANCH  13  17
ENDBRANCH  10  11
ENDBRANCH   5  10
BRANCH   6  21
HETATM   21  N   UNK N   1      28.580  18.435   9.514  0.00  0.00    -0.385 N 
HETATM   22  H   UNK N   1      27.820  18.692  10.083  0.00  0.00     0.157 HD
HETATM   23  H   UNK N   1      29.408  18.094   9.924  0.00  0.00     0.157 HD
ENDBRANCH   6  21
TORSDOF 6
ENDMDL
MODEL 4
REMARK VINA RESULT:      -5.5      3.656      6.888
REMARK  6 active torsions:
REMARK  status: ('A' for Active; 'I' for Inactive)
REMARK    1  A    between atoms: O_2  and  C_16 
REMARK    2  A    between atoms: N_3  and  C_10 
REMARK    3  A    between atoms: N_8  and  C_17 
REMARK    4  A    between atoms: C_10  and  C_13 
REMARK    5  A    between atoms: C_11  and  C_12 
REMARK    6  A    between atoms: C_12  and  C_16 
ROOT
HETATM    1  N   UNK N   1      25.770  18.564   4.406  0.00  0.00    -0.332 N 
ATOM      2  HN  UNK N   1      24.761  18.425   4.354  1.00  0.00     0.168 HD
HETATM    3  N   UNK N   1      27.685  19.763   3.765  0.00  0.00    -0.355 N 
ATOM      4  HN  UNK N   1      28.112  20.519   3.229  1.00  0.00     0.166 HD
HETATM    5  C   UNK N   1      27.912  17.921   5.271  0.00  0.00     0.019 A 
HETATM    6  C   UNK N   1      26.517  17.747   5.191  0.00  0.00     0.109 A 
HETATM    7  C   UNK N   1      28.463  18.970   4.543  0.00  0.00     0.102 A 
HETATM    8  C   UNK N   1      26.346  19.562   3.689  0.00  0.00     0.078 A 
HETATM    9  C   UNK N   1      25.511  20.436   2.826  0.00  0.00     0.089 C 
ENDROOT
BRANCH   5  10
HETATM   10  C   UNK N   1      28.705  16.976   6.159  0.00  0.00     0.172 C 
BRANCH  10  11
HETATM   11  N   UNK N   1      30.035  17.217   6.763  0.00  0.00    -0.349 N 
HETATM   12  C   UNK N   1      31.330  17.255   6.231  0.00  0.00     0.021 A 
HETATM   13  C   UNK N   1      32.339  17.496   7.178  0.00  0.00     0.008 A 
HETATM   14  C   UNK N   1      31.695  17.034   4.810  0.00  0.00     0.069 C 
HETATM   15  S   UNK N   1      31.587  17.633   8.629  0.00  0.00    -0.087 SA
HETATM   16  C   UNK N   1      30.034  17.410   8.112  0.00  0.00     0.141 A 
BRANCH  13  17
HETATM   17  C   UNK N   1      33.818  17.580   6.965  0.00  0.00     0.074 C 
BRANCH  17  18
HETATM   18  C   UNK N   1      34.555  17.816   8.272  0.00  0.00     0.169 C 
BRANCH  18  19
HETATM   19  O   UNK N   1      34.986  19.141   8.335  0.00  0.00    -0.401 OA
HETATM   20  H   UNK N   1      34.413  19.914   8.464  0.00  0.00     0.209 HD
ENDBRANCH  18  19
ENDBRANCH  17  18
ENDBRANCH  13  17
ENDBRANCH  10  11
ENDBRANCH   5  10
BRANCH   6  21
HETATM   21  N   UNK N   1      25.880  16.722   5.925  0.00  0.00    -0.385 N 
HETATM   22  H   UNK N   1      26.157  15.785   5.806  0.00  0.00     0.157 HD
HETATM   23  H   UNK N   1      25.158  16.945   6.557  0.00  0.00     0.157 HD
ENDBRANCH   6  21
TORSDOF 6
ENDMDL
MODEL 5
REMARK VINA RESULT:      -5.4      3.680      5.144
REMARK  6 active torsions:
REMARK  status: ('A' for Active; 'I' for Inactive)
REMARK    1  A    between atoms: O_2  and  C_16 
REMARK    2  A    between atoms: N_3  and  C_10 
REMARK    3  A    between atoms: N_8  and  C_17 
REMARK    4  A    between atoms: C_10  and  C_13 
REMARK    5  A    between atoms: C_11  and  C_12 
REMARK    6  A    between atoms: C_12  and  C_16 
ROOT
HETATM    1  N   UNK N   1      35.181  16.879  10.492  0.00  0.00    -0.332 N 
ATOM      2  HN  UNK N   1      35.672  17.640  10.961  1.00  0.00     0.168 HD
HETATM    3  N   UNK N   1      34.447  14.648  10.479  0.00  0.00    -0.355 N 
ATOM      4  HN  UNK N   1      34.392  13.737  10.934  1.00  0.00     0.166 HD
HETATM    5  C   UNK N   1      33.931  16.058   8.618  0.00  0.00     0.019 A 
HETATM    6  C   UNK N   1      34.608  17.099   9.282  0.00  0.00     0.109 A 
HETATM    7  C   UNK N   1      33.857  14.831   9.271  0.00  0.00     0.102 A 
HETATM    8  C   UNK N   1      35.112  15.661  11.088  0.00  0.00     0.078 A 
HETATM    9  C   UNK N   1      35.758  15.440  12.407  0.00  0.00     0.089 C 
ENDROOT
BRANCH   5  10
HETATM   10  C   UNK N   1      33.312  16.352   7.263  0.00  0.00     0.172 C 
BRANCH  10  11
HETATM   11  N   UNK N   1      31.873  16.498   6.946  0.00  0.00    -0.349 N 
HETATM   12  C   UNK N   1      30.850  17.280   7.499  0.00  0.00     0.021 A 
HETATM   13  C   UNK N   1      29.592  17.094   6.903  0.00  0.00     0.008 A 
HETATM   14  C   UNK N   1      30.992  18.220   8.637  0.00  0.00     0.069 C 
HETATM   15  S   UNK N   1      29.797  15.959   5.736  0.00  0.00    -0.087 SA
HETATM   16  C   UNK N   1      31.415  15.697   5.942  0.00  0.00     0.141 A 
BRANCH  13  17
HETATM   17  C   UNK N   1      28.289  17.743   7.252  0.00  0.00     0.074 C 
BRANCH  17  18
HETATM   18  C   UNK N   1      27.685  17.138   8.507  0.00  0.00     0.169 C 
BRANCH  18  19
HETATM   19  O   UNK N   1      27.473  18.140   9.454  0.00  0.00    -0.401 OA
HETATM   20  H   UNK N   1      26.926  18.931   9.325  0.00  0.00     0.209 HD
ENDBRANCH  18  19
ENDBRANCH  17  18
ENDBRANCH  13  17
ENDBRANCH  10  11
ENDBRANCH   5  10
BRANCH   6  21
HETATM   21  N   UNK N   1      34.699  18.381   8.696  0.00  0.00    -0.385 N 
HETATM   22  H   UNK N   1      35.058  19.136   9.215  0.00  0.00     0.157 HD
HETATM   23  H   UNK N   1      34.402  18.519   7.767  0.00  0.00     0.157 HD
ENDBRANCH   6  21
TORSDOF 6
ENDMDL
MODEL 6
REMARK VINA RESULT:      -5.4      4.277      7.288
REMARK  6 active torsions:
REMARK  status: ('A' for Active; 'I' for Inactive)
REMARK    1  A    between atoms: O_2  and  C_16 
REMARK    2  A    between atoms: N_3  and  C_10 
REMARK    3  A    between atoms: N_8  and  C_17 
REMARK    4  A    between atoms: C_10  and  C_13 
REMARK    5  A    between atoms: C_11  and  C_12 
REMARK    6  A    between atoms: C_12  and  C_16 
ROOT
HETATM    1  N   UNK N   1      27.793  19.580   5.081  0.00  0.00    -0.332 N 
ATOM      2  HN  UNK N   1      27.620  19.998   4.167  1.00  0.00     0.168 HD
HETATM    3  N   UNK N   1      27.427  19.560   7.401  0.00  0.00    -0.355 N 
ATOM      4  HN  UNK N   1      26.984  19.964   8.226  1.00  0.00     0.166 HD
HETATM    5  C   UNK N   1      28.856  17.906   6.430  0.00  0.00     0.019 A 
HETATM    6  C   UNK N   1      28.601  18.493   5.176  0.00  0.00     0.109 A 
HETATM    7  C   UNK N   1      28.224  18.470   7.534  0.00  0.00     0.102 A 
HETATM    8  C   UNK N   1      27.214  20.119   6.184  0.00  0.00     0.078 A 
HETATM    9  C   UNK N   1      26.344  21.316   6.058  0.00  0.00     0.089 C 
ENDROOT
BRANCH   5  10
HETATM   10  C   UNK N   1      29.772  16.696   6.485  0.00  0.00     0.172 C 
BRANCH  10  11
HETATM   11  N   UNK N   1      31.232  16.687   6.730  0.00  0.00    -0.349 N 
HETATM   12  C   UNK N   1      32.048  17.352   7.654  0.00  0.00     0.021 A 
HETATM   13  C   UNK N   1      33.418  17.073   7.525  0.00  0.00     0.008 A 
HETATM   14  C   UNK N   1      31.589  18.312   8.687  0.00  0.00     0.069 C 
HETATM   15  S   UNK N   1      33.560  16.032   6.264  0.00  0.00    -0.087 SA
HETATM   16  C   UNK N   1      31.959  15.909   5.878  0.00  0.00     0.141 A 
BRANCH  13  17
HETATM   17  C   UNK N   1      34.561  17.618   8.322  0.00  0.00     0.074 C 
BRANCH  17  18
HETATM   18  C   UNK N   1      34.833  16.774   9.554  0.00  0.00     0.169 C 
BRANCH  18  19
HETATM   19  O   UNK N   1      35.687  17.462  10.415  0.00  0.00    -0.401 OA
HETATM   20  H   UNK N   1      35.690  17.391  11.383  0.00  0.00     0.209 HD
ENDBRANCH  18  19
ENDBRANCH  17  18
ENDBRANCH  13  17
ENDBRANCH  10  11
ENDBRANCH   5  10
BRANCH   6  21
HETATM   21  N   UNK N   1      29.182  17.959   4.005  0.00  0.00    -0.385 N 
HETATM   22  H   UNK N   1      29.623  17.080   4.030  0.00  0.00     0.157 HD
HETATM   23  H   UNK N   1      29.146  18.468   3.162  0.00  0.00     0.157 HD
ENDBRANCH   6  21
TORSDOF 6
ENDMDL
MODEL 7
REMARK VINA RESULT:      -5.4      6.865      9.348
REMARK  6 active torsions:
REMARK  status: ('A' for Active; 'I' for Inactive)
REMARK    1  A    between atoms: O_2  and  C_16 
REMARK    2  A    between atoms: N_3  and  C_10 
REMARK    3  A    between atoms: N_8  and  C_17 
REMARK    4  A    between atoms: C_10  and  C_13 
REMARK    5  A    between atoms: C_11  and  C_12 
REMARK    6  A    between atoms: C_12  and  C_16 
ROOT
HETATM    1  N   UNK N   1      34.701  12.115  14.457  0.00  0.00    -0.332 N 
ATOM      2  HN  UNK N   1      34.110  11.376  14.835  1.00  0.00     0.168 HD
HETATM    3  N   UNK N   1      36.135  13.941  14.811  0.00  0.00    -0.355 N 
ATOM      4  HN  UNK N   1      36.615  14.573  15.452  1.00  0.00     0.166 HD
HETATM    5  C   UNK N   1      35.651  13.255  12.572  0.00  0.00     0.019 A 
HETATM    6  C   UNK N   1      34.842  12.236  13.113  0.00  0.00     0.109 A 
HETATM    7  C   UNK N   1      36.305  14.089  13.473  0.00  0.00     0.102 A 
HETATM    8  C   UNK N   1      35.335  12.965  15.305  0.00  0.00     0.078 A 
HETATM    9  C   UNK N   1      35.155  12.823  16.772  0.00  0.00     0.089 C 
ENDROOT
BRANCH   5  10
HETATM   10  C   UNK N   1      35.771  13.352  11.061  0.00  0.00     0.172 C 
BRANCH  10  11
HETATM   11  N   UNK N   1      34.963  14.194  10.149  0.00  0.00    -0.349 N 
HETATM   12  C   UNK N   1      34.762  15.577  10.057  0.00  0.00     0.021 A 
HETATM   13  C   UNK N   1      33.877  15.968   9.039  0.00  0.00     0.008 A 
HETATM   14  C   UNK N   1      35.364  16.605  10.941  0.00  0.00     0.069 C 
HETATM   15  S   UNK N   1      33.370  14.586   8.314  0.00  0.00    -0.087 SA
HETATM   16  C   UNK N   1      34.231  13.511   9.225  0.00  0.00     0.141 A 
BRANCH  13  17
HETATM   17  C   UNK N   1      33.422  17.346   8.675  0.00  0.00     0.074 C 
BRANCH  17  18
HETATM   18  C   UNK N   1      34.501  18.107   7.923  0.00  0.00     0.169 C 
BRANCH  18  19
HETATM   19  O   UNK N   1      34.344  17.907   6.552  0.00  0.00    -0.401 OA
HETATM   20  H   UNK N   1      33.539  17.583   6.118  0.00  0.00     0.209 HD
ENDBRANCH  18  19
ENDBRANCH  17  18
ENDBRANCH  13  17
ENDBRANCH  10  11
ENDBRANCH   5  10
BRANCH   6  21
HETATM   21  N   UNK N   1      34.169  11.330  12.263  0.00  0.00    -0.385 N 
HETATM   22  H   UNK N   1      34.140  10.372  12.487  0.00  0.00     0.157 HD
HETATM   23  H   UNK N   1      33.730  11.658  11.444  0.00  0.00     0.157 HD
ENDBRANCH   6  21
TORSDOF 6
ENDMDL
MODEL 8
REMARK VINA RESULT:      -5.3      2.539      3.882
REMARK  6 active torsions:
REMARK  status: ('A' for Active; 'I' for Inactive)
REMARK    1  A    between atoms: O_2  and  C_16 
REMARK    2  A    between atoms: N_3  and  C_10 
REMARK    3  A    between atoms: N_8  and  C_17 
REMARK    4  A    between atoms: C_10  and  C_13 
REMARK    5  A    between atoms: C_11  and  C_12 
REMARK    6  A    between atoms: C_12  and  C_16 
ROOT
HETATM    1  N   UNK N   1      35.013  16.855  10.313  0.00  0.00    -0.332 N 
ATOM      2  HN  UNK N   1      35.768  17.476  10.602  1.00  0.00     0.168 HD
HETATM    3  N   UNK N   1      33.751  14.904  10.659  0.00  0.00    -0.355 N 
ATOM      4  HN  UNK N   1      33.563  14.062  11.202  1.00  0.00     0.166 HD
HETATM    5  C   UNK N   1      33.227  16.320   8.804  0.00  0.00     0.019 A 
HETATM    6  C   UNK N   1      34.271  17.168   9.221  0.00  0.00     0.109 A 
HETATM    7  C   UNK N   1      32.985  15.187   9.575  0.00  0.00     0.102 A 
HETATM    8  C   UNK N   1      34.764  15.727  11.027  0.00  0.00     0.078 A 
HETATM    9  C   UNK N   1      35.596  15.397  12.211  0.00  0.00     0.089 C 
ENDROOT
BRANCH   5  10
HETATM   10  C   UNK N   1      32.431  16.711   7.571  0.00  0.00     0.172 C 
BRANCH  10  11
HETATM   11  N   UNK N   1      31.064  17.280   7.529  0.00  0.00    -0.349 N 
HETATM   12  C   UNK N   1      30.106  17.380   6.512  0.00  0.00     0.021 A 
HETATM   13  C   UNK N   1      28.921  18.031   6.895  0.00  0.00     0.008 A 
HETATM   14  C   UNK N   1      30.262  16.901   5.117  0.00  0.00     0.069 C 
HETATM   15  S   UNK N   1      29.121  18.467   8.464  0.00  0.00    -0.087 SA
HETATM   16  C   UNK N   1      30.641  17.860   8.687  0.00  0.00     0.141 A 
BRANCH  13  17
HETATM   17  C   UNK N   1      27.710  18.327   6.068  0.00  0.00     0.074 C 
BRANCH  17  18
HETATM   18  C   UNK N   1      27.816  19.684   5.393  0.00  0.00     0.169 C 
BRANCH  18  19
HETATM   19  O   UNK N   1      28.073  19.511   4.033  0.00  0.00    -0.401 OA
HETATM   20  H   UNK N   1      28.569  18.774   3.642  0.00  0.00     0.209 HD
ENDBRANCH  18  19
ENDBRANCH  17  18
ENDBRANCH  13  17
ENDBRANCH  10  11
ENDBRANCH   5  10
BRANCH   6  21
HETATM   21  N   UNK N   1      34.559  18.353   8.507  0.00  0.00    -0.385 N 
HETATM   22  H   UNK N   1      35.195  19.008   8.873  0.00  0.00     0.157 HD
HETATM   23  H   UNK N   1      34.120  18.523   7.641  0.00  0.00     0.157 HD
ENDBRANCH   6  21
TORSDOF 6
ENDMDL
MODEL 9
REMARK VINA RESULT:      -5.3      6.382      9.055
REMARK  6 active torsions:
REMARK  status: ('A' for Active; 'I' for Inactive)
REMARK    1  A    between atoms: O_2  and  C_16 
REMARK    2  A    between atoms: N_3  and  C_10 
REMARK    3  A    between atoms: N_8  and  C_17 
REMARK    4  A    between atoms: C_10  and  C_13 
REMARK    5  A    between atoms: C_11  and  C_12 
REMARK    6  A    between atoms: C_12  and  C_16 
ROOT
HETATM    1  N   UNK N   1      35.316  12.342  13.604  0.00  0.00    -0.332 N 
ATOM      2  HN  UNK N   1      35.554  12.570  14.569  1.00  0.00     0.168 HD
HETATM    3  N   UNK N   1      34.079  11.061  12.073  0.00  0.00    -0.355 N 
ATOM      4  HN  UNK N   1      33.394  10.328  11.889  1.00  0.00     0.166 HD
HETATM    5  C   UNK N   1      35.596  12.716  11.252  0.00  0.00     0.019 A 
HETATM    6  C   UNK N   1      35.908  13.022  12.590  0.00  0.00     0.109 A 
HETATM    7  C   UNK N   1      34.646  11.723  11.034  0.00  0.00     0.102 A 
HETATM    8  C   UNK N   1      34.412  11.361  13.352  0.00  0.00     0.078 A 
HETATM    9  C   UNK N   1      33.786  10.619  14.477  0.00  0.00     0.089 C 
ENDROOT
BRANCH   5  10
HETATM   10  C   UNK N   1      36.291  13.502  10.153  0.00  0.00     0.172 C 
BRANCH  10  11
HETATM   11  N   UNK N   1      35.703  14.553   9.292  0.00  0.00    -0.349 N 
HETATM   12  C   UNK N   1      35.265  15.859   9.548  0.00  0.00     0.021 A 
HETATM   13  C   UNK N   1      34.737  16.523   8.428  0.00  0.00     0.008 A 
HETATM   14  C   UNK N   1      35.289  16.544  10.863  0.00  0.00     0.069 C 
HETATM   15  S   UNK N   1      34.818  15.460   7.181  0.00  0.00    -0.087 SA
HETATM   16  C   UNK N   1      35.503  14.195   7.992  0.00  0.00     0.141 A 
BRANCH  13  17
HETATM   17  C   UNK N   1      34.166  17.904   8.345  0.00  0.00     0.074 C 
BRANCH  17  18
HETATM   18  C   UNK N   1      32.690  17.875   7.989  0.00  0.00     0.169 C 
BRANCH  18  19
HETATM   19  O   UNK N   1      31.950  17.453   9.093  0.00  0.00    -0.401 OA
HETATM   20  H   UNK N   1      32.273  16.869   9.798  0.00  0.00     0.209 HD
ENDBRANCH  18  19
ENDBRANCH  17  18
ENDBRANCH  13  17
ENDBRANCH  10  11
ENDBRANCH   5  10
BRANCH   6  21
HETATM   21  N   UNK N   1      36.841  14.039  12.893  0.00  0.00    -0.385 N 
HETATM   22  H   UNK N   1      36.559  14.982  12.898  0.00  0.00     0.157 HD
HETATM   23  H   UNK N   1      37.775  13.804  13.099  0.00  0.00     0.157 HD
ENDBRANCH   6  21
TORSDOF 6
ENDMDL
