MODEL 1
REMARK VINA RESULT:      -4.3      0.000      0.000
REMARK  3 active torsions:
REMARK  status: ('A' for Active; 'I' for Inactive)
REMARK    1  A    between atoms: O_1  and  C_10 
REMARK    2  A    between atoms: N_3  and  C_7 
REMARK       I    between atoms: N_3  and  C_9 
REMARK       I    between atoms: N_4  and  C_9 
REMARK    3  A    between atoms: C_7  and  C_10 
ROOT
HETATM    1  N   UNK N   1      35.024  15.922   9.090  0.00  0.00    -0.213 N 
HETATM    2  N   UNK N   1      36.577  15.308  10.906  0.00  0.00    -0.235 N 
HETATM    3  N   UNK N   1      35.208  17.185  11.067  0.00  0.00    -0.235 N 
ATOM      4  HN  UNK N   1      34.497  17.815  10.697  1.00  0.00     0.174 HD
HETATM    5  C   UNK N   1      35.476  14.772   8.338  0.00  0.00     0.169 C 
HETATM    6  C   UNK N   1      35.590  16.171  10.377  0.00  0.00     0.667 C 
HETATM    7  H   UNK N   1      36.878  14.528  10.387  0.00  0.00     0.174 HD
HETATM    8  H   UNK N   1      36.962  15.487  11.794  0.00  0.00     0.174 HD
HETATM    9  H   UNK N   1      35.602  17.352  11.954  0.00  0.00     0.174 HD
ENDROOT
BRANCH   1  10
HETATM   10  C   UNK N   1      34.008  16.841   8.585  0.00  0.00     0.250 C 
BRANCH  10  11
HETATM   11  C   UNK N   1      34.435  18.037   7.765  0.00  0.00     0.158 C 
HETATM   12  O   UNK N   1      34.288  18.085   6.555  0.00  0.00    -0.649 OA
BRANCH  11  13
HETATM   13  O   UNK N   1      34.998  19.082   8.401  0.00  0.00    -0.775 OA
HETATM   14  H   UNK N   1      35.685  18.938   9.021  0.00  0.00     0.167 HD
ENDBRANCH  11  13
ENDBRANCH  10  11
ENDBRANCH   1  10
TORSDOF 3
ENDMDL
MODEL 2
REMARK VINA RESULT:      -4.3     15.129     16.058
REMARK  3 active torsions:
REMARK  status: ('A' for Active; 'I' for Inactive)
REMARK    1  A    between atoms: O_1  and  C_10 
REMARK    2  A    between atoms: N_3  and  C_7 
REMARK       I    between atoms: N_3  and  C_9 
REMARK       I    between atoms: N_4  and  C_9 
REMARK    3  A    between atoms: C_7  and  C_10 
ROOT
HETATM    1  N   UNK N   1      20.515  18.859   3.691  0.00  0.00    -0.213 N 
HETATM    2  N   UNK N   1      19.593  16.628   3.180  0.00  0.00    -0.235 N 
HETATM    3  N   UNK N   1      18.747  18.548   2.169  0.00  0.00    -0.235 N 
ATOM      4  HN  UNK N   1      18.735  19.556   2.021  1.00  0.00     0.174 HD
HETATM    5  C   UNK N   1      21.452  18.244   4.603  0.00  0.00     0.169 C 
HETATM    6  C   UNK N   1      19.591  18.029   2.986  0.00  0.00     0.667 C 
HETATM    7  H   UNK N   1      20.235  16.218   3.803  0.00  0.00     0.174 HD
HETATM    8  H   UNK N   1      18.953  16.063   2.691  0.00  0.00     0.174 HD
HETATM    9  H   UNK N   1      18.112  17.971   1.687  0.00  0.00     0.174 HD
ENDROOT
BRANCH   1  10
HETATM   10  C   UNK N   1      20.475  20.300   3.458  0.00  0.00     0.250 C 
BRANCH  10  11
HETATM   11  C   UNK N   1      21.367  20.903   2.397  0.00  0.00     0.158 C 
HETATM   12  O   UNK N   1      21.266  20.612   1.217  0.00  0.00    -0.649 OA
BRANCH  11  13
HETATM   13  O   UNK N   1      22.304  21.792   2.777  0.00  0.00    -0.775 OA
HETATM   14  H   UNK N   1      22.566  22.475   2.192  0.00  0.00     0.167 HD
ENDBRANCH  11  13
ENDBRANCH  10  11
ENDBRANCH   1  10
TORSDOF 3
ENDMDL
MODEL 3
REMARK VINA RESULT:      -4.2      1.119      1.531
REMARK  3 active torsions:
REMARK  status: ('A' for Active; 'I' for Inactive)
REMARK    1  A    between atoms: O_1  and  C_10 
REMARK    2  A    between atoms: N_3  and  C_7 
REMARK       I    between atoms: N_3  and  C_9 
REMARK       I    between atoms: N_4  and  C_9 
REMARK    3  A    between atoms: C_7  and  C_10 
ROOT
HETATM    1  N   UNK N   1      33.792  16.138   9.217  0.00  0.00    -0.213 N 
HETATM    2  N   UNK N   1      35.030  14.676  10.771  0.00  0.00    -0.235 N 
HETATM    3  N   UNK N   1      35.161  16.995  10.929  0.00  0.00    -0.235 N 
ATOM      4  HN  UNK N   1      34.914  17.934  10.618  1.00  0.00     0.174 HD
HETATM    5  C   UNK N   1      33.264  14.964   8.560  0.00  0.00     0.169 C 
HETATM    6  C   UNK N   1      34.676  15.970  10.326  0.00  0.00     0.667 C 
HETATM    7  H   UNK N   1      34.665  13.882  10.317  0.00  0.00     0.174 HD
HETATM    8  H   UNK N   1      35.640  14.568  11.536  0.00  0.00     0.174 HD
HETATM    9  H   UNK N   1      35.770  16.873  11.692  0.00  0.00     0.174 HD
ENDROOT
BRANCH   1  10
HETATM   10  C   UNK N   1      33.455  17.495   8.793  0.00  0.00     0.250 C 
BRANCH  10  11
HETATM   11  C   UNK N   1      34.450  18.279   7.968  0.00  0.00     0.158 C 
HETATM   12  O   UNK N   1      35.206  19.098   8.462  0.00  0.00    -0.649 OA
BRANCH  11  13
HETATM   13  O   UNK N   1      34.496  18.059   6.640  0.00  0.00    -0.775 OA
HETATM   14  H   UNK N   1      33.982  17.372   6.262  0.00  0.00     0.167 HD
ENDBRANCH  11  13
ENDBRANCH  10  11
ENDBRANCH   1  10
TORSDOF 3
ENDMDL
MODEL 4
REMARK VINA RESULT:      -4.1     15.507     16.498
REMARK  3 active torsions:
REMARK  status: ('A' for Active; 'I' for Inactive)
REMARK    1  A    between atoms: O_1  and  C_10 
REMARK    2  A    between atoms: N_3  and  C_7 
REMARK       I    between atoms: N_3  and  C_9 
REMARK       I    between atoms: N_4  and  C_9 
REMARK    3  A    between atoms: C_7  and  C_10 
ROOT
HETATM    1  N   UNK N   1      20.615  18.023   2.382  0.00  0.00    -0.213 N 
HETATM    2  N   UNK N   1      20.532  15.688   1.591  0.00  0.00    -0.235 N 
HETATM    3  N   UNK N   1      19.252  17.352   0.585  0.00  0.00    -0.235 N 
ATOM      4  HN  UNK N   1      18.935  18.317   0.501  1.00  0.00     0.174 HD
HETATM    5  C   UNK N   1      21.574  17.630   3.389  0.00  0.00     0.169 C 
HETATM    6  C   UNK N   1      20.105  17.032   1.489  0.00  0.00     0.667 C 
HETATM    7  H   UNK N   1      21.186  15.429   2.280  0.00  0.00     0.174 HD
HETATM    8  H   UNK N   1      20.176  15.010   0.972  0.00  0.00     0.174 HD
HETATM    9  H   UNK N   1      18.904  16.664  -0.027  0.00  0.00     0.174 HD
ENDROOT
BRANCH   1  10
HETATM   10  C   UNK N   1      20.144  19.398   2.239  0.00  0.00     0.250 C 
BRANCH  10  11
HETATM   11  C   UNK N   1      20.890  20.344   1.326  0.00  0.00     0.158 C 
HETATM   12  O   UNK N   1      21.758  21.098   1.736  0.00  0.00    -0.649 OA
BRANCH  11  13
HETATM   13  O   UNK N   1      20.581  20.348   0.016  0.00  0.00    -0.775 OA
HETATM   14  H   UNK N   1      21.244  20.174  -0.622  0.00  0.00     0.167 HD
ENDBRANCH  11  13
ENDBRANCH  10  11
ENDBRANCH   1  10
TORSDOF 3
ENDMDL
MODEL 5
REMARK VINA RESULT:      -4.0      1.593      2.289
REMARK  3 active torsions:
REMARK  status: ('A' for Active; 'I' for Inactive)
REMARK    1  A    between atoms: O_1  and  C_10 
REMARK    2  A    between atoms: N_3  and  C_7 
REMARK       I    between atoms: N_3  and  C_9 
REMARK       I    between atoms: N_4  and  C_9 
REMARK    3  A    between atoms: C_7  and  C_10 
ROOT
HETATM    1  N   UNK N   1      34.244  16.301   9.811  0.00  0.00    -0.213 N 
HETATM    2  N   UNK N   1      34.173  14.125  10.972  0.00  0.00    -0.235 N 
HETATM    3  N   UNK N   1      32.443  14.805   9.569  0.00  0.00    -0.235 N 
ATOM      4  HN  UNK N   1      32.007  15.477   8.938  1.00  0.00     0.174 HD
HETATM    5  C   UNK N   1      35.526  16.566  10.426  0.00  0.00     0.169 C 
HETATM    6  C   UNK N   1      33.583  15.068  10.100  0.00  0.00     0.667 C 
HETATM    7  H   UNK N   1      35.045  14.314  11.386  0.00  0.00     0.174 HD
HETATM    8  H   UNK N   1      33.710  13.278  11.166  0.00  0.00     0.174 HD
HETATM    9  H   UNK N   1      31.992  13.954   9.771  0.00  0.00     0.174 HD
ENDROOT
BRANCH   1  10
HETATM   10  C   UNK N   1      33.596  17.244   8.904  0.00  0.00     0.250 C 
BRANCH  10  11
HETATM   11  C   UNK N   1      34.449  18.102   7.997  0.00  0.00     0.158 C 
HETATM   12  O   UNK N   1      34.989  19.125   8.385  0.00  0.00    -0.649 OA
BRANCH  11  13
HETATM   13  O   UNK N   1      34.613  17.715   6.719  0.00  0.00    -0.775 OA
HETATM   14  H   UNK N   1      34.451  18.320   6.022  0.00  0.00     0.167 HD
ENDBRANCH  11  13
ENDBRANCH  10  11
ENDBRANCH   1  10
TORSDOF 3
ENDMDL
MODEL 6
REMARK VINA RESULT:      -4.0     13.357     14.003
REMARK  3 active torsions:
REMARK  status: ('A' for Active; 'I' for Inactive)
REMARK    1  A    between atoms: O_1  and  C_10 
REMARK    2  A    between atoms: N_3  and  C_7 
REMARK       I    between atoms: N_3  and  C_9 
REMARK       I    between atoms: N_4  and  C_9 
REMARK    3  A    between atoms: C_7  and  C_10 
ROOT
HETATM    1  N   UNK N   1      22.198  12.730   9.938  0.00  0.00    -0.213 N 
HETATM    2  N   UNK N   1      20.112  14.043   9.821  0.00  0.00    -0.235 N 
HETATM    3  N   UNK N   1      20.378  12.330  11.376  0.00  0.00    -0.235 N 
ATOM      4  HN  UNK N   1      20.921  11.584  11.809  1.00  0.00     0.174 HD
HETATM    5  C   UNK N   1      22.733  13.516   8.849  0.00  0.00     0.169 C 
HETATM    6  C   UNK N   1      20.880  13.012  10.410  0.00  0.00     0.667 C 
HETATM    7  H   UNK N   1      20.485  14.572   9.079  0.00  0.00     0.174 HD
HETATM    8  H   UNK N   1      19.204  14.230  10.151  0.00  0.00     0.174 HD
HETATM    9  H   UNK N   1      19.469  12.529  11.697  0.00  0.00     0.174 HD
ENDROOT
BRANCH   1  10
HETATM   10  C   UNK N   1      22.953  11.656  10.578  0.00  0.00     0.250 C 
BRANCH  10  11
HETATM   11  C   UNK N   1      23.716  11.945  11.850  0.00  0.00     0.158 C 
HETATM   12  O   UNK N   1      23.190  11.904  12.950  0.00  0.00    -0.649 OA
BRANCH  11  13
HETATM   13  O   UNK N   1      25.022  12.259  11.756  0.00  0.00    -0.775 OA
HETATM   14  H   UNK N   1      25.630  11.921  12.383  0.00  0.00     0.167 HD
ENDBRANCH  11  13
ENDBRANCH  10  11
ENDBRANCH   1  10
TORSDOF 3
ENDMDL
MODEL 7
REMARK VINA RESULT:      -4.0      2.669      3.559
REMARK  3 active torsions:
REMARK  status: ('A' for Active; 'I' for Inactive)
REMARK    1  A    between atoms: O_1  and  C_10 
REMARK    2  A    between atoms: N_3  and  C_7 
REMARK       I    between atoms: N_3  and  C_9 
REMARK       I    between atoms: N_4  and  C_9 
REMARK    3  A    between atoms: C_7  and  C_10 
ROOT
HETATM    1  N   UNK N   1      34.229  14.571   9.691  0.00  0.00    -0.213 N 
HETATM    2  N   UNK N   1      32.373  13.809   8.255  0.00  0.00    -0.235 N 
HETATM    3  N   UNK N   1      31.994  15.184  10.095  0.00  0.00    -0.235 N 
ATOM      4  HN  UNK N   1      32.316  15.717  10.903  1.00  0.00     0.174 HD
HETATM    5  C   UNK N   1      35.154  13.838   8.856  0.00  0.00     0.169 C 
HETATM    6  C   UNK N   1      32.838  14.542   9.371  0.00  0.00     0.667 C 
HETATM    7  H   UNK N   1      33.010  13.313   7.692  0.00  0.00     0.174 HD
HETATM    8  H   UNK N   1      31.413  13.794   8.042  0.00  0.00     0.174 HD
HETATM    9  H   UNK N   1      31.036  15.161   9.870  0.00  0.00     0.174 HD
ENDROOT
BRANCH   1  10
HETATM   10  C   UNK N   1      34.662  15.342  10.853  0.00  0.00     0.250 C 
BRANCH  10  11
HETATM   11  C   UNK N   1      35.737  16.391  10.685  0.00  0.00     0.158 C 
HETATM   12  O   UNK N   1      35.486  17.534  10.338  0.00  0.00    -0.649 OA
BRANCH  11  13
HETATM   13  O   UNK N   1      37.015  16.044  10.929  0.00  0.00    -0.775 OA
HETATM   14  H   UNK N   1      37.207  15.227  11.346  0.00  0.00     0.167 HD
ENDBRANCH  11  13
ENDBRANCH  10  11
ENDBRANCH   1  10
TORSDOF 3
ENDMDL
MODEL 8
REMARK VINA RESULT:      -4.0      2.326      2.771
REMARK  3 active torsions:
REMARK  status: ('A' for Active; 'I' for Inactive)
REMARK    1  A    between atoms: O_1  and  C_10 
REMARK    2  A    between atoms: N_3  and  C_7 
REMARK       I    between atoms: N_3  and  C_9 
REMARK       I    between atoms: N_4  and  C_9 
REMARK    3  A    between atoms: C_7  and  C_10 
ROOT
HETATM    1  N   UNK N   1      32.638  15.830   8.277  0.00  0.00    -0.213 N 
HETATM    2  N   UNK N   1      32.472  13.495   9.057  0.00  0.00    -0.235 N 
HETATM    3  N   UNK N   1      33.007  15.225  10.521  0.00  0.00    -0.235 N 
ATOM      4  HN  UNK N   1      33.185  16.207  10.727  1.00  0.00     0.174 HD
HETATM    5  C   UNK N   1      32.307  15.388   6.940  0.00  0.00     0.169 C 
HETATM    6  C   UNK N   1      32.716  14.862   9.324  0.00  0.00     0.667 C 
HETATM    7  H   UNK N   1      32.248  13.204   8.144  0.00  0.00     0.174 HD
HETATM    8  H   UNK N   1      32.528  12.834   9.784  0.00  0.00     0.174 HD
HETATM    9  H   UNK N   1      33.059  14.553  11.239  0.00  0.00     0.174 HD
ENDROOT
BRANCH   1  10
HETATM   10  C   UNK N   1      32.898  17.230   8.601  0.00  0.00     0.250 C 
BRANCH  10  11
HETATM   11  C   UNK N   1      34.309  17.762   8.502  0.00  0.00     0.158 C 
HETATM   12  O   UNK N   1      34.721  18.341   7.510  0.00  0.00    -0.649 OA
BRANCH  11  13
HETATM   13  O   UNK N   1      35.134  17.587   9.551  0.00  0.00    -0.775 OA
HETATM   14  H   UNK N   1      36.045  17.420   9.407  0.00  0.00     0.167 HD
ENDBRANCH  11  13
ENDBRANCH  10  11
ENDBRANCH   1  10
TORSDOF 3
ENDMDL
MODEL 9
REMARK VINA RESULT:      -3.8      3.155      4.295
REMARK  3 active torsions:
REMARK  status: ('A' for Active; 'I' for Inactive)
REMARK    1  A    between atoms: O_1  and  C_10 
REMARK    2  A    between atoms: N_3  and  C_7 
REMARK       I    between atoms: N_3  and  C_9 
REMARK       I    between atoms: N_4  and  C_9 
REMARK    3  A    between atoms: C_7  and  C_10 
ROOT
HETATM    1  N   UNK N   1      31.852  17.492   8.282  0.00  0.00    -0.213 N 
HETATM    2  N   UNK N   1      30.028  16.559   6.907  0.00  0.00    -0.235 N 
HETATM    3  N   UNK N   1      32.191  15.706   6.788  0.00  0.00    -0.235 N 
ATOM      4  HN  UNK N   1      33.171  15.695   7.069  1.00  0.00     0.174 HD
HETATM    5  C   UNK N   1      30.917  18.439   8.848  0.00  0.00     0.169 C 
HETATM    6  C   UNK N   1      31.384  16.558   7.309  0.00  0.00     0.667 C 
HETATM    7  H   UNK N   1      29.399  17.207   7.299  0.00  0.00     0.174 HD
HETATM    8  H   UNK N   1      29.713  15.912   6.236  0.00  0.00     0.174 HD
HETATM    9  H   UNK N   1      31.863  15.064   6.118  0.00  0.00     0.174 HD
ENDROOT
BRANCH   1  10
HETATM   10  C   UNK N   1      33.260  17.453   8.665  0.00  0.00     0.250 C 
BRANCH  10  11
HETATM   11  C   UNK N   1      34.277  18.183   7.817  0.00  0.00     0.158 C 
HETATM   12  O   UNK N   1      34.471  17.903   6.645  0.00  0.00    -0.649 OA
BRANCH  11  13
HETATM   13  O   UNK N   1      34.990  19.174   8.383  0.00  0.00    -0.775 OA
HETATM   14  H   UNK N   1      35.536  18.995   9.123  0.00  0.00     0.167 HD
ENDBRANCH  11  13
ENDBRANCH  10  11
ENDBRANCH   1  10
TORSDOF 3
ENDMDL
