MODEL 1
REMARK VINA RESULT:      -3.8      0.000      0.000
REMARK  2 active torsions:
REMARK  status: ('A' for Active; 'I' for Inactive)
REMARK    1  A    between atoms: O_1  and  C_6 
REMARK    2  A    between atoms: C_4  and  C_6 
ROOT
HETATM    1  O   UNK N   1      20.909  20.281   0.081  0.00  0.00    -0.644 OA
HETATM    2  C   UNK N   1      20.835  21.116   0.968  0.00  0.00     0.213 C 
ENDROOT
BRANCH   2   3
HETATM    3  O   UNK N   1      20.400  22.358   0.679  0.00  0.00    -0.771 OA
HETATM    4  H   UNK N   1      20.438  23.031   1.329  0.00  0.00     0.167 HD
ENDBRANCH   2   3
BRANCH   2   5
HETATM    5  C   UNK N   1      21.220  20.770   2.350  0.00  0.00     0.218 C 
HETATM    6  O   UNK N   1      22.250  21.215   2.828  0.00  0.00    -0.286 OA
HETATM    7  C   UNK N   1      20.355  19.875   3.175  0.00  0.00     0.103 C 
ENDBRANCH   2   5
TORSDOF 2
ENDMDL
MODEL 2
REMARK VINA RESULT:      -3.7      1.346      2.489
REMARK  2 active torsions:
REMARK  status: ('A' for Active; 'I' for Inactive)
REMARK    1  A    between atoms: O_1  and  C_6 
REMARK    2  A    between atoms: C_4  and  C_6 
ROOT
HETATM    1  O   UNK N   1      20.389  20.608   3.748  0.00  0.00    -0.644 OA
HETATM    2  C   UNK N   1      21.080  20.840   2.769  0.00  0.00     0.213 C 
ENDROOT
BRANCH   2   3
HETATM    3  O   UNK N   1      22.003  21.820   2.822  0.00  0.00    -0.771 OA
HETATM    4  H   UNK N   1      21.740  22.716   2.742  0.00  0.00     0.167 HD
ENDBRANCH   2   3
BRANCH   2   5
HETATM    5  C   UNK N   1      20.909  20.051   1.534  0.00  0.00     0.218 C 
HETATM    6  O   UNK N   1      21.188  20.540   0.452  0.00  0.00    -0.286 OA
HETATM    7  C   UNK N   1      20.394  18.651   1.595  0.00  0.00     0.103 C 
ENDBRANCH   2   5
TORSDOF 2
ENDMDL
MODEL 3
REMARK VINA RESULT:      -3.7     13.824     14.992
REMARK  2 active torsions:
REMARK  status: ('A' for Active; 'I' for Inactive)
REMARK    1  A    between atoms: O_1  and  C_6 
REMARK    2  A    between atoms: C_4  and  C_6 
ROOT
HETATM    1  O   UNK N   1      35.262  19.122   8.449  0.00  0.00    -0.644 OA
HETATM    2  C   UNK N   1      34.493  18.174   8.463  0.00  0.00     0.213 C 
ENDROOT
BRANCH   2   3
HETATM    3  O   UNK N   1      34.346  17.452   9.591  0.00  0.00    -0.771 OA
HETATM    4  H   UNK N   1      34.994  17.500  10.266  0.00  0.00     0.167 HD
ENDBRANCH   2   3
BRANCH   2   5
HETATM    5  C   UNK N   1      33.726  17.820   7.253  0.00  0.00     0.218 C 
HETATM    6  O   UNK N   1      34.248  17.900   6.154  0.00  0.00    -0.286 OA
HETATM    7  C   UNK N   1      32.309  17.362   7.361  0.00  0.00     0.103 C 
ENDBRANCH   2   5
TORSDOF 2
ENDMDL
MODEL 4
REMARK VINA RESULT:      -3.7     15.112     15.802
REMARK  2 active torsions:
REMARK  status: ('A' for Active; 'I' for Inactive)
REMARK    1  A    between atoms: O_1  and  C_6 
REMARK    2  A    between atoms: C_4  and  C_6 
ROOT
HETATM    1  O   UNK N   1      34.373  18.103   7.112  0.00  0.00    -0.644 OA
HETATM    2  C   UNK N   1      34.795  18.261   8.247  0.00  0.00     0.213 C 
ENDROOT
BRANCH   2   3
HETATM    3  O   UNK N   1      35.374  19.430   8.585  0.00  0.00    -0.771 OA
HETATM    4  H   UNK N   1      36.302  19.532   8.510  0.00  0.00     0.167 HD
ENDBRANCH   2   3
BRANCH   2   5
HETATM    5  C   UNK N   1      34.671  17.181   9.244  0.00  0.00     0.218 C 
HETATM    6  O   UNK N   1      35.370  17.188  10.243  0.00  0.00    -0.286 OA
HETATM    7  C   UNK N   1      33.692  16.072   9.041  0.00  0.00     0.103 C 
ENDBRANCH   2   5
TORSDOF 2
ENDMDL
MODEL 5
REMARK VINA RESULT:      -3.5     15.086     16.008
REMARK  2 active torsions:
REMARK  status: ('A' for Active; 'I' for Inactive)
REMARK    1  A    between atoms: O_1  and  C_6 
REMARK    2  A    between atoms: C_4  and  C_6 
ROOT
HETATM    1  O   UNK N   1      34.956  15.855   8.916  0.00  0.00    -0.644 OA
HETATM    2  C   UNK N   1      34.841  16.998   9.329  0.00  0.00     0.213 C 
ENDROOT
BRANCH   2   3
HETATM    3  O   UNK N   1      34.939  17.242  10.650  0.00  0.00    -0.771 OA
HETATM    4  H   UNK N   1      34.178  17.481  11.141  0.00  0.00     0.167 HD
ENDBRANCH   2   3
BRANCH   2   5
HETATM    5  C   UNK N   1      34.594  18.108   8.388  0.00  0.00     0.218 C 
HETATM    6  O   UNK N   1      35.227  19.146   8.488  0.00  0.00    -0.286 OA
HETATM    7  C   UNK N   1      33.572  17.973   7.308  0.00  0.00     0.103 C 
ENDBRANCH   2   5
TORSDOF 2
ENDMDL
MODEL 6
REMARK VINA RESULT:      -3.5     12.998     13.811
REMARK  2 active torsions:
REMARK  status: ('A' for Active; 'I' for Inactive)
REMARK    1  A    between atoms: O_1  and  C_6 
REMARK    2  A    between atoms: C_4  and  C_6 
ROOT
HETATM    1  O   UNK N   1      23.574  12.010  13.313  0.00  0.00    -0.644 OA
HETATM    2  C   UNK N   1      23.808  12.087  12.117  0.00  0.00     0.213 C 
ENDROOT
BRANCH   2   3
HETATM    3  O   UNK N   1      25.067  12.321  11.698  0.00  0.00    -0.771 OA
HETATM    4  H   UNK N   1      25.427  13.184  11.756  0.00  0.00     0.167 HD
ENDBRANCH   2   3
BRANCH   2   5
HETATM    5  C   UNK N   1      22.719  11.925  11.135  0.00  0.00     0.218 C 
HETATM    6  O   UNK N   1      21.562  12.124  11.466  0.00  0.00    -0.286 OA
HETATM    7  C   UNK N   1      23.021  11.518   9.730  0.00  0.00     0.103 C 
ENDBRANCH   2   5
TORSDOF 2
ENDMDL
MODEL 7
REMARK VINA RESULT:      -3.4      1.409      2.179
REMARK  2 active torsions:
REMARK  status: ('A' for Active; 'I' for Inactive)
REMARK    1  A    between atoms: O_1  and  C_6 
REMARK    2  A    between atoms: C_4  and  C_6 
ROOT
HETATM    1  O   UNK N   1      21.378  21.346   1.831  0.00  0.00    -0.644 OA
HETATM    2  C   UNK N   1      20.882  20.400   1.238  0.00  0.00     0.213 C 
ENDROOT
BRANCH   2   3
HETATM    3  O   UNK N   1      20.599  20.512  -0.074  0.00  0.00    -0.771 OA
HETATM    4  H   UNK N   1      19.798  20.162  -0.412  0.00  0.00     0.167 HD
ENDBRANCH   2   3
BRANCH   2   5
HETATM    5  C   UNK N   1      20.593  19.143   1.953  0.00  0.00     0.218 C 
HETATM    6  O   UNK N   1      20.308  18.135   1.328  0.00  0.00    -0.286 OA
HETATM    7  C   UNK N   1      20.647  19.090   3.445  0.00  0.00     0.103 C 
ENDBRANCH   2   5
TORSDOF 2
ENDMDL
MODEL 8
REMARK VINA RESULT:      -3.4      2.634      3.171
REMARK  2 active torsions:
REMARK  status: ('A' for Active; 'I' for Inactive)
REMARK    1  A    between atoms: O_1  and  C_6 
REMARK    2  A    between atoms: C_4  and  C_6 
ROOT
HETATM    1  O   UNK N   1      19.758  17.684   3.333  0.00  0.00    -0.644 OA
HETATM    2  C   UNK N   1      19.370  18.724   2.824  0.00  0.00     0.213 C 
ENDROOT
BRANCH   2   3
HETATM    3  O   UNK N   1      18.145  18.775   2.265  0.00  0.00    -0.771 OA
HETATM    4  H   UNK N   1      17.675  19.585   2.238  0.00  0.00     0.167 HD
ENDBRANCH   2   3
BRANCH   2   5
HETATM    5  C   UNK N   1      20.234  19.919   2.822  0.00  0.00     0.218 C 
HETATM    6  O   UNK N   1      20.408  20.550   3.851  0.00  0.00    -0.286 OA
HETATM    7  C   UNK N   1      20.902  20.368   1.565  0.00  0.00     0.103 C 
ENDBRANCH   2   5
TORSDOF 2
ENDMDL
MODEL 9
REMARK VINA RESULT:      -3.4     14.008     14.948
REMARK  2 active torsions:
REMARK  status: ('A' for Active; 'I' for Inactive)
REMARK    1  A    between atoms: O_1  and  C_6 
REMARK    2  A    between atoms: C_4  and  C_6 
ROOT
HETATM    1  O   UNK N   1      34.299  17.603   6.170  0.00  0.00    -0.644 OA
HETATM    2  C   UNK N   1      33.806  17.846   7.260  0.00  0.00     0.213 C 
ENDROOT
BRANCH   2   3
HETATM    3  O   UNK N   1      32.465  17.863   7.395  0.00  0.00    -0.771 OA
HETATM    4  H   UNK N   1      32.081  17.919   8.248  0.00  0.00     0.167 HD
ENDBRANCH   2   3
BRANCH   2   5
HETATM    5  C   UNK N   1      34.670  18.119   8.424  0.00  0.00     0.218 C 
HETATM    6  O   UNK N   1      35.262  19.181   8.510  0.00  0.00    -0.286 OA
HETATM    7  C   UNK N   1      34.828  17.101   9.505  0.00  0.00     0.103 C 
ENDBRANCH   2   5
TORSDOF 2
ENDMDL
