MODEL 1
REMARK VINA RESULT:      -8.3      0.000      0.000
REMARK  17 active torsions:
REMARK  status: ('A' for Active; 'I' for Inactive)
REMARK    1  A    between atoms: P_1  and  O_9 
REMARK    2  A    between atoms: P_1  and  O_11 
REMARK    3  A    between atoms: P_1  and  O_12 
REMARK    4  A    between atoms: P_2  and  O_10 
REMARK    5  A    between atoms: P_2  and  O_11 
REMARK    6  A    between atoms: P_2  and  O_13 
REMARK    7  A    between atoms: C_27  and  O_5 
REMARK    8  A    between atoms: C_31  and  O_7 
REMARK    9  A    between atoms: C_32  and  O_8 
REMARK   10  A    between atoms: O_9  and  C_35 
REMARK   11  A    between atoms: O_10  and  C_36 
REMARK   12  A    between atoms: C_30  and  N_17 
REMARK   13  A    between atoms: C_34  and  N_18 
REMARK   14  A    between atoms: N_25  and  C_45 
REMARK       I    between atoms: N_26  and  C_46 
REMARK   15  A    between atoms: C_29  and  C_35 
REMARK   16  A    between atoms: C_33  and  C_36 
REMARK   17  A    between atoms: C_42  and  C_46 
ROOT
HETATM    1  O   UNK N   1      33.873  10.835  14.417  0.00  0.00    -0.353 OA
HETATM    2  O   UNK N   1      36.765  10.785  14.296  0.00  0.00    -0.388 OA
HETATM    3  C   UNK N   1      35.233   9.559  12.972  0.00  0.00     0.182 C 
HETATM    4  C   UNK N   1      35.935   9.656  14.290  0.00  0.00     0.198 C 
HETATM    5  C   UNK N   1      34.192  10.678  13.048  0.00  0.00     0.180 C 
HETATM    6  C   UNK N   1      34.688   9.916  15.117  0.00  0.00     0.262 C 
HETATM    7  H   UNK N   1      37.253  11.619  14.214  0.00  0.00     0.210 HD
ENDROOT
BRANCH   3   8
HETATM    8  O   UNK N   1      36.098   9.654  11.878  0.00  0.00    -0.390 OA
HETATM    9  H   UNK N   1      37.045   9.452  11.928  0.00  0.00     0.210 HD
ENDBRANCH   3   8
BRANCH   6  10
HETATM   10  N   UNK N   1      34.911  10.330  16.511  0.00  0.00    -0.297 N 
HETATM   11  C   UNK N   1      35.010  11.553  17.065  0.00  0.00     0.142 A 
HETATM   12  N   UNK N   1      34.916  12.763  16.463  0.00  0.00    -0.336 N 
HETATM   13  C   UNK N   1      35.263  11.423  18.384  0.00  0.00     0.122 A 
HETATM   14  C   UNK N   1      35.072  13.884  17.236  0.00  0.00     0.183 A 
ATOM     15  HN  UNK N   1      34.735  12.838  15.463  1.00  0.00     0.168 HD
HETATM   16  N   UNK N   1      35.323  13.772  18.583  0.00  0.00    -0.337 N 
HETATM   17  C   UNK N   1      35.424  12.548  19.178  0.00  0.00     0.131 A 
ATOM     18  HN  UNK N   1      35.436  14.615  19.145  1.00  0.00     0.168 HD
HETATM   19  N   UNK N   1      35.332  10.123  18.713  0.00  0.00    -0.346 N 
HETATM   20  C   UNK N   1      35.121   9.466  17.538  0.00  0.00     0.188 A 
ATOM     21  HN  UNK N   1      35.504   9.718  19.633  1.00  0.00     0.167 HD
BRANCH  17  22
HETATM   22  N   UNK N   1      35.695  12.438  20.557  0.00  0.00    -0.383 N 
HETATM   23  H   UNK N   1      34.971  12.361  21.219  0.00  0.00     0.157 HD
HETATM   24  H   UNK N   1      36.630  12.438  20.865  0.00  0.00     0.157 HD
ENDBRANCH  17  22
ENDBRANCH   6  10
BRANCH   5  25
HETATM   25  C   UNK N   1      34.722  12.007  12.505  0.00  0.00     0.215 C 
BRANCH  25  26
HETATM   26  O   UNK N   1      34.757  12.986  13.509  0.00  0.00    -0.294 OA
BRANCH  26  27
HETATM   27  P   UNK N   1      36.250  13.880  13.299  0.00  0.00     0.401 P 
HETATM   28  O   UNK N   1      37.038  13.215  12.136  0.00  0.00    -0.631 OA
BRANCH  27  29
HETATM   29  O   UNK N   1      35.930  15.528  12.805  0.00  0.00    -0.195 OA
BRANCH  29  30
HETATM   30  P   UNK N   1      35.930  15.709  11.054  0.00  0.00     0.401 P 
HETATM   31  O   UNK N   1      34.969  14.597  10.556  0.00  0.00    -0.631 OA
BRANCH  30  32
HETATM   32  O   UNK N   1      35.351  17.186  10.303  0.00  0.00    -0.294 OA
BRANCH  32  33
HETATM   33  C   UNK N   1      34.198  16.839   9.591  0.00  0.00     0.215 C 
BRANCH  33  34
HETATM   34  C   UNK N   1      34.400  16.763   8.082  0.00  0.00     0.180 C 
HETATM   35  O   UNK N   1      33.766  17.812   7.390  0.00  0.00    -0.353 OA
HETATM   36  C   UNK N   1      33.158  17.229   6.250  0.00  0.00     0.259 C 
HETATM   37  C   UNK N   1      33.736  15.832   6.060  0.00  0.00     0.198 C 
HETATM   38  C   UNK N   1      33.952  15.450   7.493  0.00  0.00     0.182 C 
BRANCH  36  39
HETATM   39  N   UNK N   1      31.711  17.235   6.388  0.00  0.00    -0.337 N 
HETATM   40  C   UNK N   1      31.110  17.857   7.525  0.00  0.00     0.106 A 
HETATM   41  C   UNK N   1      29.815  17.667   7.833  0.00  0.00     0.028 A 
HETATM   42  C   UNK N   1      28.942  16.763   6.991  0.00  0.00     0.074 A 
HETATM   43  C   UNK N   1      29.653  16.113   5.836  0.00  0.00    -0.005 A 
HETATM   44  C   UNK N   1      30.946  16.339   5.586  0.00  0.00     0.089 A 
BRANCH  41  45
HETATM   45  C   UNK N   1      29.232  18.332   9.021  0.00  0.00     0.246 C 
HETATM   46  O   UNK N   1      29.956  18.827   9.872  0.00  0.00    -0.268 OA
HETATM   47  N   UNK N   1      27.893  18.393   9.175  0.00  0.00    -0.366 N 
HETATM   48  H   UNK N   1      27.493  18.627  10.044  0.00  0.00     0.159 HD
HETATM   49  H   UNK N   1      27.307  18.199   8.408  0.00  0.00     0.159 HD
ENDBRANCH  41  45
ENDBRANCH  36  39
BRANCH  37  50
HETATM   50  O   UNK N   1      34.961  15.948   5.393  0.00  0.00    -0.388 OA
HETATM   51  H   UNK N   1      35.199  16.038   4.457  0.00  0.00     0.210 HD
ENDBRANCH  37  50
BRANCH  38  52
HETATM   52  O   UNK N   1      34.947  14.476   7.626  0.00  0.00    -0.390 OA
HETATM   53  H   UNK N   1      35.466  14.118   6.890  0.00  0.00     0.210 HD
ENDBRANCH  38  52
ENDBRANCH  33  34
ENDBRANCH  32  33
ENDBRANCH  30  32
BRANCH  30  54
HETATM   54  O   UNK N   1      37.467  15.230  10.401  0.00  0.00    -0.307 OA
HETATM   55  H   UNK N   1      37.770  15.516   9.526  0.00  0.00     0.222 HD
ENDBRANCH  30  54
ENDBRANCH  29  30
ENDBRANCH  27  29
BRANCH  27  56
HETATM   56  O   UNK N   1      37.290  13.726  14.683  0.00  0.00    -0.307 OA
HETATM   57  H   UNK N   1      37.686  14.238  15.405  0.00  0.00     0.222 HD
ENDBRANCH  27  56
ENDBRANCH  26  27
ENDBRANCH  25  26
ENDBRANCH   5  25
TORSDOF 17
ENDMDL
MODEL 2
REMARK VINA RESULT:      -8.3      1.869      2.954
REMARK  17 active torsions:
REMARK  status: ('A' for Active; 'I' for Inactive)
REMARK    1  A    between atoms: P_1  and  O_9 
REMARK    2  A    between atoms: P_1  and  O_11 
REMARK    3  A    between atoms: P_1  and  O_12 
REMARK    4  A    between atoms: P_2  and  O_10 
REMARK    5  A    between atoms: P_2  and  O_11 
REMARK    6  A    between atoms: P_2  and  O_13 
REMARK    7  A    between atoms: C_27  and  O_5 
REMARK    8  A    between atoms: C_31  and  O_7 
REMARK    9  A    between atoms: C_32  and  O_8 
REMARK   10  A    between atoms: O_9  and  C_35 
REMARK   11  A    between atoms: O_10  and  C_36 
REMARK   12  A    between atoms: C_30  and  N_17 
REMARK   13  A    between atoms: C_34  and  N_18 
REMARK   14  A    between atoms: N_25  and  C_45 
REMARK       I    between atoms: N_26  and  C_46 
REMARK   15  A    between atoms: C_29  and  C_35 
REMARK   16  A    between atoms: C_33  and  C_36 
REMARK   17  A    between atoms: C_42  and  C_46 
ROOT
HETATM    1  O   UNK N   1      34.821  12.547  13.753  0.00  0.00    -0.353 OA
HETATM    2  O   UNK N   1      37.576  13.010  14.512  0.00  0.00    -0.388 OA
HETATM    3  C   UNK N   1      36.756  12.179  12.453  0.00  0.00     0.182 C 
HETATM    4  C   UNK N   1      37.095  11.858  13.875  0.00  0.00     0.198 C 
HETATM    5  C   UNK N   1      35.469  12.995  12.577  0.00  0.00     0.180 C 
HETATM    6  C   UNK N   1      35.671  11.568  14.318  0.00  0.00     0.262 C 
HETATM    7  H   UNK N   1      37.833  13.875  14.869  0.00  0.00     0.210 HD
ENDROOT
BRANCH   3   8
HETATM    8  O   UNK N   1      37.788  12.834  11.775  0.00  0.00    -0.390 OA
HETATM    9  H   UNK N   1      37.640  13.569  11.159  0.00  0.00     0.210 HD
ENDBRANCH   3   8
BRANCH   6  10
HETATM   10  N   UNK N   1      35.461  11.429  15.767  0.00  0.00    -0.297 N 
HETATM   11  C   UNK N   1      35.425  12.351  16.748  0.00  0.00     0.142 A 
HETATM   12  N   UNK N   1      35.570  13.694  16.652  0.00  0.00    -0.336 N 
HETATM   13  C   UNK N   1      35.245  11.730  17.933  0.00  0.00     0.122 A 
HETATM   14  C   UNK N   1      35.516  14.435  17.802  0.00  0.00     0.183 A 
ATOM     15  HN  UNK N   1      35.715  14.141  15.747  1.00  0.00     0.168 HD
HETATM   16  N   UNK N   1      35.327  13.822  19.018  0.00  0.00    -0.337 N 
HETATM   17  C   UNK N   1      35.190  12.467  19.106  0.00  0.00     0.131 A 
ATOM     18  HN  UNK N   1      35.288  14.387  19.866  1.00  0.00     0.168 HD
HETATM   19  N   UNK N   1      35.159  10.403  17.748  0.00  0.00    -0.346 N 
HETATM   20  C   UNK N   1      35.304  10.239  16.403  0.00  0.00     0.188 A 
ATOM     21  HN  UNK N   1      35.019   9.680  18.454  1.00  0.00     0.167 HD
BRANCH  17  22
HETATM   22  N   UNK N   1      35.010  11.841  20.357  0.00  0.00    -0.383 N 
HETATM   23  H   UNK N   1      34.158  11.905  20.845  0.00  0.00     0.157 HD
HETATM   24  H   UNK N   1      35.753  11.328  20.750  0.00  0.00     0.157 HD
ENDBRANCH  17  22
ENDBRANCH   6  10
BRANCH   5  25
HETATM   25  C   UNK N   1      35.739  14.497  12.700  0.00  0.00     0.215 C 
BRANCH  25  26
HETATM   26  O   UNK N   1      34.768  15.243  12.015  0.00  0.00    -0.294 OA
BRANCH  26  27
HETATM   27  P   UNK N   1      35.500  15.776  10.515  0.00  0.00     0.401 P 
HETATM   28  O   UNK N   1      36.985  15.319  10.525  0.00  0.00    -0.631 OA
BRANCH  27  29
HETATM   29  O   UNK N   1      34.749  14.998   9.139  0.00  0.00    -0.195 OA
BRANCH  29  30
HETATM   30  P   UNK N   1      33.686  16.089   8.257  0.00  0.00     0.401 P 
HETATM   31  O   UNK N   1      34.649  16.939   7.386  0.00  0.00    -0.631 OA
BRANCH  30  32
HETATM   32  O   UNK N   1      32.486  15.466   7.137  0.00  0.00    -0.294 OA
BRANCH  32  33
HETATM   33  C   UNK N   1      33.154  15.240   5.930  0.00  0.00     0.215 C 
BRANCH  33  34
HETATM   34  C   UNK N   1      32.678  16.123   4.782  0.00  0.00     0.180 C 
HETATM   35  O   UNK N   1      32.138  17.347   5.220  0.00  0.00    -0.353 OA
HETATM   36  C   UNK N   1      30.973  17.570   4.444  0.00  0.00     0.259 C 
HETATM   37  C   UNK N   1      30.999  16.616   3.256  0.00  0.00     0.198 C 
HETATM   38  C   UNK N   1      31.674  15.439   3.891  0.00  0.00     0.182 C 
BRANCH  36  39
HETATM   39  N   UNK N   1      29.782  17.427   5.266  0.00  0.00    -0.337 N 
HETATM   40  C   UNK N   1      29.872  17.605   6.680  0.00  0.00     0.106 A 
HETATM   41  C   UNK N   1      28.875  17.234   7.505  0.00  0.00     0.028 A 
HETATM   42  C   UNK N   1      27.620  16.590   6.961  0.00  0.00     0.074 A 
HETATM   43  C   UNK N   1      27.614  16.399   5.469  0.00  0.00    -0.005 A 
HETATM   44  C   UNK N   1      28.639  16.786   4.705  0.00  0.00     0.089 A 
BRANCH  41  45
HETATM   45  C   UNK N   1      29.010  17.437   8.966  0.00  0.00     0.246 C 
HETATM   46  O   UNK N   1      28.086  17.161   9.717  0.00  0.00    -0.268 OA
HETATM   47  N   UNK N   1      30.154  17.933   9.478  0.00  0.00    -0.366 N 
HETATM   48  H   UNK N   1      30.189  18.278  10.400  0.00  0.00     0.159 HD
HETATM   49  H   UNK N   1      30.967  17.952   8.923  0.00  0.00     0.159 HD
ENDBRANCH  41  45
ENDBRANCH  36  39
BRANCH  37  50
HETATM   50  O   UNK N   1      31.811  17.172   2.262  0.00  0.00    -0.388 OA
HETATM   51  H   UNK N   1      32.676  17.609   2.281  0.00  0.00     0.210 HD
ENDBRANCH  37  50
BRANCH  38  52
HETATM   52  O   UNK N   1      32.314  14.634   2.941  0.00  0.00    -0.390 OA
HETATM   53  H   UNK N   1      32.113  14.639   1.993  0.00  0.00     0.210 HD
ENDBRANCH  38  52
ENDBRANCH  33  34
ENDBRANCH  32  33
ENDBRANCH  30  32
BRANCH  30  54
HETATM   54  O   UNK N   1      32.992  17.257   9.340  0.00  0.00    -0.307 OA
HETATM   55  H   UNK N   1      33.009  17.145  10.302  0.00  0.00     0.222 HD
ENDBRANCH  30  54
ENDBRANCH  29  30
ENDBRANCH  27  29
BRANCH  27  56
HETATM   56  O   UNK N   1      35.570  17.510  10.417  0.00  0.00    -0.307 OA
HETATM   57  H   UNK N   1      36.190  18.247  10.305  0.00  0.00     0.222 HD
ENDBRANCH  27  56
ENDBRANCH  26  27
ENDBRANCH  25  26
ENDBRANCH   5  25
TORSDOF 17
ENDMDL
MODEL 3
REMARK VINA RESULT:      -8.3      2.080      2.698
REMARK  17 active torsions:
REMARK  status: ('A' for Active; 'I' for Inactive)
REMARK    1  A    between atoms: P_1  and  O_9 
REMARK    2  A    between atoms: P_1  and  O_11 
REMARK    3  A    between atoms: P_1  and  O_12 
REMARK    4  A    between atoms: P_2  and  O_10 
REMARK    5  A    between atoms: P_2  and  O_11 
REMARK    6  A    between atoms: P_2  and  O_13 
REMARK    7  A    between atoms: C_27  and  O_5 
REMARK    8  A    between atoms: C_31  and  O_7 
REMARK    9  A    between atoms: C_32  and  O_8 
REMARK   10  A    between atoms: O_9  and  C_35 
REMARK   11  A    between atoms: O_10  and  C_36 
REMARK   12  A    between atoms: C_30  and  N_17 
REMARK   13  A    between atoms: C_34  and  N_18 
REMARK   14  A    between atoms: N_25  and  C_45 
REMARK       I    between atoms: N_26  and  C_46 
REMARK   15  A    between atoms: C_29  and  C_35 
REMARK   16  A    between atoms: C_33  and  C_36 
REMARK   17  A    between atoms: C_42  and  C_46 
ROOT
HETATM    1  O   UNK N   1      34.063  10.545  14.298  0.00  0.00    -0.353 OA
HETATM    2  O   UNK N   1      36.955  10.514  14.169  0.00  0.00    -0.388 OA
HETATM    3  C   UNK N   1      35.429   9.228  12.896  0.00  0.00     0.182 C 
HETATM    4  C   UNK N   1      36.134   9.379  14.207  0.00  0.00     0.198 C 
HETATM    5  C   UNK N   1      34.380  10.341  12.935  0.00  0.00     0.180 C 
HETATM    6  C   UNK N   1      34.888   9.658  15.029  0.00  0.00     0.262 C 
HETATM    7  H   UNK N   1      37.436  11.349  14.056  0.00  0.00     0.210 HD
ENDROOT
BRANCH   3   8
HETATM    8  O   UNK N   1      36.291   9.291  11.796  0.00  0.00    -0.390 OA
HETATM    9  H   UNK N   1      36.187   8.739  11.006  0.00  0.00     0.210 HD
ENDBRANCH   3   8
BRANCH   6  10
HETATM   10  N   UNK N   1      35.112  10.125  16.405  0.00  0.00    -0.297 N 
HETATM   11  C   UNK N   1      35.061  11.360  16.940  0.00  0.00     0.142 A 
HETATM   12  N   UNK N   1      34.770  12.533  16.330  0.00  0.00    -0.336 N 
HETATM   13  C   UNK N   1      35.387  11.290  18.248  0.00  0.00     0.122 A 
HETATM   14  C   UNK N   1      34.799  13.678  17.082  0.00  0.00     0.183 A 
ATOM     15  HN  UNK N   1      34.536  12.564  15.338  1.00  0.00     0.168 HD
HETATM   16  N   UNK N   1      35.123  13.627  18.417  0.00  0.00    -0.337 N 
HETATM   17  C   UNK N   1      35.423  12.440  19.021  0.00  0.00     0.131 A 
ATOM     18  HN  UNK N   1      35.140  14.488  18.963  1.00  0.00     0.168 HD
HETATM   19  N   UNK N   1      35.655  10.019  18.588  0.00  0.00    -0.346 N 
HETATM   20  C   UNK N   1      35.487   9.317  17.432  0.00  0.00     0.188 A 
ATOM     21  HN  UNK N   1      35.923   9.659  19.503  1.00  0.00     0.167 HD
BRANCH  17  22
HETATM   22  N   UNK N   1      35.768  12.395  20.387  0.00  0.00    -0.383 N 
HETATM   23  H   UNK N   1      36.696  12.527  20.687  0.00  0.00     0.157 HD
HETATM   24  H   UNK N   1      35.065  12.227  21.056  0.00  0.00     0.157 HD
ENDBRANCH  17  22
ENDBRANCH   6  10
BRANCH   5  25
HETATM   25  C   UNK N   1      34.897  11.654  12.342  0.00  0.00     0.215 C 
BRANCH  25  26
HETATM   26  O   UNK N   1      34.788  12.703  13.266  0.00  0.00    -0.294 OA
BRANCH  26  27
HETATM   27  P   UNK N   1      36.300  13.588  13.213  0.00  0.00     0.401 P 
HETATM   28  O   UNK N   1      37.207  12.909  12.150  0.00  0.00    -0.631 OA
BRANCH  27  29
HETATM   29  O   UNK N   1      36.045  15.234  12.673  0.00  0.00    -0.195 OA
BRANCH  29  30
HETATM   30  P   UNK N   1      35.175  15.303  11.144  0.00  0.00     0.401 P 
HETATM   31  O   UNK N   1      35.171  16.811  10.775  0.00  0.00    -0.631 OA
BRANCH  30  32
HETATM   32  O   UNK N   1      35.795  14.485   9.719  0.00  0.00    -0.294 OA
BRANCH  32  33
HETATM   33  C   UNK N   1      34.881  13.468   9.421  0.00  0.00     0.215 C 
BRANCH  33  34
HETATM   34  C   UNK N   1      34.990  12.935   7.997  0.00  0.00     0.180 C 
HETATM   35  O   UNK N   1      35.825  13.720   7.180  0.00  0.00    -0.353 OA
HETATM   36  C   UNK N   1      35.164  13.839   5.931  0.00  0.00     0.259 C 
HETATM   37  C   UNK N   1      34.050  12.801   5.878  0.00  0.00     0.198 C 
HETATM   38  C   UNK N   1      33.652  12.781   7.322  0.00  0.00     0.182 C 
BRANCH  36  39
HETATM   39  N   UNK N   1      34.687  15.199   5.738  0.00  0.00    -0.337 N 
HETATM   40  C   UNK N   1      34.690  16.113   6.835  0.00  0.00     0.106 A 
HETATM   41  C   UNK N   1      34.028  17.284   6.782  0.00  0.00     0.028 A 
HETATM   42  C   UNK N   1      33.232  17.669   5.555  0.00  0.00     0.074 A 
HETATM   43  C   UNK N   1      33.243  16.640   4.458  0.00  0.00    -0.005 A 
HETATM   44  C   UNK N   1      33.918  15.493   4.574  0.00  0.00     0.089 A 
BRANCH  41  45
HETATM   45  C   UNK N   1      34.058  18.203   7.943  0.00  0.00     0.246 C 
HETATM   46  O   UNK N   1      34.945  19.037   8.050  0.00  0.00    -0.268 OA
HETATM   47  N   UNK N   1      33.105  18.123   8.894  0.00  0.00    -0.366 N 
HETATM   48  H   UNK N   1      33.224  18.563   9.768  0.00  0.00     0.159 HD
HETATM   49  H   UNK N   1      32.280  17.619   8.715  0.00  0.00     0.159 HD
ENDBRANCH  41  45
ENDBRANCH  36  39
BRANCH  37  50
HETATM   50  O   UNK N   1      34.609  11.573   5.506  0.00  0.00    -0.388 OA
HETATM   51  H   UNK N   1      35.520  11.280   5.351  0.00  0.00     0.210 HD
ENDBRANCH  37  50
BRANCH  38  52
HETATM   52  O   UNK N   1      33.048  11.571   7.677  0.00  0.00    -0.390 OA
HETATM   53  H   UNK N   1      33.239  10.718   7.258  0.00  0.00     0.210 HD
ENDBRANCH  38  52
ENDBRANCH  33  34
ENDBRANCH  32  33
ENDBRANCH  30  32
BRANCH  30  54
HETATM   54  O   UNK N   1      33.493  14.948  11.393  0.00  0.00    -0.307 OA
HETATM   55  H   UNK N   1      32.886  15.582  11.804  0.00  0.00     0.222 HD
ENDBRANCH  30  54
ENDBRANCH  29  30
ENDBRANCH  27  29
BRANCH  27  56
HETATM   56  O   UNK N   1      37.180  13.443  14.705  0.00  0.00    -0.307 OA
HETATM   57  H   UNK N   1      37.842  12.896  15.155  0.00  0.00     0.222 HD
ENDBRANCH  27  56
ENDBRANCH  26  27
ENDBRANCH  25  26
ENDBRANCH   5  25
TORSDOF 17
ENDMDL
MODEL 4
REMARK VINA RESULT:      -8.2      1.716      2.747
REMARK  17 active torsions:
REMARK  status: ('A' for Active; 'I' for Inactive)
REMARK    1  A    between atoms: P_1  and  O_9 
REMARK    2  A    between atoms: P_1  and  O_11 
REMARK    3  A    between atoms: P_1  and  O_12 
REMARK    4  A    between atoms: P_2  and  O_10 
REMARK    5  A    between atoms: P_2  and  O_11 
REMARK    6  A    between atoms: P_2  and  O_13 
REMARK    7  A    between atoms: C_27  and  O_5 
REMARK    8  A    between atoms: C_31  and  O_7 
REMARK    9  A    between atoms: C_32  and  O_8 
REMARK   10  A    between atoms: O_9  and  C_35 
REMARK   11  A    between atoms: O_10  and  C_36 
REMARK   12  A    between atoms: C_30  and  N_17 
REMARK   13  A    between atoms: C_34  and  N_18 
REMARK   14  A    between atoms: N_25  and  C_45 
REMARK       I    between atoms: N_26  and  C_46 
REMARK   15  A    between atoms: C_29  and  C_35 
REMARK   16  A    between atoms: C_33  and  C_36 
REMARK   17  A    between atoms: C_42  and  C_46 
ROOT
HETATM    1  O   UNK N   1      34.689  12.440  13.764  0.00  0.00    -0.353 OA
HETATM    2  O   UNK N   1      37.519  12.555  14.359  0.00  0.00    -0.388 OA
HETATM    3  C   UNK N   1      36.483  11.829  12.359  0.00  0.00     0.182 C 
HETATM    4  C   UNK N   1      36.861  11.471  13.762  0.00  0.00     0.198 C 
HETATM    5  C   UNK N   1      35.317  12.801  12.549  0.00  0.00     0.180 C 
HETATM    6  C   UNK N   1      35.441  11.363  14.289  0.00  0.00     0.262 C 
HETATM    7  H   UNK N   1      37.903  13.381  14.692  0.00  0.00     0.210 HD
ENDROOT
BRANCH   3   8
HETATM    8  O   UNK N   1      37.548  12.348  11.616  0.00  0.00    -0.390 OA
HETATM    9  H   UNK N   1      37.445  12.722  10.727  0.00  0.00     0.210 HD
ENDBRANCH   3   8
BRANCH   6  10
HETATM   10  N   UNK N   1      35.300  11.255  15.749  0.00  0.00    -0.297 N 
HETATM   11  C   UNK N   1      35.328  12.195  16.712  0.00  0.00     0.142 A 
HETATM   12  N   UNK N   1      35.490  13.533  16.583  0.00  0.00    -0.336 N 
HETATM   13  C   UNK N   1      35.196  11.599  17.916  0.00  0.00     0.122 A 
HETATM   14  C   UNK N   1      35.504  14.297  17.720  0.00  0.00     0.183 A 
ATOM     15  HN  UNK N   1      35.598  13.961  15.663  1.00  0.00     0.168 HD
HETATM   16  N   UNK N   1      35.365  13.709  18.955  0.00  0.00    -0.337 N 
HETATM   17  C   UNK N   1      35.210  12.359  19.076  0.00  0.00     0.131 A 
ATOM     18  HN  UNK N   1      35.378  14.291  19.793  1.00  0.00     0.168 HD
HETATM   19  N   UNK N   1      35.079  10.270  17.761  0.00  0.00    -0.346 N 
HETATM   20  C   UNK N   1      35.155  10.079  16.414  0.00  0.00     0.188 A 
ATOM     21  HN  UNK N   1      34.962   9.564  18.487  1.00  0.00     0.167 HD
BRANCH  17  22
HETATM   22  N   UNK N   1      35.082  11.759  20.346  0.00  0.00    -0.383 N 
HETATM   23  H   UNK N   1      34.612  10.903  20.464  0.00  0.00     0.157 HD
HETATM   24  H   UNK N   1      35.472  12.207  21.131  0.00  0.00     0.157 HD
ENDBRANCH  17  22
ENDBRANCH   6  10
BRANCH   5  25
HETATM   25  C   UNK N   1      35.780  14.257  12.642  0.00  0.00     0.215 C 
BRANCH  25  26
HETATM   26  O   UNK N   1      36.292  14.704  11.415  0.00  0.00    -0.294 OA
BRANCH  26  27
HETATM   27  P   UNK N   1      35.007  15.591  10.619  0.00  0.00     0.401 P 
HETATM   28  O   UNK N   1      35.162  17.090  11.000  0.00  0.00    -0.631 OA
BRANCH  27  29
HETATM   29  O   UNK N   1      35.166  15.501   8.878  0.00  0.00    -0.195 OA
BRANCH  29  30
HETATM   30  P   UNK N   1      35.001  13.853   8.282  0.00  0.00     0.401 P 
HETATM   31  O   UNK N   1      33.749  13.304   9.018  0.00  0.00    -0.631 OA
BRANCH  30  32
HETATM   32  O   UNK N   1      34.706  13.538   6.580  0.00  0.00    -0.294 OA
BRANCH  32  33
HETATM   33  C   UNK N   1      35.152  14.669   5.887  0.00  0.00     0.215 C 
BRANCH  33  34
HETATM   34  C   UNK N   1      34.116  15.266   4.942  0.00  0.00     0.180 C 
HETATM   35  O   UNK N   1      33.844  16.620   5.211  0.00  0.00    -0.353 OA
HETATM   36  C   UNK N   1      32.438  16.772   5.111  0.00  0.00     0.259 C 
HETATM   37  C   UNK N   1      31.871  15.540   4.417  0.00  0.00     0.198 C 
HETATM   38  C   UNK N   1      32.818  14.500   4.933  0.00  0.00     0.182 C 
BRANCH  36  39
HETATM   39  N   UNK N   1      31.859  17.007   6.424  0.00  0.00    -0.337 N 
HETATM   40  C   UNK N   1      30.441  17.013   6.583  0.00  0.00     0.106 A 
HETATM   41  C   UNK N   1      29.856  17.476   7.702  0.00  0.00     0.028 A 
HETATM   42  C   UNK N   1      30.686  18.032   8.837  0.00  0.00     0.074 A 
HETATM   43  C   UNK N   1      32.168  18.030   8.582  0.00  0.00    -0.005 A 
HETATM   44  C   UNK N   1      32.688  17.559   7.444  0.00  0.00     0.089 A 
BRANCH  41  45
HETATM   45  C   UNK N   1      28.379  17.464   7.825  0.00  0.00     0.246 C 
HETATM   46  O   UNK N   1      27.849  17.177   8.888  0.00  0.00    -0.268 OA
HETATM   47  N   UNK N   1      27.609  17.766   6.760  0.00  0.00    -0.366 N 
HETATM   48  H   UNK N   1      26.647  17.554   6.755  0.00  0.00     0.159 HD
HETATM   49  H   UNK N   1      28.012  18.204   5.977  0.00  0.00     0.159 HD
ENDBRANCH  41  45
ENDBRANCH  36  39
BRANCH  37  50
HETATM   50  O   UNK N   1      32.023  15.702   3.036  0.00  0.00    -0.388 OA
HETATM   51  H   UNK N   1      32.137  16.481   2.469  0.00  0.00     0.210 HD
ENDBRANCH  37  50
BRANCH  38  52
HETATM   52  O   UNK N   1      32.893  13.397   4.076  0.00  0.00    -0.390 OA
HETATM   53  H   UNK N   1      32.565  13.387   3.163  0.00  0.00     0.210 HD
ENDBRANCH  38  52
ENDBRANCH  33  34
ENDBRANCH  32  33
ENDBRANCH  30  32
BRANCH  30  54
HETATM   54  O   UNK N   1      36.289  12.860   8.892  0.00  0.00    -0.307 OA
HETATM   55  H   UNK N   1      37.137  13.232   9.179  0.00  0.00     0.222 HD
ENDBRANCH  30  54
ENDBRANCH  29  30
ENDBRANCH  27  29
BRANCH  27  56
HETATM   56  O   UNK N   1      33.443  15.138  11.228  0.00  0.00    -0.307 OA
HETATM   57  H   UNK N   1      32.850  15.260  11.985  0.00  0.00     0.222 HD
ENDBRANCH  27  56
ENDBRANCH  26  27
ENDBRANCH  25  26
ENDBRANCH   5  25
TORSDOF 17
ENDMDL
MODEL 5
REMARK VINA RESULT:      -7.9      5.121      7.529
REMARK  17 active torsions:
REMARK  status: ('A' for Active; 'I' for Inactive)
REMARK    1  A    between atoms: P_1  and  O_9 
REMARK    2  A    between atoms: P_1  and  O_11 
REMARK    3  A    between atoms: P_1  and  O_12 
REMARK    4  A    between atoms: P_2  and  O_10 
REMARK    5  A    between atoms: P_2  and  O_11 
REMARK    6  A    between atoms: P_2  and  O_13 
REMARK    7  A    between atoms: C_27  and  O_5 
REMARK    8  A    between atoms: C_31  and  O_7 
REMARK    9  A    between atoms: C_32  and  O_8 
REMARK   10  A    between atoms: O_9  and  C_35 
REMARK   11  A    between atoms: O_10  and  C_36 
REMARK   12  A    between atoms: C_30  and  N_17 
REMARK   13  A    between atoms: C_34  and  N_18 
REMARK   14  A    between atoms: N_25  and  C_45 
REMARK       I    between atoms: N_26  and  C_46 
REMARK   15  A    between atoms: C_29  and  C_35 
REMARK   16  A    between atoms: C_33  and  C_36 
REMARK   17  A    between atoms: C_42  and  C_46 
ROOT
HETATM    1  O   UNK N   1      37.130  15.191  10.085  0.00  0.00    -0.353 OA
HETATM    2  O   UNK N   1      34.748  13.714   9.358  0.00  0.00    -0.388 OA
HETATM    3  C   UNK N   1      35.473  14.327  11.527  0.00  0.00     0.182 C 
HETATM    4  C   UNK N   1      35.632  13.368  10.389  0.00  0.00     0.198 C 
HETATM    5  C   UNK N   1      36.134  15.603  11.001  0.00  0.00     0.180 C 
HETATM    6  C   UNK N   1      37.048  13.780  10.028  0.00  0.00     0.262 C 
HETATM    7  H   UNK N   1      34.148  14.078   8.689  0.00  0.00     0.210 HD
ENDROOT
BRANCH   3   8
HETATM    8  O   UNK N   1      34.144  14.492  11.927  0.00  0.00    -0.390 OA
HETATM    9  H   UNK N   1      33.721  13.948  12.610  0.00  0.00     0.210 HD
ENDBRANCH   3   8
BRANCH   6  10
HETATM   10  N   UNK N   1      37.572  13.251   8.759  0.00  0.00    -0.297 N 
HETATM   11  C   UNK N   1      37.263  13.548   7.482  0.00  0.00     0.142 A 
HETATM   12  N   UNK N   1      36.365  14.449   7.018  0.00  0.00    -0.336 N 
HETATM   13  C   UNK N   1      37.986  12.762   6.658  0.00  0.00     0.122 A 
HETATM   14  C   UNK N   1      36.206  14.564   5.662  0.00  0.00     0.183 A 
ATOM     15  HN  UNK N   1      35.822  15.026   7.660  1.00  0.00     0.168 HD
HETATM   16  N   UNK N   1      36.937  13.777   4.805  0.00  0.00    -0.337 N 
HETATM   17  C   UNK N   1      37.835  12.866   5.283  0.00  0.00     0.131 A 
ATOM     18  HN  UNK N   1      36.808  13.875   3.798  1.00  0.00     0.168 HD
HETATM   19  N   UNK N   1      38.774  11.945   7.375  0.00  0.00    -0.346 N 
HETATM   20  C   UNK N   1      38.496  12.258   8.671  0.00  0.00     0.188 A 
ATOM     21  HN  UNK N   1      39.432  11.246   7.028  1.00  0.00     0.167 HD
BRANCH  17  22
HETATM   22  N   UNK N   1      38.573  12.051   4.401  0.00  0.00    -0.383 N 
HETATM   23  H   UNK N   1      39.281  11.452   4.727  0.00  0.00     0.157 HD
HETATM   24  H   UNK N   1      38.374  12.082   3.437  0.00  0.00     0.157 HD
ENDBRANCH  17  22
ENDBRANCH   6  10
BRANCH   5  25
HETATM   25  C   UNK N   1      35.142  16.519  10.280  0.00  0.00     0.215 C 
BRANCH  25  26
HETATM   26  O   UNK N   1      35.356  16.502   8.893  0.00  0.00    -0.294 OA
BRANCH  26  27
HETATM   27  P   UNK N   1      34.492  17.874   8.227  0.00  0.00     0.401 P 
HETATM   28  O   UNK N   1      34.544  17.758   6.679  0.00  0.00    -0.631 OA
BRANCH  27  29
HETATM   29  O   UNK N   1      32.801  17.828   8.674  0.00  0.00    -0.195 OA
BRANCH  29  30
HETATM   30  P   UNK N   1      32.003  16.368   8.100  0.00  0.00     0.401 P 
HETATM   31  O   UNK N   1      31.542  15.650   9.396  0.00  0.00    -0.631 OA
BRANCH  30  32
HETATM   32  O   UNK N   1      30.566  16.464   7.095  0.00  0.00    -0.294 OA
BRANCH  32  33
HETATM   33  C   UNK N   1      30.974  17.025   5.880  0.00  0.00     0.215 C 
BRANCH  33  34
HETATM   34  C   UNK N   1      30.947  16.051   4.707  0.00  0.00     0.180 C 
HETATM   35  O   UNK N   1      30.516  16.648   3.507  0.00  0.00    -0.353 OA
HETATM   36  C   UNK N   1      29.633  15.723   2.896  0.00  0.00     0.259 C 
HETATM   37  C   UNK N   1      29.804  14.373   3.580  0.00  0.00     0.198 C 
HETATM   38  C   UNK N   1      30.103  14.832   4.975  0.00  0.00     0.182 C 
BRANCH  36  39
HETATM   39  N   UNK N   1      28.267  16.220   2.943  0.00  0.00    -0.337 N 
HETATM   40  C   UNK N   1      27.986  17.458   3.594  0.00  0.00     0.106 A 
HETATM   41  C   UNK N   1      26.728  17.831   3.892  0.00  0.00     0.028 A 
HETATM   42  C   UNK N   1      25.556  16.934   3.564  0.00  0.00     0.074 A 
HETATM   43  C   UNK N   1      25.932  15.630   2.916  0.00  0.00    -0.005 A 
HETATM   44  C   UNK N   1      27.204  15.317   2.650  0.00  0.00     0.089 A 
BRANCH  41  45
HETATM   45  C   UNK N   1      26.481  19.126   4.568  0.00  0.00     0.246 C 
HETATM   46  O   UNK N   1      27.130  20.116   4.266  0.00  0.00    -0.268 OA
HETATM   47  N   UNK N   1      25.537  19.220   5.527  0.00  0.00    -0.366 N 
HETATM   48  H   UNK N   1      25.506  19.996   6.133  0.00  0.00     0.159 HD
HETATM   49  H   UNK N   1      24.870  18.503   5.624  0.00  0.00     0.159 HD
ENDBRANCH  41  45
ENDBRANCH  36  39
BRANCH  37  50
HETATM   50  O   UNK N   1      30.917  13.733   3.024  0.00  0.00    -0.388 OA
HETATM   51  H   UNK N   1      31.559  13.097   3.375  0.00  0.00     0.210 HD
ENDBRANCH  37  50
BRANCH  38  52
HETATM   52  O   UNK N   1      30.824  13.871   5.693  0.00  0.00    -0.390 OA
HETATM   53  H   UNK N   1      30.823  12.923   5.494  0.00  0.00     0.210 HD
ENDBRANCH  38  52
ENDBRANCH  33  34
ENDBRANCH  32  33
ENDBRANCH  30  32
BRANCH  30  54
HETATM   54  O   UNK N   1      33.169  15.270   7.429  0.00  0.00    -0.307 OA
HETATM   55  H   UNK N   1      33.841  14.832   7.973  0.00  0.00     0.222 HD
ENDBRANCH  30  54
ENDBRANCH  29  30
ENDBRANCH  27  29
BRANCH  27  56
HETATM   56  O   UNK N   1      35.297  19.373   8.587  0.00  0.00    -0.307 OA
HETATM   57  H   UNK N   1      35.292  20.317   8.367  0.00  0.00     0.222 HD
ENDBRANCH  27  56
ENDBRANCH  26  27
ENDBRANCH  25  26
ENDBRANCH   5  25
TORSDOF 17
ENDMDL
MODEL 6
REMARK VINA RESULT:      -7.8      2.722      4.148
REMARK  17 active torsions:
REMARK  status: ('A' for Active; 'I' for Inactive)
REMARK    1  A    between atoms: P_1  and  O_9 
REMARK    2  A    between atoms: P_1  and  O_11 
REMARK    3  A    between atoms: P_1  and  O_12 
REMARK    4  A    between atoms: P_2  and  O_10 
REMARK    5  A    between atoms: P_2  and  O_11 
REMARK    6  A    between atoms: P_2  and  O_13 
REMARK    7  A    between atoms: C_27  and  O_5 
REMARK    8  A    between atoms: C_31  and  O_7 
REMARK    9  A    between atoms: C_32  and  O_8 
REMARK   10  A    between atoms: O_9  and  C_35 
REMARK   11  A    between atoms: O_10  and  C_36 
REMARK   12  A    between atoms: C_30  and  N_17 
REMARK   13  A    between atoms: C_34  and  N_18 
REMARK   14  A    between atoms: N_25  and  C_45 
REMARK       I    between atoms: N_26  and  C_46 
REMARK   15  A    between atoms: C_29  and  C_35 
REMARK   16  A    between atoms: C_33  and  C_36 
REMARK   17  A    between atoms: C_42  and  C_46 
ROOT
HETATM    1  O   UNK N   1      35.845  12.357   9.963  0.00  0.00    -0.353 OA
HETATM    2  O   UNK N   1      38.559  12.997  10.741  0.00  0.00    -0.388 OA
HETATM    3  C   UNK N   1      37.810  12.107   8.679  0.00  0.00     0.182 C 
HETATM    4  C   UNK N   1      38.157  11.815  10.106  0.00  0.00     0.198 C 
HETATM    5  C   UNK N   1      36.472  12.841   8.790  0.00  0.00     0.180 C 
HETATM    6  C   UNK N   1      36.752  11.437  10.539  0.00  0.00     0.262 C 
HETATM    7  H   UNK N   1      38.758  13.879  11.094  0.00  0.00     0.210 HD
ENDROOT
BRANCH   3   8
HETATM    8  O   UNK N   1      38.803  12.823   8.005  0.00  0.00    -0.390 OA
HETATM    9  H   UNK N   1      39.349  13.504   8.428  0.00  0.00     0.210 HD
ENDBRANCH   3   8
BRANCH   6  10
HETATM   10  N   UNK N   1      36.539  11.291  11.987  0.00  0.00    -0.297 N 
HETATM   11  C   UNK N   1      36.419  12.214  12.961  0.00  0.00     0.142 A 
HETATM   12  N   UNK N   1      36.454  13.563  12.855  0.00  0.00    -0.336 N 
HETATM   13  C   UNK N   1      36.278  11.588  14.148  0.00  0.00     0.122 A 
HETATM   14  C   UNK N   1      36.328  14.306  14.000  0.00  0.00     0.183 A 
ATOM     15  HN  UNK N   1      36.571  14.015  11.948  1.00  0.00     0.168 HD
HETATM   16  N   UNK N   1      36.178  13.688  15.218  0.00  0.00    -0.337 N 
HETATM   17  C   UNK N   1      36.151  12.327  15.315  0.00  0.00     0.131 A 
ATOM     18  HN  UNK N   1      36.085  14.254  16.061  1.00  0.00     0.168 HD
HETATM   19  N   UNK N   1      36.303  10.257  13.973  0.00  0.00    -0.346 N 
HETATM   20  C   UNK N   1      36.474  10.096  12.631  0.00  0.00     0.188 A 
ATOM     21  HN  UNK N   1      36.215   9.531  14.683  1.00  0.00     0.167 HD
BRANCH  17  22
HETATM   22  N   UNK N   1      36.011  11.697  16.569  0.00  0.00    -0.383 N 
HETATM   23  H   UNK N   1      35.159  11.291  16.847  0.00  0.00     0.157 HD
HETATM   24  H   UNK N   1      36.783  11.662  17.179  0.00  0.00     0.157 HD
ENDBRANCH  17  22
ENDBRANCH   6  10
BRANCH   5  25
HETATM   25  C   UNK N   1      36.645  14.357   8.907  0.00  0.00     0.215 C 
BRANCH  25  26
HETATM   26  O   UNK N   1      36.393  14.795  10.216  0.00  0.00    -0.294 OA
BRANCH  26  27
HETATM   27  P   UNK N   1      34.813  15.552  10.206  0.00  0.00     0.401 P 
HETATM   28  O   UNK N   1      35.001  17.041  10.609  0.00  0.00    -0.631 OA
BRANCH  27  29
HETATM   29  O   UNK N   1      34.129  15.555   8.595  0.00  0.00    -0.195 OA
BRANCH  29  30
HETATM   30  P   UNK N   1      32.619  14.654   8.513  0.00  0.00     0.401 P 
HETATM   31  O   UNK N   1      31.678  15.397   9.500  0.00  0.00    -0.631 OA
BRANCH  30  32
HETATM   32  O   UNK N   1      31.716  14.547   7.012  0.00  0.00    -0.294 OA
BRANCH  32  33
HETATM   33  C   UNK N   1      32.661  14.573   5.981  0.00  0.00     0.215 C 
BRANCH  33  34
HETATM   34  C   UNK N   1      32.419  15.665   4.945  0.00  0.00     0.180 C 
HETATM   35  O   UNK N   1      32.069  16.901   5.522  0.00  0.00    -0.353 OA
HETATM   36  C   UNK N   1      31.012  17.424   4.735  0.00  0.00     0.259 C 
HETATM   37  C   UNK N   1      30.951  16.639   3.432  0.00  0.00     0.198 C 
HETATM   38  C   UNK N   1      31.373  15.289   3.928  0.00  0.00     0.182 C 
BRANCH  36  39
HETATM   39  N   UNK N   1      29.763  17.393   5.481  0.00  0.00    -0.337 N 
HETATM   40  C   UNK N   1      29.783  17.523   6.902  0.00  0.00     0.106 A 
HETATM   41  C   UNK N   1      28.703  17.244   7.654  0.00  0.00     0.028 A 
HETATM   42  C   UNK N   1      27.421  16.757   7.016  0.00  0.00     0.074 A 
HETATM   43  C   UNK N   1      27.488  16.606   5.521  0.00  0.00    -0.005 A 
HETATM   44  C   UNK N   1      28.595  16.897   4.832  0.00  0.00     0.089 A 
BRANCH  41  45
HETATM   45  C   UNK N   1      28.767  17.394   9.126  0.00  0.00     0.246 C 
HETATM   46  O   UNK N   1      27.793  17.135   9.817  0.00  0.00    -0.268 OA
HETATM   47  N   UNK N   1      29.902  17.822   9.714  0.00  0.00    -0.366 N 
HETATM   48  H   UNK N   1      29.901  18.136  10.648  0.00  0.00     0.159 HD
HETATM   49  H   UNK N   1      30.743  17.823   9.204  0.00  0.00     0.159 HD
ENDBRANCH  41  45
ENDBRANCH  36  39
BRANCH  37  50
HETATM   50  O   UNK N   1      31.909  17.162   2.556  0.00  0.00    -0.388 OA
HETATM   51  H   UNK N   1      32.124  16.985   1.627  0.00  0.00     0.210 HD
ENDBRANCH  37  50
BRANCH  38  52
HETATM   52  O   UNK N   1      31.925  14.510   2.906  0.00  0.00    -0.390 OA
HETATM   53  H   UNK N   1      32.458  13.713   3.050  0.00  0.00     0.210 HD
ENDBRANCH  38  52
ENDBRANCH  33  34
ENDBRANCH  32  33
ENDBRANCH  30  32
BRANCH  30  54
HETATM   54  O   UNK N   1      32.811  13.091   9.246  0.00  0.00    -0.307 OA
HETATM   55  H   UNK N   1      32.585  12.271   8.783  0.00  0.00     0.222 HD
ENDBRANCH  30  54
ENDBRANCH  29  30
ENDBRANCH  27  29
BRANCH  27  56
HETATM   56  O   UNK N   1      33.776  14.887  11.432  0.00  0.00    -0.307 OA
HETATM   57  H   UNK N   1      33.784  14.318  12.217  0.00  0.00     0.222 HD
ENDBRANCH  27  56
ENDBRANCH  26  27
ENDBRANCH  25  26
ENDBRANCH   5  25
TORSDOF 17
ENDMDL
MODEL 7
REMARK VINA RESULT:      -7.8      5.595      8.288
REMARK  17 active torsions:
REMARK  status: ('A' for Active; 'I' for Inactive)
REMARK    1  A    between atoms: P_1  and  O_9 
REMARK    2  A    between atoms: P_1  and  O_11 
REMARK    3  A    between atoms: P_1  and  O_12 
REMARK    4  A    between atoms: P_2  and  O_10 
REMARK    5  A    between atoms: P_2  and  O_11 
REMARK    6  A    between atoms: P_2  and  O_13 
REMARK    7  A    between atoms: C_27  and  O_5 
REMARK    8  A    between atoms: C_31  and  O_7 
REMARK    9  A    between atoms: C_32  and  O_8 
REMARK   10  A    between atoms: O_9  and  C_35 
REMARK   11  A    between atoms: O_10  and  C_36 
REMARK   12  A    between atoms: C_30  and  N_17 
REMARK   13  A    between atoms: C_34  and  N_18 
REMARK   14  A    between atoms: N_25  and  C_45 
REMARK       I    between atoms: N_26  and  C_46 
REMARK   15  A    between atoms: C_29  and  C_35 
REMARK   16  A    between atoms: C_33  and  C_36 
REMARK   17  A    between atoms: C_42  and  C_46 
ROOT
HETATM    1  O   UNK N   1      34.796  17.571   7.831  0.00  0.00    -0.353 OA
HETATM    2  O   UNK N   1      32.965  15.356   8.178  0.00  0.00    -0.388 OA
HETATM    3  C   UNK N   1      32.437  17.640   7.852  0.00  0.00     0.182 C 
HETATM    4  C   UNK N   1      32.871  16.593   8.829  0.00  0.00     0.198 C 
HETATM    5  C   UNK N   1      33.688  17.860   6.999  0.00  0.00     0.180 C 
HETATM    6  C   UNK N   1      34.256  17.165   9.074  0.00  0.00     0.262 C 
HETATM    7  H   UNK N   1      33.057  14.569   7.618  0.00  0.00     0.210 HD
ENDROOT
BRANCH   3   8
HETATM    8  O   UNK N   1      31.302  17.276   7.121  0.00  0.00    -0.390 OA
HETATM    9  H   UNK N   1      30.978  16.364   7.058  0.00  0.00     0.210 HD
ENDBRANCH   3   8
BRANCH   6  10
HETATM   10  N   UNK N   1      35.187  16.307   9.822  0.00  0.00    -0.297 N 
HETATM   11  C   UNK N   1      35.882  15.217   9.446  0.00  0.00     0.142 A 
HETATM   12  N   UNK N   1      35.914  14.611   8.236  0.00  0.00    -0.336 N 
HETATM   13  C   UNK N   1      36.573  14.745  10.505  0.00  0.00     0.122 A 
HETATM   14  C   UNK N   1      36.689  13.490   8.093  0.00  0.00     0.183 A 
ATOM     15  HN  UNK N   1      35.376  14.979   7.452  1.00  0.00     0.168 HD
HETATM   16  N   UNK N   1      37.405  12.998   9.158  0.00  0.00    -0.337 N 
HETATM   17  C   UNK N   1      37.360  13.611  10.377  0.00  0.00     0.131 A 
ATOM     18  HN  UNK N   1      37.977  12.163   9.036  1.00  0.00     0.168 HD
HETATM   19  N   UNK N   1      36.344  15.513  11.583  0.00  0.00    -0.346 N 
HETATM   20  C   UNK N   1      35.478  16.467  11.140  0.00  0.00     0.188 A 
ATOM     21  HN  UNK N   1      36.729  15.407  12.521  1.00  0.00     0.167 HD
BRANCH  17  22
HETATM   22  N   UNK N   1      38.085  13.094  11.470  0.00  0.00    -0.383 N 
HETATM   23  H   UNK N   1      37.759  12.320  11.982  0.00  0.00     0.157 HD
HETATM   24  H   UNK N   1      38.936  13.517  11.726  0.00  0.00     0.157 HD
ENDBRANCH  17  22
ENDBRANCH   6  10
BRANCH   5  25
HETATM   25  C   UNK N   1      33.731  16.941   5.776  0.00  0.00     0.215 C 
BRANCH  25  26
HETATM   26  O   UNK N   1      33.105  17.539   4.672  0.00  0.00    -0.294 OA
BRANCH  26  27
HETATM   27  P   UNK N   1      32.471  16.242   3.680  0.00  0.00     0.401 P 
HETATM   28  O   UNK N   1      33.287  16.218   2.357  0.00  0.00    -0.631 OA
BRANCH  27  29
HETATM   29  O   UNK N   1      32.718  14.688   4.446  0.00  0.00    -0.195 OA
BRANCH  29  30
HETATM   30  P   UNK N   1      31.202  13.945   4.944  0.00  0.00     0.401 P 
HETATM   31  O   UNK N   1      30.855  14.649   6.284  0.00  0.00    -0.631 OA
BRANCH  30  32
HETATM   32  O   UNK N   1      29.758  14.099   3.958  0.00  0.00    -0.294 OA
BRANCH  32  33
HETATM   33  C   UNK N   1      28.705  14.362   4.840  0.00  0.00     0.215 C 
BRANCH  33  34
HETATM   34  C   UNK N   1      27.551  15.137   4.214  0.00  0.00     0.180 C 
HETATM   35  O   UNK N   1      27.938  16.398   3.724  0.00  0.00    -0.353 OA
HETATM   36  C   UNK N   1      26.918  17.305   4.105  0.00  0.00     0.259 C 
HETATM   37  C   UNK N   1      25.701  16.501   4.543  0.00  0.00     0.198 C 
HETATM   38  C   UNK N   1      26.386  15.316   5.153  0.00  0.00     0.182 C 
BRANCH  36  39
HETATM   39  N   UNK N   1      27.405  18.212   5.132  0.00  0.00    -0.337 N 
HETATM   40  C   UNK N   1      27.735  17.706   6.425  0.00  0.00     0.106 A 
HETATM   41  C   UNK N   1      27.937  18.523   7.475  0.00  0.00     0.028 A 
HETATM   42  C   UNK N   1      27.799  20.022   7.327  0.00  0.00     0.074 A 
HETATM   43  C   UNK N   1      27.409  20.478   5.948  0.00  0.00    -0.005 A 
HETATM   44  C   UNK N   1      27.220  19.613   4.947  0.00  0.00     0.089 A 
BRANCH  41  45
HETATM   45  C   UNK N   1      28.279  17.956   8.800  0.00  0.00     0.246 C 
HETATM   46  O   UNK N   1      27.556  17.120   9.321  0.00  0.00    -0.268 OA
HETATM   47  N   UNK N   1      29.391  18.363   9.444  0.00  0.00    -0.366 N 
HETATM   48  H   UNK N   1      29.521  18.171  10.401  0.00  0.00     0.159 HD
HETATM   49  H   UNK N   1      30.084  18.860   8.951  0.00  0.00     0.159 HD
ENDBRANCH  41  45
ENDBRANCH  36  39
BRANCH  37  50
HETATM   50  O   UNK N   1      24.987  16.122   3.401  0.00  0.00    -0.388 OA
HETATM   51  H   UNK N   1      25.091  16.323   2.458  0.00  0.00     0.210 HD
ENDBRANCH  37  50
BRANCH  38  52
HETATM   52  O   UNK N   1      25.563  14.184   5.152  0.00  0.00    -0.390 OA
HETATM   53  H   UNK N   1      25.165  13.795   5.945  0.00  0.00     0.210 HD
ENDBRANCH  38  52
ENDBRANCH  33  34
ENDBRANCH  32  33
ENDBRANCH  30  32
BRANCH  30  54
HETATM   54  O   UNK N   1      31.469  12.295   5.418  0.00  0.00    -0.307 OA
HETATM   55  H   UNK N   1      32.300  11.832   5.236  0.00  0.00     0.222 HD
ENDBRANCH  30  54
ENDBRANCH  29  30
ENDBRANCH  27  29
BRANCH  27  56
HETATM   56  O   UNK N   1      30.834  16.554   3.186  0.00  0.00    -0.307 OA
HETATM   57  H   UNK N   1      29.922  16.254   3.321  0.00  0.00     0.222 HD
ENDBRANCH  27  56
ENDBRANCH  26  27
ENDBRANCH  25  26
ENDBRANCH   5  25
TORSDOF 17
ENDMDL
MODEL 8
REMARK VINA RESULT:      -7.8      8.709     12.185
REMARK  17 active torsions:
REMARK  status: ('A' for Active; 'I' for Inactive)
REMARK    1  A    between atoms: P_1  and  O_9 
REMARK    2  A    between atoms: P_1  and  O_11 
REMARK    3  A    between atoms: P_1  and  O_12 
REMARK    4  A    between atoms: P_2  and  O_10 
REMARK    5  A    between atoms: P_2  and  O_11 
REMARK    6  A    between atoms: P_2  and  O_13 
REMARK    7  A    between atoms: C_27  and  O_5 
REMARK    8  A    between atoms: C_31  and  O_7 
REMARK    9  A    between atoms: C_32  and  O_8 
REMARK   10  A    between atoms: O_9  and  C_35 
REMARK   11  A    between atoms: O_10  and  C_36 
REMARK   12  A    between atoms: C_30  and  N_17 
REMARK   13  A    between atoms: C_34  and  N_18 
REMARK   14  A    between atoms: N_25  and  C_45 
REMARK       I    between atoms: N_26  and  C_46 
REMARK   15  A    between atoms: C_29  and  C_35 
REMARK   16  A    between atoms: C_33  and  C_36 
REMARK   17  A    between atoms: C_42  and  C_46 
ROOT
HETATM    1  O   UNK N   1      21.883  16.812   7.165  0.00  0.00    -0.353 OA
HETATM    2  O   UNK N   1      21.601  14.441   5.528  0.00  0.00    -0.388 OA
HETATM    3  C   UNK N   1      20.694  16.592   5.138  0.00  0.00     0.182 C 
HETATM    4  C   UNK N   1      20.558  15.304   5.888  0.00  0.00     0.198 C 
HETATM    5  C   UNK N   1      21.878  17.273   5.827  0.00  0.00     0.180 C 
HETATM    6  C   UNK N   1      20.813  15.892   7.265  0.00  0.00     0.262 C 
HETATM    7  H   UNK N   1      22.394  13.953   5.255  0.00  0.00     0.210 HD
ENDROOT
BRANCH   3   8
HETATM    8  O   UNK N   1      20.856  16.415   3.761  0.00  0.00    -0.390 OA
HETATM    9  H   UNK N   1      21.281  17.069   3.185  0.00  0.00     0.210 HD
ENDBRANCH   3   8
BRANCH   6  10
HETATM   10  N   UNK N   1      21.022  14.923   8.352  0.00  0.00    -0.297 N 
HETATM   11  C   UNK N   1      22.072  14.133   8.643  0.00  0.00     0.142 A 
HETATM   12  N   UNK N   1      23.255  14.027   7.993  0.00  0.00    -0.336 N 
HETATM   13  C   UNK N   1      21.774  13.380   9.722  0.00  0.00     0.122 A 
HETATM   14  C   UNK N   1      24.176  13.130   8.467  0.00  0.00     0.183 A 
ATOM     15  HN  UNK N   1      23.456  14.599   7.173  1.00  0.00     0.168 HD
HETATM   16  N   UNK N   1      23.894  12.358   9.569  0.00  0.00    -0.337 N 
HETATM   17  C   UNK N   1      22.695  12.467  10.213  0.00  0.00     0.131 A 
ATOM     18  HN  UNK N   1      24.590  11.695   9.909  1.00  0.00     0.168 HD
HETATM   19  N   UNK N   1      20.534  13.663  10.153  0.00  0.00    -0.346 N 
HETATM   20  C   UNK N   1      20.085  14.614   9.286  0.00  0.00     0.188 A 
ATOM     21  HN  UNK N   1      20.040  13.259  10.948  1.00  0.00     0.167 HD
BRANCH  17  22
HETATM   22  N   UNK N   1      22.405  11.663  11.334  0.00  0.00    -0.383 N 
HETATM   23  H   UNK N   1      23.022  11.605  12.098  0.00  0.00     0.157 HD
HETATM   24  H   UNK N   1      21.566  11.149  11.354  0.00  0.00     0.157 HD
ENDBRANCH  17  22
ENDBRANCH   6  10
BRANCH   5  25
HETATM   25  C   UNK N   1      23.216  16.918   5.174  0.00  0.00     0.215 C 
BRANCH  25  26
HETATM   26  O   UNK N   1      24.022  16.172   6.046  0.00  0.00    -0.294 OA
BRANCH  26  27
HETATM   27  P   UNK N   1      25.533  15.869   5.212  0.00  0.00     0.401 P 
HETATM   28  O   UNK N   1      25.432  14.467   4.548  0.00  0.00    -0.631 OA
BRANCH  27  29
HETATM   29  O   UNK N   1      25.775  17.018   3.914  0.00  0.00    -0.195 OA
BRANCH  29  30
HETATM   30  P   UNK N   1      26.909  18.290   4.357  0.00  0.00     0.401 P 
HETATM   31  O   UNK N   1      26.516  18.662   5.812  0.00  0.00    -0.631 OA
BRANCH  30  32
HETATM   32  O   UNK N   1      28.635  17.974   4.415  0.00  0.00    -0.294 OA
BRANCH  32  33
HETATM   33  C   UNK N   1      28.863  16.877   3.577  0.00  0.00     0.215 C 
BRANCH  33  34
HETATM   34  C   UNK N   1      30.173  16.148   3.853  0.00  0.00     0.180 C 
HETATM   35  O   UNK N   1      30.136  15.379   5.032  0.00  0.00    -0.353 OA
HETATM   36  C   UNK N   1      31.371  15.597   5.691  0.00  0.00     0.259 C 
HETATM   37  C   UNK N   1      32.331  16.252   4.706  0.00  0.00     0.198 C 
HETATM   38  C   UNK N   1      31.360  17.075   3.914  0.00  0.00     0.182 C 
BRANCH  36  39
HETATM   39  N   UNK N   1      31.169  16.381   6.899  0.00  0.00    -0.337 N 
HETATM   40  C   UNK N   1      29.843  16.647   7.358  0.00  0.00     0.106 A 
HETATM   41  C   UNK N   1      29.594  17.569   8.304  0.00  0.00     0.028 A 
HETATM   42  C   UNK N   1      30.716  18.382   8.910  0.00  0.00     0.074 A 
HETATM   43  C   UNK N   1      32.078  18.075   8.349  0.00  0.00    -0.005 A 
HETATM   44  C   UNK N   1      32.259  17.148   7.404  0.00  0.00     0.089 A 
BRANCH  41  45
HETATM   45  C   UNK N   1      28.203  17.813   8.751  0.00  0.00     0.246 C 
HETATM   46  O   UNK N   1      27.554  16.918   9.272  0.00  0.00    -0.268 OA
HETATM   47  N   UNK N   1      27.640  19.027   8.582  0.00  0.00    -0.366 N 
HETATM   48  H   UNK N   1      26.666  19.150   8.666  0.00  0.00     0.159 HD
HETATM   49  H   UNK N   1      28.209  19.802   8.372  0.00  0.00     0.159 HD
ENDBRANCH  41  45
ENDBRANCH  36  39
BRANCH  37  50
HETATM   50  O   UNK N   1      32.893  15.252   3.906  0.00  0.00    -0.388 OA
HETATM   51  H   UNK N   1      33.000  14.295   4.020  0.00  0.00     0.210 HD
ENDBRANCH  37  50
BRANCH  38  52
HETATM   52  O   UNK N   1      31.843  17.356   2.632  0.00  0.00    -0.390 OA
HETATM   53  H   UNK N   1      32.782  17.377   2.391  0.00  0.00     0.210 HD
ENDBRANCH  38  52
ENDBRANCH  33  34
ENDBRANCH  32  33
ENDBRANCH  30  32
BRANCH  30  54
HETATM   54  O   UNK N   1      26.562  19.741   3.467  0.00  0.00    -0.307 OA
HETATM   55  H   UNK N   1      25.693  20.167   3.491  0.00  0.00     0.222 HD
ENDBRANCH  30  54
ENDBRANCH  29  30
ENDBRANCH  27  29
BRANCH  27  56
HETATM   56  O   UNK N   1      26.864  15.739   6.322  0.00  0.00    -0.307 OA
HETATM   57  H   UNK N   1      27.830  15.808   6.373  0.00  0.00     0.222 HD
ENDBRANCH  27  56
ENDBRANCH  26  27
ENDBRANCH  25  26
ENDBRANCH   5  25
TORSDOF 17
ENDMDL
MODEL 9
REMARK VINA RESULT:      -7.7      8.061     15.116
REMARK  17 active torsions:
REMARK  status: ('A' for Active; 'I' for Inactive)
REMARK    1  A    between atoms: P_1  and  O_9 
REMARK    2  A    between atoms: P_1  and  O_11 
REMARK    3  A    between atoms: P_1  and  O_12 
REMARK    4  A    between atoms: P_2  and  O_10 
REMARK    5  A    between atoms: P_2  and  O_11 
REMARK    6  A    between atoms: P_2  and  O_13 
REMARK    7  A    between atoms: C_27  and  O_5 
REMARK    8  A    between atoms: C_31  and  O_7 
REMARK    9  A    between atoms: C_32  and  O_8 
REMARK   10  A    between atoms: O_9  and  C_35 
REMARK   11  A    between atoms: O_10  and  C_36 
REMARK   12  A    between atoms: C_30  and  N_17 
REMARK   13  A    between atoms: C_34  and  N_18 
REMARK   14  A    between atoms: N_25  and  C_45 
REMARK       I    between atoms: N_26  and  C_46 
REMARK   15  A    between atoms: C_29  and  C_35 
REMARK   16  A    between atoms: C_33  and  C_36 
REMARK   17  A    between atoms: C_42  and  C_46 
ROOT
HETATM    1  O   UNK N   1      21.565  14.933   3.429  0.00  0.00    -0.353 OA
HETATM    2  O   UNK N   1      18.968  15.728   4.429  0.00  0.00    -0.388 OA
HETATM    3  C   UNK N   1      19.787  13.533   4.095  0.00  0.00     0.182 C 
HETATM    4  C   UNK N   1      19.194  14.748   3.454  0.00  0.00     0.198 C 
HETATM    5  C   UNK N   1      21.221  13.966   4.402  0.00  0.00     0.180 C 
HETATM    6  C   UNK N   1      20.414  15.104   2.624  0.00  0.00     0.262 C 
HETATM    7  H   UNK N   1      18.913  16.353   5.170  0.00  0.00     0.210 HD
ENDROOT
BRANCH   3   8
HETATM    8  O   UNK N   1      19.069  13.092   5.212  0.00  0.00    -0.390 OA
HETATM    9  H   UNK N   1      19.387  13.190   6.123  0.00  0.00     0.210 HD
ENDBRANCH   3   8
BRANCH   6  10
HETATM   10  N   UNK N   1      20.391  16.422   1.972  0.00  0.00    -0.297 N 
HETATM   11  C   UNK N   1      20.609  17.656   2.464  0.00  0.00     0.142 A 
HETATM   12  N   UNK N   1      20.928  18.017   3.730  0.00  0.00    -0.336 N 
HETATM   13  C   UNK N   1      20.431  18.563   1.481  0.00  0.00     0.122 A 
HETATM   14  C   UNK N   1      21.084  19.350   4.003  0.00  0.00     0.183 A 
ATOM     15  HN  UNK N   1      21.048  17.315   4.460  1.00  0.00     0.168 HD
HETATM   16  N   UNK N   1      20.912  20.289   3.014  0.00  0.00    -0.337 N 
HETATM   17  C   UNK N   1      20.584  19.916   1.743  0.00  0.00     0.131 A 
ATOM     18  HN  UNK N   1      21.032  21.278   3.233  1.00  0.00     0.168 HD
HETATM   19  N   UNK N   1      20.096  17.942   0.338  0.00  0.00    -0.346 N 
HETATM   20  C   UNK N   1      20.069  16.620   0.667  0.00  0.00     0.188 A 
ATOM     21  HN  UNK N   1      19.905  18.364  -0.571  1.00  0.00     0.167 HD
BRANCH  17  22
HETATM   22  N   UNK N   1      20.395  20.883   0.734  0.00  0.00    -0.383 N 
HETATM   23  H   UNK N   1      20.625  20.698  -0.204  0.00  0.00     0.157 HD
HETATM   24  H   UNK N   1      20.026  21.763   0.974  0.00  0.00     0.157 HD
ENDBRANCH  17  22
ENDBRANCH   6  10
BRANCH   5  25
HETATM   25  C   UNK N   1      21.359  14.590   5.793  0.00  0.00     0.215 C 
BRANCH  25  26
HETATM   26  O   UNK N   1      22.174  13.804   6.622  0.00  0.00    -0.294 OA
BRANCH  26  27
HETATM   27  P   UNK N   1      23.819  14.364   6.398  0.00  0.00     0.401 P 
HETATM   28  O   UNK N   1      24.651  13.885   7.620  0.00  0.00    -0.631 OA
BRANCH  27  29
HETATM   29  O   UNK N   1      24.545  13.632   4.984  0.00  0.00    -0.195 OA
BRANCH  29  30
HETATM   30  P   UNK N   1      25.771  14.665   4.257  0.00  0.00     0.401 P 
HETATM   31  O   UNK N   1      24.994  15.939   3.831  0.00  0.00    -0.631 OA
BRANCH  30  32
HETATM   32  O   UNK N   1      27.128  15.252   5.205  0.00  0.00    -0.294 OA
BRANCH  32  33
HETATM   33  C   UNK N   1      27.123  16.645   5.078  0.00  0.00     0.215 C 
BRANCH  33  34
HETATM   34  C   UNK N   1      27.385  17.388   6.383  0.00  0.00     0.180 C 
HETATM   35  O   UNK N   1      28.426  18.329   6.279  0.00  0.00    -0.353 OA
HETATM   36  C   UNK N   1      29.204  18.196   7.457  0.00  0.00     0.259 C 
HETATM   37  C   UNK N   1      28.406  17.383   8.469  0.00  0.00     0.198 C 
HETATM   38  C   UNK N   1      27.677  16.464   7.537  0.00  0.00     0.182 C 
BRANCH  36  39
HETATM   39  N   UNK N   1      30.498  17.610   7.146  0.00  0.00    -0.337 N 
HETATM   40  C   UNK N   1      31.526  17.594   8.136  0.00  0.00     0.106 A 
HETATM   41  C   UNK N   1      32.803  17.308   7.826  0.00  0.00     0.028 A 
HETATM   42  C   UNK N   1      33.206  17.009   6.399  0.00  0.00     0.074 A 
HETATM   43  C   UNK N   1      32.078  17.083   5.407  0.00  0.00    -0.005 A 
HETATM   44  C   UNK N   1      30.829  17.378   5.779  0.00  0.00     0.089 A 
BRANCH  41  45
HETATM   45  C   UNK N   1      33.839  17.303   8.885  0.00  0.00     0.246 C 
HETATM   46  O   UNK N   1      34.720  18.149   8.894  0.00  0.00    -0.268 OA
HETATM   47  N   UNK N   1      33.818  16.358   9.848  0.00  0.00    -0.366 N 
HETATM   48  H   UNK N   1      34.603  16.202  10.421  0.00  0.00     0.159 HD
HETATM   49  H   UNK N   1      33.007  15.816   9.979  0.00  0.00     0.159 HD
ENDBRANCH  41  45
ENDBRANCH  36  39
BRANCH  37  50
HETATM   50  O   UNK N   1      27.509  18.240   9.115  0.00  0.00    -0.388 OA
HETATM   51  H   UNK N   1      27.332  19.191   9.041  0.00  0.00     0.210 HD
ENDBRANCH  37  50
BRANCH  38  52
HETATM   52  O   UNK N   1      26.492  15.982   8.105  0.00  0.00    -0.390 OA
HETATM   53  H   UNK N   1      25.609  16.335   7.915  0.00  0.00     0.210 HD
ENDBRANCH  38  52
ENDBRANCH  33  34
ENDBRANCH  32  33
ENDBRANCH  30  32
BRANCH  30  54
HETATM   54  O   UNK N   1      26.302  13.996   2.745  0.00  0.00    -0.307 OA
HETATM   55  H   UNK N   1      26.543  13.062   2.648  0.00  0.00     0.222 HD
ENDBRANCH  30  54
ENDBRANCH  29  30
ENDBRANCH  27  29
BRANCH  27  56
HETATM   56  O   UNK N   1      23.917  16.099   6.447  0.00  0.00    -0.307 OA
HETATM   57  H   UNK N   1      24.370  16.854   6.040  0.00  0.00     0.222 HD
ENDBRANCH  27  56
ENDBRANCH  26  27
ENDBRANCH  25  26
ENDBRANCH   5  25
TORSDOF 17
ENDMDL
