MODEL 1
REMARK VINA RESULT:      -4.9      0.000      0.000
REMARK  5 active torsions:
REMARK  status: ('A' for Active; 'I' for Inactive)
REMARK    1  A    between atoms: C_8  and  C_2 
REMARK    2  A    between atoms: C_12  and  C_5 
REMARK    3  A    between atoms: O_11  and  C_6 
REMARK    4  A    between atoms: O_9  and  C_8 
REMARK    5  A    between atoms: C_12  and  O_13 
ROOT
HETATM    1  C   UNK N   1      24.398  12.043  11.078  0.00  0.00     0.098 A 
HETATM    2  C   UNK N   1      23.098  12.027  11.588  0.00  0.00    -0.008 A 
HETATM    3  N   UNK N   1      24.624  12.176   9.745  0.00  0.00    -0.367 N 
ATOM      4  HN  UNK N   1      25.585  12.186   9.403  1.00  0.00     0.165 HD
HETATM    5  C   UNK N   1      22.012  12.154  10.684  0.00  0.00     0.010 A 
HETATM    6  C   UNK N   1      22.277  12.283   9.307  0.00  0.00     0.096 A 
HETATM    7  C   UNK N   1      23.606  12.293   8.858  0.00  0.00     0.039 A 
HETATM    8  C   UNK N   1      23.919  12.449   7.408  0.00  0.00     0.071 C 
ENDROOT
BRANCH   2   9
HETATM    9  C   UNK N   1      22.962  11.885  13.084  0.00  0.00     0.205 C 
BRANCH   9  10
HETATM   10  O   UNK N   1      23.943  12.564  13.809  0.00  0.00    -0.396 OA
HETATM   11  H   UNK N   1      24.721  12.931  13.362  0.00  0.00     0.209 HD
ENDBRANCH   9  10
ENDBRANCH   2   9
BRANCH   5  12
HETATM   12  C   UNK N   1      20.590  12.191  11.167  0.00  0.00     0.206 C 
BRANCH  12  13
HETATM   13  O   UNK N   1      19.903  13.258  10.590  0.00  0.00    -0.396 OA
HETATM   14  H   UNK N   1      19.698  13.721   9.762  0.00  0.00     0.209 HD
ENDBRANCH  12  13
ENDBRANCH   5  12
BRANCH   6  15
HETATM   15  O   UNK N   1      21.266  12.407   8.426  0.00  0.00    -0.358 OA
HETATM   16  H   UNK N   1      20.572  11.779   8.415  0.00  0.00     0.217 HD
ENDBRANCH   6  15
TORSDOF 5
ENDMDL
MODEL 2
REMARK VINA RESULT:      -4.8      2.096      2.970
REMARK  5 active torsions:
REMARK  status: ('A' for Active; 'I' for Inactive)
REMARK    1  A    between atoms: C_8  and  C_2 
REMARK    2  A    between atoms: C_12  and  C_5 
REMARK    3  A    between atoms: O_11  and  C_6 
REMARK    4  A    between atoms: O_9  and  C_8 
REMARK    5  A    between atoms: C_12  and  O_13 
ROOT
HETATM    1  C   UNK N   1      21.224  12.429  11.348  0.00  0.00     0.098 A 
HETATM    2  C   UNK N   1      22.591  12.179  11.481  0.00  0.00    -0.008 A 
HETATM    3  N   UNK N   1      20.719  12.967  10.208  0.00  0.00    -0.367 N 
ATOM      4  HN  UNK N   1      19.715  13.135  10.140  1.00  0.00     0.165 HD
HETATM    5  C   UNK N   1      23.449  12.496  10.396  0.00  0.00     0.010 A 
HETATM    6  C   UNK N   1      22.897  13.059   9.228  0.00  0.00     0.096 A 
HETATM    7  C   UNK N   1      21.514  13.285   9.157  0.00  0.00     0.039 A 
HETATM    8  C   UNK N   1      20.899  13.860   7.926  0.00  0.00     0.071 C 
ENDROOT
BRANCH   2   9
HETATM    9  C   UNK N   1      23.043  11.571  12.786  0.00  0.00     0.205 C 
BRANCH   9  10
HETATM   10  O   UNK N   1      23.803  12.432  13.579  0.00  0.00    -0.396 OA
HETATM   11  H   UNK N   1      24.516  12.086  14.138  0.00  0.00     0.209 HD
ENDBRANCH   9  10
ENDBRANCH   2   9
BRANCH   5  12
HETATM   12  C   UNK N   1      24.922  12.211  10.451  0.00  0.00     0.206 C 
BRANCH  12  13
HETATM   13  O   UNK N   1      25.582  13.181  11.206  0.00  0.00    -0.396 OA
HETATM   14  H   UNK N   1      26.441  13.483  11.541  0.00  0.00     0.209 HD
ENDBRANCH  12  13
ENDBRANCH   5  12
BRANCH   6  15
HETATM   15  O   UNK N   1      23.686  13.369   8.181  0.00  0.00    -0.358 OA
HETATM   16  H   UNK N   1      24.378  13.992   8.282  0.00  0.00     0.217 HD
ENDBRANCH   6  15
TORSDOF 5
ENDMDL
MODEL 3
REMARK VINA RESULT:      -4.8      9.461     11.011
REMARK  5 active torsions:
REMARK  status: ('A' for Active; 'I' for Inactive)
REMARK    1  A    between atoms: C_8  and  C_2 
REMARK    2  A    between atoms: C_12  and  C_5 
REMARK    3  A    between atoms: O_11  and  C_6 
REMARK    4  A    between atoms: O_9  and  C_8 
REMARK    5  A    between atoms: C_12  and  O_13 
ROOT
HETATM    1  C   UNK N   1      22.672  18.856   3.884  0.00  0.00     0.098 A 
HETATM    2  C   UNK N   1      22.323  19.884   3.006  0.00  0.00    -0.008 A 
HETATM    3  N   UNK N   1      21.825  17.821   4.119  0.00  0.00    -0.367 N 
ATOM      4  HN  UNK N   1      22.109  17.083   4.764  1.00  0.00     0.165 HD
HETATM    5  C   UNK N   1      21.062  19.827   2.358  0.00  0.00     0.010 A 
HETATM    6  C   UNK N   1      20.202  18.745   2.627  0.00  0.00     0.096 A 
HETATM    7  C   UNK N   1      20.612  17.743   3.520  0.00  0.00     0.039 A 
HETATM    8  C   UNK N   1      19.731  16.574   3.808  0.00  0.00     0.071 C 
ENDROOT
BRANCH   2   9
HETATM    9  C   UNK N   1      23.343  20.980   2.811  0.00  0.00     0.205 C 
BRANCH   9  10
HETATM   10  O   UNK N   1      24.395  20.631   1.962  0.00  0.00    -0.396 OA
HETATM   11  H   UNK N   1      25.252  20.359   2.324  0.00  0.00     0.209 HD
ENDBRANCH   9  10
ENDBRANCH   2   9
BRANCH   5  12
HETATM   12  C   UNK N   1      20.642  20.874   1.366  0.00  0.00     0.206 C 
BRANCH  12  13
HETATM   13  O   UNK N   1      20.600  20.342   0.078  0.00  0.00    -0.396 OA
HETATM   14  H   UNK N   1      20.991  19.697  -0.532  0.00  0.00     0.209 HD
ENDBRANCH  12  13
ENDBRANCH   5  12
BRANCH   6  15
HETATM   15  O   UNK N   1      19.000  18.663   2.026  0.00  0.00    -0.358 OA
HETATM   16  H   UNK N   1      18.229  18.509   2.535  0.00  0.00     0.217 HD
ENDBRANCH   6  15
TORSDOF 5
ENDMDL
MODEL 4
REMARK VINA RESULT:      -4.6      9.489     10.912
REMARK  5 active torsions:
REMARK  status: ('A' for Active; 'I' for Inactive)
REMARK    1  A    between atoms: C_8  and  C_2 
REMARK    2  A    between atoms: C_12  and  C_5 
REMARK    3  A    between atoms: O_11  and  C_6 
REMARK    4  A    between atoms: O_9  and  C_8 
REMARK    5  A    between atoms: C_12  and  O_13 
ROOT
HETATM    1  C   UNK N   1      21.611  17.702   3.870  0.00  0.00     0.098 A 
HETATM    2  C   UNK N   1      20.901  18.585   3.054  0.00  0.00    -0.008 A 
HETATM    3  N   UNK N   1      22.876  17.988   4.274  0.00  0.00    -0.367 N 
ATOM      4  HN  UNK N   1      23.369  17.324   4.872  1.00  0.00     0.165 HD
HETATM    5  C   UNK N   1      21.527  19.794   2.655  0.00  0.00     0.010 A 
HETATM    6  C   UNK N   1      22.842  20.060   3.084  0.00  0.00     0.096 A 
HETATM    7  C   UNK N   1      23.501  19.132   3.904  0.00  0.00     0.039 A 
HETATM    8  C   UNK N   1      24.887  19.396   4.391  0.00  0.00     0.071 C 
ENDROOT
BRANCH   2   9
HETATM    9  C   UNK N   1      19.500  18.173   2.673  0.00  0.00     0.205 C 
BRANCH   9  10
HETATM   10  O   UNK N   1      19.396  17.644   1.386  0.00  0.00    -0.396 OA
HETATM   11  H   UNK N   1      19.745  16.762   1.185  0.00  0.00     0.209 HD
ENDBRANCH   9  10
ENDBRANCH   2   9
BRANCH   5  12
HETATM   12  C   UNK N   1      20.806  20.811   1.816  0.00  0.00     0.206 C 
BRANCH  12  13
HETATM   13  O   UNK N   1      21.277  20.789   0.504  0.00  0.00    -0.396 OA
HETATM   14  H   UNK N   1      21.472  20.230  -0.264  0.00  0.00     0.209 HD
ENDBRANCH  12  13
ENDBRANCH   5  12
BRANCH   6  15
HETATM   15  O   UNK N   1      23.461  21.200   2.722  0.00  0.00    -0.358 OA
HETATM   16  H   UNK N   1      24.395  21.259   2.753  0.00  0.00     0.217 HD
ENDBRANCH   6  15
TORSDOF 5
ENDMDL
MODEL 5
REMARK VINA RESULT:      -4.6      8.837      9.789
REMARK  5 active torsions:
REMARK  status: ('A' for Active; 'I' for Inactive)
REMARK    1  A    between atoms: C_8  and  C_2 
REMARK    2  A    between atoms: C_12  and  C_5 
REMARK    3  A    between atoms: O_11  and  C_6 
REMARK    4  A    between atoms: O_9  and  C_8 
REMARK    5  A    between atoms: C_12  and  O_13 
ROOT
HETATM    1  C   UNK N   1      29.349  17.899   5.104  0.00  0.00     0.098 A 
HETATM    2  C   UNK N   1      29.421  17.733   6.488  0.00  0.00    -0.008 A 
HETATM    3  N   UNK N   1      28.496  18.801   4.552  0.00  0.00    -0.367 N 
ATOM      4  HN  UNK N   1      28.468  18.901   3.537  1.00  0.00     0.165 HD
HETATM    5  C   UNK N   1      28.584  18.529   7.313  0.00  0.00     0.010 A 
HETATM    6  C   UNK N   1      27.705  19.450   6.711  0.00  0.00     0.096 A 
HETATM    7  C   UNK N   1      27.681  19.570   5.314  0.00  0.00     0.039 A 
HETATM    8  C   UNK N   1      26.776  20.552   4.649  0.00  0.00     0.071 C 
ENDROOT
BRANCH   2   9
HETATM    9  C   UNK N   1      30.409  16.711   6.995  0.00  0.00     0.205 C 
BRANCH   9  10
HETATM   10  O   UNK N   1      31.666  17.239   7.296  0.00  0.00    -0.396 OA
HETATM   11  H   UNK N   1      31.750  18.011   7.877  0.00  0.00     0.209 HD
ENDBRANCH   9  10
ENDBRANCH   2   9
BRANCH   5  12
HETATM   12  C   UNK N   1      28.642  18.436   8.811  0.00  0.00     0.206 C 
BRANCH  12  13
HETATM   13  O   UNK N   1      27.370  18.216   9.339  0.00  0.00    -0.396 OA
HETATM   14  H   UNK N   1      26.440  18.037   9.131  0.00  0.00     0.209 HD
ENDBRANCH  12  13
ENDBRANCH   5  12
BRANCH   6  15
HETATM   15  O   UNK N   1      26.900  20.220   7.469  0.00  0.00    -0.358 OA
HETATM   16  H   UNK N   1      26.004  20.345   7.227  0.00  0.00     0.217 HD
ENDBRANCH   6  15
TORSDOF 5
ENDMDL
MODEL 6
REMARK VINA RESULT:      -4.6     10.741     12.251
REMARK  5 active torsions:
REMARK  status: ('A' for Active; 'I' for Inactive)
REMARK    1  A    between atoms: C_8  and  C_2 
REMARK    2  A    between atoms: C_12  and  C_5 
REMARK    3  A    between atoms: O_11  and  C_6 
REMARK    4  A    between atoms: O_9  and  C_8 
REMARK    5  A    between atoms: C_12  and  O_13 
ROOT
HETATM    1  C   UNK N   1      32.328  15.048   9.443  0.00  0.00     0.098 A 
HETATM    2  C   UNK N   1      32.414  16.172   8.619  0.00  0.00    -0.008 A 
HETATM    3  N   UNK N   1      33.276  14.797  10.383  0.00  0.00    -0.367 N 
ATOM      4  HN  UNK N   1      33.185  13.969  10.972  1.00  0.00     0.165 HD
HETATM    5  C   UNK N   1      33.514  17.053   8.783  0.00  0.00     0.010 A 
HETATM    6  C   UNK N   1      34.485  16.763   9.761  0.00  0.00     0.096 A 
HETATM    7  C   UNK N   1      34.341  15.617  10.558  0.00  0.00     0.039 A 
HETATM    8  C   UNK N   1      35.342  15.295  11.616  0.00  0.00     0.071 C 
ENDROOT
BRANCH   2   9
HETATM    9  C   UNK N   1      31.302  16.359   7.616  0.00  0.00     0.205 C 
BRANCH   9  10
HETATM   10  O   UNK N   1      30.242  17.138   8.084  0.00  0.00    -0.396 OA
HETATM   11  H   UNK N   1      29.387  17.131   7.628  0.00  0.00     0.209 HD
ENDBRANCH   9  10
ENDBRANCH   2   9
BRANCH   5  12
HETATM   12  C   UNK N   1      33.645  18.304   7.963  0.00  0.00     0.206 C 
BRANCH  12  13
HETATM   13  O   UNK N   1      34.604  18.139   6.964  0.00  0.00    -0.396 OA
HETATM   14  H   UNK N   1      34.754  18.029   6.011  0.00  0.00     0.209 HD
ENDBRANCH  12  13
ENDBRANCH   5  12
BRANCH   6  15
HETATM   15  O   UNK N   1      35.539  17.582   9.940  0.00  0.00    -0.358 OA
HETATM   16  H   UNK N   1      36.145  17.729   9.241  0.00  0.00     0.217 HD
ENDBRANCH   6  15
TORSDOF 5
ENDMDL
MODEL 7
REMARK VINA RESULT:      -4.6      1.738      3.596
REMARK  5 active torsions:
REMARK  status: ('A' for Active; 'I' for Inactive)
REMARK    1  A    between atoms: C_8  and  C_2 
REMARK    2  A    between atoms: C_12  and  C_5 
REMARK    3  A    between atoms: O_11  and  C_6 
REMARK    4  A    between atoms: O_9  and  C_8 
REMARK    5  A    between atoms: C_12  and  O_13 
ROOT
HETATM    1  C   UNK N   1      24.970  12.904   9.988  0.00  0.00     0.098 A 
HETATM    2  C   UNK N   1      23.918  12.962   9.071  0.00  0.00    -0.008 A 
HETATM    3  N   UNK N   1      24.753  12.529  11.276  0.00  0.00    -0.367 N 
ATOM      4  HN  UNK N   1      25.542  12.494  11.922  1.00  0.00     0.165 HD
HETATM    5  C   UNK N   1      22.613  12.618   9.509  0.00  0.00     0.010 A 
HETATM    6  C   UNK N   1      22.419  12.240  10.852  0.00  0.00     0.096 A 
HETATM    7  C   UNK N   1      23.517  12.201  11.724  0.00  0.00     0.039 A 
HETATM    8  C   UNK N   1      23.345  11.785  13.146  0.00  0.00     0.071 C 
ENDROOT
BRANCH   2   9
HETATM    9  C   UNK N   1      24.272  13.382   7.665  0.00  0.00     0.205 C 
BRANCH   9  10
HETATM   10  O   UNK N   1      25.583  13.840   7.523  0.00  0.00    -0.396 OA
HETATM   11  H   UNK N   1      25.776  14.622   6.983  0.00  0.00     0.209 HD
ENDBRANCH   9  10
ENDBRANCH   2   9
BRANCH   5  12
HETATM   12  C   UNK N   1      21.445  12.614   8.565  0.00  0.00     0.206 C 
BRANCH  12  13
HETATM   13  O   UNK N   1      20.456  13.493   9.004  0.00  0.00    -0.396 OA
HETATM   14  H   UNK N   1      19.932  14.280   8.783  0.00  0.00     0.209 HD
ENDBRANCH  12  13
ENDBRANCH   5  12
BRANCH   6  15
HETATM   15  O   UNK N   1      21.192  11.907  11.296  0.00  0.00    -0.358 OA
HETATM   16  H   UNK N   1      21.088  11.512  12.139  0.00  0.00     0.217 HD
ENDBRANCH   6  15
TORSDOF 5
ENDMDL
MODEL 8
REMARK VINA RESULT:      -4.5     22.160     23.565
REMARK  5 active torsions:
REMARK  status: ('A' for Active; 'I' for Inactive)
REMARK    1  A    between atoms: C_8  and  C_2 
REMARK    2  A    between atoms: C_12  and  C_5 
REMARK    3  A    between atoms: O_11  and  C_6 
REMARK    4  A    between atoms: O_9  and  C_8 
REMARK    5  A    between atoms: C_12  and  O_13 
ROOT
HETATM    1  C   UNK N   1      43.897  23.229   2.704  0.00  0.00     0.098 A 
HETATM    2  C   UNK N   1      43.682  21.907   3.099  0.00  0.00    -0.008 A 
HETATM    3  N   UNK N   1      42.945  23.918   2.023  0.00  0.00    -0.367 N 
ATOM      4  HN  UNK N   1      43.131  24.884   1.750  1.00  0.00     0.165 HD
HETATM    5  C   UNK N   1      42.443  21.294   2.777  0.00  0.00     0.010 A 
HETATM    6  C   UNK N   1      41.478  22.032   2.064  0.00  0.00     0.096 A 
HETATM    7  C   UNK N   1      41.756  23.357   1.696  0.00  0.00     0.039 A 
HETATM    8  C   UNK N   1      40.745  24.170   0.959  0.00  0.00     0.071 C 
ENDROOT
BRANCH   2   9
HETATM    9  C   UNK N   1      44.802  21.240   3.859  0.00  0.00     0.205 C 
BRANCH   9  10
HETATM   10  O   UNK N   1      45.823  22.110   4.245  0.00  0.00    -0.396 OA
HETATM   11  H   UNK N   1      46.199  22.740   3.612  0.00  0.00     0.209 HD
ENDBRANCH   9  10
ENDBRANCH   2   9
BRANCH   5  12
HETATM   12  C   UNK N   1      42.126  19.892   3.212  0.00  0.00     0.206 C 
BRANCH  12  13
HETATM   13  O   UNK N   1      40.945  19.862   3.953  0.00  0.00    -0.396 OA
HETATM   14  H   UNK N   1      39.980  19.953   3.920  0.00  0.00     0.209 HD
ENDBRANCH  12  13
ENDBRANCH   5  12
BRANCH   6  15
HETATM   15  O   UNK N   1      40.293  21.477   1.746  0.00  0.00    -0.358 OA
HETATM   16  H   UNK N   1      40.119  21.212   0.865  0.00  0.00     0.217 HD
ENDBRANCH   6  15
TORSDOF 5
ENDMDL
MODEL 9
REMARK VINA RESULT:      -4.4      9.592     10.923
REMARK  5 active torsions:
REMARK  status: ('A' for Active; 'I' for Inactive)
REMARK    1  A    between atoms: C_8  and  C_2 
REMARK    2  A    between atoms: C_12  and  C_5 
REMARK    3  A    between atoms: O_11  and  C_6 
REMARK    4  A    between atoms: O_9  and  C_8 
REMARK    5  A    between atoms: C_12  and  O_13 
ROOT
HETATM    1  C   UNK N   1      32.248  17.666   8.420  0.00  0.00     0.098 A 
HETATM    2  C   UNK N   1      32.223  17.372   7.055  0.00  0.00    -0.008 A 
HETATM    3  N   UNK N   1      31.096  17.788   9.129  0.00  0.00    -0.367 N 
ATOM      4  HN  UNK N   1      31.146  18.000  10.125  1.00  0.00     0.165 HD
HETATM    5  C   UNK N   1      30.966  17.200   6.419  0.00  0.00     0.010 A 
HETATM    6  C   UNK N   1      29.788  17.339   7.179  0.00  0.00     0.096 A 
HETATM    7  C   UNK N   1      29.881  17.635   8.547  0.00  0.00     0.039 A 
HETATM    8  C   UNK N   1      28.652  17.767   9.382  0.00  0.00     0.071 C 
ENDROOT
BRANCH   2   9
HETATM    9  C   UNK N   1      33.561  17.249   6.367  0.00  0.00     0.205 C 
BRANCH   9  10
HETATM   10  O   UNK N   1      34.538  18.109   6.871  0.00  0.00    -0.396 OA
HETATM   11  H   UNK N   1      35.306  18.353   6.331  0.00  0.00     0.209 HD
ENDBRANCH   9  10
ENDBRANCH   2   9
BRANCH   5  12
HETATM   12  C   UNK N   1      30.866  16.837   4.965  0.00  0.00     0.206 C 
BRANCH  12  13
HETATM   13  O   UNK N   1      30.293  17.880   4.237  0.00  0.00    -0.396 OA
HETATM   14  H   UNK N   1      30.323  18.830   4.046  0.00  0.00     0.209 HD
ENDBRANCH  12  13
ENDBRANCH   5  12
BRANCH   6  15
HETATM   15  O   UNK N   1      28.582  17.180   6.603  0.00  0.00    -0.358 OA
HETATM   16  H   UNK N   1      28.423  16.450   6.038  0.00  0.00     0.217 HD
ENDBRANCH   6  15
TORSDOF 5
ENDMDL
