MODEL 1
REMARK VINA RESULT:      -5.0      0.000      0.000
REMARK  6 active torsions:
REMARK  status: ('A' for Active; 'I' for Inactive)
REMARK    1  A    between atoms: C_7  and  O_2 
REMARK    2  A    between atoms: C_6  and  O_3 
REMARK    3  A    between atoms: O_8  and  C_9 
REMARK    4  A    between atoms: C_9  and  C_10 
REMARK    5  A    between atoms: C_12  and  C_10 
REMARK    6  A    between atoms: C_10  and  O_11 
ROOT
HETATM    1  O   UNK N   1      34.635  17.476   9.681  0.00  0.00    -0.301 OA
HETATM    2  C   UNK N   1      34.791  18.169   8.539  0.00  0.00     0.320 A 
HETATM    3  O   UNK N   1      35.279  19.285   8.480  0.00  0.00    -0.257 OA
HETATM    4  C   UNK N   1      34.303  17.409   7.431  0.00  0.00     0.173 A 
HETATM    5  C   UNK N   1      33.865  16.269   7.917  0.00  0.00     0.114 A 
HETATM    6  C   UNK N   1      34.056  16.232   9.425  0.00  0.00     0.222 A 
ENDROOT
BRANCH   6   7
HETATM    7  C   UNK N   1      35.005  15.109   9.862  0.00  0.00     0.177 C 
BRANCH   7   8
HETATM    8  C   UNK N   1      35.802  15.455  11.119  0.00  0.00     0.198 C 
BRANCH   8   9
HETATM    9  O   UNK N   1      36.985  16.123  10.795  0.00  0.00    -0.398 OA
HETATM   10  H   UNK N   1      37.776  16.615  11.067  0.00  0.00     0.209 HD
ENDBRANCH   8   9
ENDBRANCH   7   8
BRANCH   7  11
HETATM   11  O   UNK N   1      35.877  14.786   8.820  0.00  0.00    -0.390 OA
HETATM   12  H   UNK N   1      36.574  14.116   8.894  0.00  0.00     0.210 HD
ENDBRANCH   7  11
ENDBRANCH   6   7
BRANCH   5  13
HETATM   13  O   UNK N   1      33.320  15.286   7.174  0.00  0.00    -0.359 OA
HETATM   14  H   UNK N   1      33.558  14.390   7.311  0.00  0.00     0.217 HD
ENDBRANCH   5  13
BRANCH   4  15
HETATM   15  O   UNK N   1      34.287  17.777   6.136  0.00  0.00    -0.353 OA
HETATM   16  H   UNK N   1      34.435  18.656   5.850  0.00  0.00     0.218 HD
ENDBRANCH   4  15
TORSDOF 6
ENDMDL
MODEL 2
REMARK VINA RESULT:      -4.9     13.842     15.133
REMARK  6 active torsions:
REMARK  status: ('A' for Active; 'I' for Inactive)
REMARK    1  A    between atoms: C_7  and  O_2 
REMARK    2  A    between atoms: C_6  and  O_3 
REMARK    3  A    between atoms: O_8  and  C_9 
REMARK    4  A    between atoms: C_9  and  C_10 
REMARK    5  A    between atoms: C_12  and  C_10 
REMARK    6  A    between atoms: C_10  and  O_11 
ROOT
HETATM    1  O   UNK N   1      21.190  19.985   3.901  0.00  0.00    -0.301 OA
HETATM    2  C   UNK N   1      21.439  20.510   2.687  0.00  0.00     0.320 A 
HETATM    3  O   UNK N   1      22.158  21.476   2.498  0.00  0.00    -0.257 OA
HETATM    4  C   UNK N   1      20.743  19.774   1.679  0.00  0.00     0.173 A 
HETATM    5  C   UNK N   1      20.087  18.815   2.295  0.00  0.00     0.114 A 
HETATM    6  C   UNK N   1      20.338  18.884   3.792  0.00  0.00     0.222 A 
ENDROOT
BRANCH   6   7
HETATM    7  C   UNK N   1      21.035  17.624   4.322  0.00  0.00     0.177 C 
BRANCH   7   8
HETATM    8  C   UNK N   1      22.031  17.919   5.443  0.00  0.00     0.198 C 
BRANCH   8   9
HETATM    9  O   UNK N   1      21.416  18.600   6.495  0.00  0.00    -0.398 OA
HETATM   10  H   UNK N   1      21.246  19.422   6.981  0.00  0.00     0.209 HD
ENDBRANCH   8   9
ENDBRANCH   7   8
BRANCH   7  11
HETATM   11  O   UNK N   1      21.678  16.958   3.277  0.00  0.00    -0.390 OA
HETATM   12  H   UNK N   1      21.758  15.993   3.227  0.00  0.00     0.210 HD
ENDBRANCH   7  11
ENDBRANCH   6   7
BRANCH   5  13
HETATM   13  O   UNK N   1      19.302  17.912   1.674  0.00  0.00    -0.359 OA
HETATM   14  H   UNK N   1      18.742  18.167   0.968  0.00  0.00     0.217 HD
ENDBRANCH   5  13
BRANCH   4  15
HETATM   15  O   UNK N   1      20.745  20.007   0.353  0.00  0.00    -0.353 OA
HETATM   16  H   UNK N   1      20.094  20.524  -0.079  0.00  0.00     0.218 HD
ENDBRANCH   4  15
TORSDOF 6
ENDMDL
MODEL 3
REMARK VINA RESULT:      -4.6      1.637      3.253
REMARK  6 active torsions:
REMARK  status: ('A' for Active; 'I' for Inactive)
REMARK    1  A    between atoms: C_7  and  O_2 
REMARK    2  A    between atoms: C_6  and  O_3 
REMARK    3  A    between atoms: O_8  and  C_9 
REMARK    4  A    between atoms: C_9  and  C_10 
REMARK    5  A    between atoms: C_12  and  C_10 
REMARK    6  A    between atoms: C_10  and  O_11 
ROOT
HETATM    1  O   UNK N   1      34.149  16.031   7.372  0.00  0.00    -0.301 OA
HETATM    2  C   UNK N   1      34.335  17.342   7.136  0.00  0.00     0.320 A 
HETATM    3  O   UNK N   1      34.205  17.863   6.041  0.00  0.00    -0.257 OA
HETATM    4  C   UNK N   1      34.701  18.013   8.344  0.00  0.00     0.173 A 
HETATM    5  C   UNK N   1      34.727  17.101   9.290  0.00  0.00     0.114 A 
HETATM    6  C   UNK N   1      34.363  15.740   8.720  0.00  0.00     0.222 A 
ENDROOT
BRANCH   6   7
HETATM    7  C   UNK N   1      33.084  15.172   9.347  0.00  0.00     0.177 C 
BRANCH   7   8
HETATM    8  C   UNK N   1      32.431  14.087   8.492  0.00  0.00     0.198 C 
BRANCH   8   9
HETATM    9  O   UNK N   1      32.421  12.860   9.159  0.00  0.00    -0.398 OA
HETATM   10  H   UNK N   1      32.109  11.945   9.233  0.00  0.00     0.209 HD
ENDBRANCH   8   9
ENDBRANCH   7   8
BRANCH   7  11
HETATM   11  O   UNK N   1      32.171  16.201   9.588  0.00  0.00    -0.390 OA
HETATM   12  H   UNK N   1      31.703  16.677   8.886  0.00  0.00     0.210 HD
ENDBRANCH   7  11
ENDBRANCH   6   7
BRANCH   5  13
HETATM   13  O   UNK N   1      35.042  17.351  10.577  0.00  0.00    -0.359 OA
HETATM   14  H   UNK N   1      34.952  16.687  11.232  0.00  0.00     0.217 HD
ENDBRANCH   5  13
BRANCH   4  15
HETATM   15  O   UNK N   1      34.972  19.323   8.498  0.00  0.00    -0.353 OA
HETATM   16  H   UNK N   1      34.314  19.966   8.675  0.00  0.00     0.218 HD
ENDBRANCH   4  15
TORSDOF 6
ENDMDL
MODEL 4
REMARK VINA RESULT:      -4.6      3.297      5.963
REMARK  6 active torsions:
REMARK  status: ('A' for Active; 'I' for Inactive)
REMARK    1  A    between atoms: C_7  and  O_2 
REMARK    2  A    between atoms: C_6  and  O_3 
REMARK    3  A    between atoms: O_8  and  C_9 
REMARK    4  A    between atoms: C_9  and  C_10 
REMARK    5  A    between atoms: C_12  and  C_10 
REMARK    6  A    between atoms: C_10  and  O_11 
ROOT
HETATM    1  O   UNK N   1      35.104  14.035  13.408  0.00  0.00    -0.301 OA
HETATM    2  C   UNK N   1      35.082  12.698  13.261  0.00  0.00     0.320 A 
HETATM    3  O   UNK N   1      34.226  11.973  13.740  0.00  0.00    -0.257 OA
HETATM    4  C   UNK N   1      36.196  12.270  12.473  0.00  0.00     0.173 A 
HETATM    5  C   UNK N   1      36.871  13.352  12.154  0.00  0.00     0.114 A 
HETATM    6  C   UNK N   1      36.199  14.583  12.741  0.00  0.00     0.222 A 
ENDROOT
BRANCH   6   7
HETATM    7  C   UNK N   1      35.722  15.556  11.655  0.00  0.00     0.177 C 
BRANCH   7   8
HETATM    8  C   UNK N   1      34.712  14.931  10.694  0.00  0.00     0.198 C 
BRANCH   8   9
HETATM    9  O   UNK N   1      33.421  14.977  11.223  0.00  0.00    -0.398 OA
HETATM   10  H   UNK N   1      32.780  15.349  11.848  0.00  0.00     0.209 HD
ENDBRANCH   8   9
ENDBRANCH   7   8
BRANCH   7  11
HETATM   11  O   UNK N   1      36.816  16.050  10.940  0.00  0.00    -0.390 OA
HETATM   12  H   UNK N   1      37.736  15.830  11.151  0.00  0.00     0.210 HD
ENDBRANCH   7  11
ENDBRANCH   6   7
BRANCH   5  13
HETATM   13  O   UNK N   1      37.999  13.353  11.418  0.00  0.00    -0.359 OA
HETATM   14  H   UNK N   1      38.739  13.870  11.671  0.00  0.00     0.217 HD
ENDBRANCH   5  13
BRANCH   4  15
HETATM   15  O   UNK N   1      36.508  11.009  12.122  0.00  0.00    -0.353 OA
HETATM   16  H   UNK N   1      36.111  10.254  12.510  0.00  0.00     0.218 HD
ENDBRANCH   4  15
TORSDOF 6
ENDMDL
MODEL 5
REMARK VINA RESULT:      -4.6      1.464      2.724
REMARK  6 active torsions:
REMARK  status: ('A' for Active; 'I' for Inactive)
REMARK    1  A    between atoms: C_7  and  O_2 
REMARK    2  A    between atoms: C_6  and  O_3 
REMARK    3  A    between atoms: O_8  and  C_9 
REMARK    4  A    between atoms: C_9  and  C_10 
REMARK    5  A    between atoms: C_12  and  C_10 
REMARK    6  A    between atoms: C_10  and  O_11 
ROOT
HETATM    1  O   UNK N   1      34.283  15.858   9.052  0.00  0.00    -0.301 OA
HETATM    2  C   UNK N   1      34.783  17.024   9.499  0.00  0.00     0.320 A 
HETATM    3  O   UNK N   1      35.157  17.211  10.645  0.00  0.00    -0.257 OA
HETATM    4  C   UNK N   1      34.806  17.988   8.443  0.00  0.00     0.173 A 
HETATM    5  C   UNK N   1      34.323  17.391   7.376  0.00  0.00     0.114 A 
HETATM    6  C   UNK N   1      33.952  15.953   7.700  0.00  0.00     0.222 A 
ENDROOT
BRANCH   6   7
HETATM    7  C   UNK N   1      34.771  14.944   6.884  0.00  0.00     0.177 C 
BRANCH   7   8
HETATM    8  C   UNK N   1      35.673  14.067   7.751  0.00  0.00     0.198 C 
BRANCH   8   9
HETATM    9  O   UNK N   1      34.933  13.088   8.416  0.00  0.00    -0.398 OA
HETATM   10  H   UNK N   1      34.220  12.840   9.025  0.00  0.00     0.209 HD
ENDBRANCH   8   9
ENDBRANCH   7   8
BRANCH   7  11
HETATM   11  O   UNK N   1      35.535  15.613   5.925  0.00  0.00    -0.390 OA
HETATM   12  H   UNK N   1      36.503  15.564   5.884  0.00  0.00     0.210 HD
ENDBRANCH   7  11
ENDBRANCH   6   7
BRANCH   5  13
HETATM   13  O   UNK N   1      34.178  17.984   6.175  0.00  0.00    -0.359 OA
HETATM   14  H   UNK N   1      34.904  18.399   5.752  0.00  0.00     0.217 HD
ENDBRANCH   5  13
BRANCH   4  15
HETATM   15  O   UNK N   1      35.232  19.263   8.514  0.00  0.00    -0.353 OA
HETATM   16  H   UNK N   1      35.748  19.593   9.223  0.00  0.00     0.218 HD
ENDBRANCH   4  15
TORSDOF 6
ENDMDL
MODEL 6
REMARK VINA RESULT:      -4.5     10.152     11.449
REMARK  6 active torsions:
REMARK  status: ('A' for Active; 'I' for Inactive)
REMARK    1  A    between atoms: C_7  and  O_2 
REMARK    2  A    between atoms: C_6  and  O_3 
REMARK    3  A    between atoms: O_8  and  C_9 
REMARK    4  A    between atoms: C_9  and  C_10 
REMARK    5  A    between atoms: C_12  and  C_10 
REMARK    6  A    between atoms: C_10  and  O_11 
ROOT
HETATM    1  O   UNK N   1      43.149  20.704   2.400  0.00  0.00    -0.301 OA
HETATM    2  C   UNK N   1      41.903  20.289   2.694  0.00  0.00     0.320 A 
HETATM    3  O   UNK N   1      41.621  19.142   2.997  0.00  0.00    -0.257 OA
HETATM    4  C   UNK N   1      40.984  21.380   2.597  0.00  0.00     0.173 A 
HETATM    5  C   UNK N   1      41.685  22.436   2.250  0.00  0.00     0.114 A 
HETATM    6  C   UNK N   1      43.153  22.068   2.101  0.00  0.00     0.222 A 
ENDROOT
BRANCH   6   7
HETATM    7  C   UNK N   1      44.044  22.823   3.095  0.00  0.00     0.177 C 
BRANCH   7   8
HETATM    8  C   UNK N   1      44.730  21.901   4.102  0.00  0.00     0.198 C 
BRANCH   8   9
HETATM    9  O   UNK N   1      46.056  22.286   4.313  0.00  0.00    -0.398 OA
HETATM   10  H   UNK N   1      46.939  22.104   4.669  0.00  0.00     0.209 HD
ENDBRANCH   8   9
ENDBRANCH   7   8
BRANCH   7  11
HETATM   11  O   UNK N   1      43.295  23.791   3.770  0.00  0.00    -0.390 OA
HETATM   12  H   UNK N   1      43.315  24.734   3.547  0.00  0.00     0.210 HD
ENDBRANCH   7  11
ENDBRANCH   6   7
BRANCH   5  13
HETATM   13  O   UNK N   1      41.163  23.662   2.050  0.00  0.00    -0.359 OA
HETATM   14  H   UNK N   1      40.398  23.941   2.514  0.00  0.00     0.217 HD
ENDBRANCH   5  13
BRANCH   4  15
HETATM   15  O   UNK N   1      39.655  21.346   2.812  0.00  0.00    -0.353 OA
HETATM   16  H   UNK N   1      39.202  20.580   3.103  0.00  0.00     0.218 HD
ENDBRANCH   4  15
TORSDOF 6
ENDMDL
MODEL 7
REMARK VINA RESULT:      -4.5      3.123      5.452
REMARK  6 active torsions:
REMARK  status: ('A' for Active; 'I' for Inactive)
REMARK    1  A    between atoms: C_7  and  O_2 
REMARK    2  A    between atoms: C_6  and  O_3 
REMARK    3  A    between atoms: O_8  and  C_9 
REMARK    4  A    between atoms: C_9  and  C_10 
REMARK    5  A    between atoms: C_12  and  C_10 
REMARK    6  A    between atoms: C_10  and  O_11 
ROOT
HETATM    1  O   UNK N   1      36.438  13.469  10.246  0.00  0.00    -0.301 OA
HETATM    2  C   UNK N   1      37.350  13.100  11.164  0.00  0.00     0.320 A 
HETATM    3  O   UNK N   1      38.537  12.953  10.925  0.00  0.00    -0.257 OA
HETATM    4  C   UNK N   1      36.722  12.910  12.434  0.00  0.00     0.173 A 
HETATM    5  C   UNK N   1      35.444  13.170  12.267  0.00  0.00     0.114 A 
HETATM    6  C   UNK N   1      35.171  13.558  10.823  0.00  0.00     0.222 A 
ENDROOT
BRANCH   6   7
HETATM    7  C   UNK N   1      34.635  14.990  10.699  0.00  0.00     0.177 C 
BRANCH   7   8
HETATM    8  C   UNK N   1      35.480  16.013  11.457  0.00  0.00     0.198 C 
BRANCH   8   9
HETATM    9  O   UNK N   1      36.657  16.303  10.765  0.00  0.00    -0.398 OA
HETATM   10  H   UNK N   1      37.336  16.056  10.118  0.00  0.00     0.209 HD
ENDBRANCH   8   9
ENDBRANCH   7   8
BRANCH   7  11
HETATM   11  O   UNK N   1      33.311  15.046  11.141  0.00  0.00    -0.390 OA
HETATM   12  H   UNK N   1      32.960  14.487  11.851  0.00  0.00     0.210 HD
ENDBRANCH   7  11
ENDBRANCH   6   7
BRANCH   5  13
HETATM   13  O   UNK N   1      34.519  13.091  13.243  0.00  0.00    -0.359 OA
HETATM   14  H   UNK N   1      34.205  13.863  13.672  0.00  0.00     0.217 HD
ENDBRANCH   5  13
BRANCH   4  15
HETATM   15  O   UNK N   1      37.311  12.536  13.585  0.00  0.00    -0.353 OA
HETATM   16  H   UNK N   1      38.207  12.720  13.787  0.00  0.00     0.218 HD
ENDBRANCH   4  15
TORSDOF 6
ENDMDL
MODEL 8
REMARK VINA RESULT:      -4.4      2.513      3.733
REMARK  6 active torsions:
REMARK  status: ('A' for Active; 'I' for Inactive)
REMARK    1  A    between atoms: C_7  and  O_2 
REMARK    2  A    between atoms: C_6  and  O_3 
REMARK    3  A    between atoms: O_8  and  C_9 
REMARK    4  A    between atoms: C_9  and  C_10 
REMARK    5  A    between atoms: C_12  and  C_10 
REMARK    6  A    between atoms: C_10  and  O_11 
ROOT
HETATM    1  O   UNK N   1      36.306  15.785  10.901  0.00  0.00    -0.301 OA
HETATM    2  C   UNK N   1      35.045  16.116  10.570  0.00  0.00     0.320 A 
HETATM    3  O   UNK N   1      34.746  17.122   9.950  0.00  0.00    -0.257 OA
HETATM    4  C   UNK N   1      34.133  15.126  11.051  0.00  0.00     0.173 A 
HETATM    5  C   UNK N   1      34.854  14.212  11.661  0.00  0.00     0.114 A 
HETATM    6  C   UNK N   1      36.328  14.577  11.601  0.00  0.00     0.222 A 
ENDROOT
BRANCH   6   7
HETATM    7  C   UNK N   1      37.153  13.537  10.832  0.00  0.00     0.177 C 
BRANCH   7   8
HETATM    8  C   UNK N   1      37.800  14.102   9.568  0.00  0.00     0.198 C 
BRANCH   8   9
HETATM    9  O   UNK N   1      38.864  14.949   9.884  0.00  0.00    -0.398 OA
HETATM   10  H   UNK N   1      39.686  15.397   9.634  0.00  0.00     0.209 HD
ENDBRANCH   8   9
ENDBRANCH   7   8
BRANCH   7  11
HETATM   11  O   UNK N   1      36.354  12.438  10.507  0.00  0.00    -0.390 OA
HETATM   12  H   UNK N   1      36.184  11.702  11.115  0.00  0.00     0.210 HD
ENDBRANCH   7  11
ENDBRANCH   6   7
BRANCH   5  13
HETATM   13  O   UNK N   1      34.344  13.115  12.256  0.00  0.00    -0.359 OA
HETATM   14  H   UNK N   1      34.906  12.476  12.648  0.00  0.00     0.217 HD
ENDBRANCH   5  13
BRANCH   4  15
HETATM   15  O   UNK N   1      32.793  15.120  10.917  0.00  0.00    -0.353 OA
HETATM   16  H   UNK N   1      32.204  15.137  11.645  0.00  0.00     0.218 HD
ENDBRANCH   4  15
TORSDOF 6
ENDMDL
MODEL 9
REMARK VINA RESULT:      -4.4      1.112      4.109
REMARK  6 active torsions:
REMARK  status: ('A' for Active; 'I' for Inactive)
REMARK    1  A    between atoms: C_7  and  O_2 
REMARK    2  A    between atoms: C_6  and  O_3 
REMARK    3  A    between atoms: O_8  and  C_9 
REMARK    4  A    between atoms: C_9  and  C_10 
REMARK    5  A    between atoms: C_12  and  C_10 
REMARK    6  A    between atoms: C_10  and  O_11 
ROOT
HETATM    1  O   UNK N   1      34.279  15.447   8.241  0.00  0.00    -0.301 OA
HETATM    2  C   UNK N   1      35.482  14.963   8.602  0.00  0.00     0.320 A 
HETATM    3  O   UNK N   1      36.094  14.119   7.969  0.00  0.00    -0.257 OA
HETATM    4  C   UNK N   1      35.917  15.578   9.817  0.00  0.00     0.173 A 
HETATM    5  C   UNK N   1      34.976  16.425  10.169  0.00  0.00     0.114 A 
HETATM    6  C   UNK N   1      33.840  16.402   9.159  0.00  0.00     0.222 A 
ENDROOT
BRANCH   6   7
HETATM    7  C   UNK N   1      33.654  17.756   8.464  0.00  0.00     0.177 C 
BRANCH   7   8
HETATM    8  C   UNK N   1      33.300  17.624   6.983  0.00  0.00     0.198 C 
BRANCH   8   9
HETATM    9  O   UNK N   1      34.450  17.610   6.192  0.00  0.00    -0.398 OA
HETATM   10  H   UNK N   1      34.874  17.669   5.321  0.00  0.00     0.209 HD
ENDBRANCH   8   9
ENDBRANCH   7   8
BRANCH   7  11
HETATM   11  O   UNK N   1      34.806  18.532   8.611  0.00  0.00    -0.390 OA
HETATM   12  H   UNK N   1      35.418  18.723   7.884  0.00  0.00     0.210 HD
ENDBRANCH   7  11
ENDBRANCH   6   7
BRANCH   5  13
HETATM   13  O   UNK N   1      35.022  17.193  11.276  0.00  0.00    -0.359 OA
HETATM   14  H   UNK N   1      34.706  18.075  11.263  0.00  0.00     0.217 HD
ENDBRANCH   5  13
BRANCH   4  15
HETATM   15  O   UNK N   1      37.063  15.343  10.483  0.00  0.00    -0.353 OA
HETATM   16  H   UNK N   1      37.743  15.980  10.575  0.00  0.00     0.218 HD
ENDBRANCH   4  15
TORSDOF 6
ENDMDL
