REMARK  19 active torsions:
REMARK  status: ('A' for Active; 'I' for Inactive)
REMARK    1  A    between atoms: C_11  and  C_12 
REMARK    2  A    between atoms: C_12  and  C_13 
REMARK       I    between atoms: C_13  and  N_14 
REMARK    3  A    between atoms: C_34  and  C_36 
REMARK    4  A    between atoms: C_36  and  C_37 
REMARK       I    between atoms: C_37  and  N_38 
REMARK    5  A    between atoms: C_40  and  C_41 
REMARK    6  A    between atoms: C_41  and  C_42 
REMARK    7  A    between atoms: C_42  and  C_43 
REMARK       I    between atoms: C_43  and  N_44 
REMARK    8  A    between atoms: Co_46  and  C_47 
REMARK    9  A    between atoms: C_54  and  C_55 
REMARK   10  A    between atoms: C_55  and  O_56 
REMARK   11  A    between atoms: C_63  and  O_64 
REMARK   12  A    between atoms: C_73  and  C_75 
REMARK   13  A    between atoms: C_75  and  C_76 
REMARK       I    between atoms: C_76  and  N_77 
REMARK   14  A    between atoms: C_79  and  C_80 
REMARK   15  A    between atoms: C_80  and  C_81 
REMARK   16  A    between atoms: C_81  and  C_82 
REMARK       I    between atoms: C_82  and  N_83 
REMARK   17  A    between atoms: C_88  and  C_89 
REMARK   18  A    between atoms: C_89  and  C_90 
REMARK   19  A    between atoms: C_90  and  C_91 
REMARK       I    between atoms: C_91  and  N_92 
ROOT
HETATM    1  C   UNK N   1       4.793   0.286  -1.345  0.00  0.00     0.148 C 
HETATM    2  C   UNK N   1       5.045   1.469  -2.262  0.00  0.00     0.042 C 
HETATM    3  C   UNK N   1       3.896   0.658  -0.243  0.00  0.00     0.154 C 
HETATM    4  N   UNK N   1       4.278   1.867   0.444  0.00  0.00    -0.359 N 
HETATM    5  C   UNK N   1       3.654   3.065   0.295  0.00  0.00     0.217 C 
HETATM    6  O   UNK N   1       4.018   3.994   0.994  0.00  0.00    -0.274 OA
HETATM    7  C   UNK N   1       2.513   3.311  -0.688  0.00  0.00     0.104 C 
HETATM    8  C   UNK N   1       1.898   2.099  -1.409  0.00  0.00     0.025 C 
HETATM    9  C   UNK N   1       1.176   1.158  -0.447  0.00  0.00     0.007 C 
HETATM   10  C   UNK N   1       1.696   1.154   1.040  0.00  0.00     0.022 C 
HETATM   11  C   UNK N   1      -0.174   1.654  -0.044  0.00  0.00     0.036 C 
HETATM   12  C   UNK N   1      -0.878   0.405   0.353  0.00  0.00     0.144 C 
HETATM   13  N   UNK N   1       0.052  -0.702   0.119  0.00  0.00    -0.284 N 
HETATM   14  C   UNK N   1       0.825  -0.312  -0.885  0.00  0.00     0.046 C 
HETATM   15  C   UNK N   1       0.890  -1.137  -2.030  0.00  0.00    -0.012 C 
HETATM   16  C   UNK N   1       1.601  -0.600  -3.225  0.00  0.00     0.052 C 
HETATM   17  C   UNK N   1       0.220  -2.610  -2.147  0.00  0.00     0.048 C 
HETATM   18  N   UNK N   1      -0.572  -3.049  -1.244  0.00  0.00    -0.256 N 
HETATM   19  C   UNK N   1      -0.909  -4.431  -1.460  0.00  0.00     0.045 C 
HETATM   20  C   UNK N   1      -1.514  -5.296  -0.596  0.00  0.00     0.055 C 
HETATM   21  C   UNK N   1      -2.150  -4.875   0.629  0.00  0.00     0.042 C 
HETATM   22  N   UNK N   1      -2.109  -3.654   0.905  0.00  0.00    -0.256 N 
HETATM   23  C   UNK N   1      -3.500  -3.275   1.246  0.00  0.00     0.052 C 
HETATM   24  C   UNK N   1      -4.079  -2.082   1.035  0.00  0.00    -0.012 C 
HETATM   25  C   UNK N   1      -5.466  -1.730   1.419  0.00  0.00     0.052 C 
HETATM   26  C   UNK N   1      -3.507  -1.199   0.142  0.00  0.00     0.043 C 
HETATM   27  N   UNK N   1      -2.293  -1.187  -0.099  0.00  0.00    -0.280 N 
HETATM   28  C   UNK N   1      -1.996   0.118  -0.603  0.00  0.00     0.081 C 
HETATM   29  C   UNK N   1      -1.668   0.045  -2.112  0.00  0.00     0.043 C 
HETATM   30  C   UNK N   1      -3.285   1.029  -0.416  0.00  0.00     0.002 C 
HETATM   31  C   UNK N   1      -3.496   1.538   1.021  0.00  0.00     0.019 C 
HETATM   32  C   UNK N   1      -4.229  -0.093  -0.612  0.00  0.00     0.049 C 
HETATM   33 Co   UNK N   1      -0.694  -2.288   0.427  0.00  0.00     0.000 Co
HETATM   34  N   UNK N   1       1.456  -3.022   0.638  0.00  0.00    -0.242 N 
HETATM   35  C   UNK N   1       2.092  -3.436   1.806  0.00  0.00     0.213 A 
HETATM   36  N   UNK N   1       3.467  -3.687   1.639  0.00  0.00    -0.309 N 
HETATM   37  C   UNK N   1       4.552  -4.081   2.607  0.00  0.00     0.261 C 
HETATM   38  O   UNK N   1       4.133  -3.758   3.876  0.00  0.00    -0.353 OA
HETATM   39  C   UNK N   1       4.381  -2.355   3.979  0.00  0.00     0.180 C 
HETATM   40  C   UNK N   1       5.480  -1.870   2.943  0.00  0.00     0.198 C 
HETATM   41  O   UNK N   1       4.977  -1.201   1.783  0.00  0.00    -0.279 OA
HETATM   42  P   UNK N   1       6.277  -0.396   0.831  0.00  0.00     0.409 P 
HETATM   43  O   UNK N   1       6.629   1.218   1.371  0.00  0.00    -0.624 OA
HETATM   44  O   UNK N   1       7.626  -1.141   0.972  0.00  0.00    -0.624 OA
HETATM   45  O   UNK N   1       5.987  -0.367  -0.932  0.00  0.00    -0.283 OA
HETATM   46  C   UNK N   1       5.875  -3.267   2.598  0.00  0.00     0.199 C 
HETATM   47  C   UNK N   1       3.742  -3.449   0.381  0.00  0.00     0.067 A 
HETATM   48  C   UNK N   1       5.025  -3.590  -0.206  0.00  0.00     0.039 A 
HETATM   49  C   UNK N   1       5.257  -3.266  -1.527  0.00  0.00    -0.054 A 
HETATM   50  C   UNK N   1       6.642  -3.398  -2.100  0.00  0.00     0.049 C 
HETATM   51  C   UNK N   1       4.181  -2.798  -2.267  0.00  0.00    -0.054 A 
HETATM   52  C   UNK N   1       4.369  -2.443  -3.715  0.00  0.00     0.049 C 
HETATM   53  C   UNK N   1       2.906  -2.644  -1.619  0.00  0.00     0.041 A 
HETATM   54  C   UNK N   1       2.623  -3.002  -0.257  0.00  0.00     0.085 A 
HETATM   55  C   UNK N   1      -4.473  -4.413   1.025  0.00  0.00     0.018 C 
HETATM   56  C   UNK N   1      -4.802  -4.344  -0.493  0.00  0.00     0.023 C 
HETATM   57  C   UNK N   1      -3.437  -5.509   1.198  0.00  0.00     0.053 C 
HETATM   58  C   UNK N   1      -0.624  -4.849  -2.834  0.00  0.00     0.006 C 
HETATM   59  C   UNK N   1      -0.376  -6.361  -3.017  0.00  0.00     0.022 C 
HETATM   60  C   UNK N   1      -1.861  -4.538  -3.649  0.00  0.00     0.022 C 
HETATM   61  C   UNK N   1       0.500  -3.826  -3.172  0.00  0.00     0.052 C 
HETATM   62  H   UNK N   1       5.042   1.822   1.062  0.00  0.00     0.162 HD
ENDROOT
BRANCH  30  63
HETATM   63  C   UNK N   1      -3.421   2.178  -1.466  0.00  0.00     0.115 C 
BRANCH  63  64
HETATM   64  C   UNK N   1      -4.098   3.453  -1.016  0.00  0.00     0.216 C 
HETATM   65  N   UNK N   1      -5.397   3.459  -0.671  0.00  0.00    -0.370 N 
HETATM   66  H   UNK N   1      -5.869   4.286  -0.418  0.00  0.00     0.159 HD
HETATM   67  H   UNK N   1      -5.894   2.609  -0.671  0.00  0.00     0.159 HD
HETATM   68  O   UNK N   1      -3.464   4.495  -0.982  0.00  0.00    -0.274 OA
ENDBRANCH  63  64
ENDBRANCH  30  63
BRANCH  32  69
HETATM   69  C   UNK N   1      -5.722   0.073  -0.914  0.00  0.00     0.021 C 
BRANCH  69  70
HETATM   70  C   UNK N   1      -6.464   0.856   0.146  0.00  0.00     0.103 C 
BRANCH  70  71
HETATM   71  C   UNK N   1      -7.863   1.135  -0.295  0.00  0.00     0.215 C 
HETATM   72  N   UNK N   1      -8.288   2.407  -0.414  0.00  0.00    -0.370 N 
HETATM   73  H   UNK N   1      -7.638   3.141  -0.502  0.00  0.00     0.159 HD
HETATM   74  H   UNK N   1      -9.253   2.604  -0.414  0.00  0.00     0.159 HD
HETATM   75  O   UNK N   1      -8.632   0.214  -0.516  0.00  0.00    -0.274 OA
ENDBRANCH  70  71
ENDBRANCH  69  70
ENDBRANCH  32  69
BRANCH  33  76
HETATM   76  C   UNK N   1      -0.719  -1.876   2.320  0.00  0.00     0.180 C 
HETATM   77  N   UNK N   1      -0.658  -1.836   3.475  0.00  0.00    -0.180 NA
ENDBRANCH  33  76
BRANCH  11  78
HETATM   78  C   UNK N   1      -0.909   2.996  -0.220  0.00  0.00     0.110 C 
BRANCH  78  79
HETATM   79  C   UNK N   1      -0.530   4.157   0.646  0.00  0.00     0.215 C 
HETATM   80  N   UNK N   1      -1.386   4.606   1.586  0.00  0.00    -0.370 N 
HETATM   81  H   UNK N   1      -1.414   5.312   2.273  0.00  0.00     0.159 HD
HETATM   82  H   UNK N   1      -2.218   4.080   1.586  0.00  0.00     0.159 HD
HETATM   83  O   UNK N   1       0.466   4.805   0.387  0.00  0.00    -0.274 OA
ENDBRANCH  78  79
ENDBRANCH  11  78
BRANCH  55  84
HETATM   84  C   UNK N   1      -5.832  -4.461   1.832  0.00  0.00     0.118 C 
BRANCH  84  85
HETATM   85  C   UNK N   1      -7.115  -4.087   1.035  0.00  0.00     0.216 C 
HETATM   86  N   UNK N   1      -7.589  -4.925   0.092  0.00  0.00    -0.370 N 
HETATM   87  H   UNK N   1      -8.292  -4.932  -0.596  0.00  0.00     0.159 HD
HETATM   88  H   UNK N   1      -7.089  -5.773   0.092  0.00  0.00     0.159 HD
HETATM   89  O   UNK N   1      -7.718  -3.043   1.246  0.00  0.00    -0.274 OA
ENDBRANCH  84  85
ENDBRANCH  55  84
BRANCH  61  90
HETATM   90  C   UNK N   1       1.823  -4.702  -3.042  0.00  0.00     0.021 C 
BRANCH  90  91
HETATM   91  C   UNK N   1       2.287  -5.344  -1.677  0.00  0.00     0.103 C 
BRANCH  91  92
HETATM   92  C   UNK N   1       1.795  -6.608  -1.020  0.00  0.00     0.215 C 
HETATM   93  N   UNK N   1       1.258  -6.552   0.217  0.00  0.00    -0.370 N 
HETATM   94  H   UNK N   1       1.097  -6.193   1.120  0.00  0.00     0.159 HD
HETATM   95  H   UNK N   1       0.681  -7.350   0.217  0.00  0.00     0.159 HD
HETATM   96  O   UNK N   1       2.022  -7.693  -1.528  0.00  0.00    -0.274 OA
ENDBRANCH  91  92
ENDBRANCH  90  91
ENDBRANCH  61  90
BRANCH  57  97
HETATM   97  C   UNK N   1      -3.855  -6.950   0.985  0.00  0.00     0.021 C 
BRANCH  97  98
HETATM   98  C   UNK N   1      -4.609  -7.164  -0.307  0.00  0.00     0.103 C 
BRANCH  98  99
HETATM   99  C   UNK N   1      -5.121  -8.550  -0.336  0.00  0.00     0.215 C 
HETATM  100  N   UNK N   1      -4.257  -9.581  -0.286  0.00  0.00    -0.370 N 
HETATM  101  H   UNK N   1      -4.594 -10.506  -0.249  0.00  0.00     0.159 HD
HETATM  102  H   UNK N   1      -3.288  -9.411  -0.286  0.00  0.00     0.159 HD
HETATM  103  O   UNK N   1      -6.320  -8.758  -0.405  0.00  0.00    -0.274 OA
ENDBRANCH  98  99
ENDBRANCH  97  98
ENDBRANCH  57  97
BRANCH  46 104
HETATM  104  O   UNK N   1       6.839  -3.452   1.607  0.00  0.00    -0.388 OA
HETATM  105  H   UNK N   1       7.063  -4.097   0.918  0.00  0.00     0.210 HD
ENDBRANCH  46 104
BRANCH  39 106
HETATM  106  C   UNK N   1       3.040  -1.643   4.036  0.00  0.00     0.198 C 
BRANCH 106 107
HETATM  107  O   UNK N   1       2.112  -2.480   4.681  0.00  0.00    -0.398 OA
HETATM  108  H   UNK N   1       1.292  -2.215   5.126  0.00  0.00     0.209 HD
ENDBRANCH 106 107
ENDBRANCH  39 106
TORSDOF 19
