REMARK  11 active torsions:
REMARK  status: ('A' for Active; 'I' for Inactive)
REMARK    1  A    between atoms: O_3  and  C_32 
REMARK    2  A    between atoms: O_5  and  C_33 
REMARK    3  A    between atoms: N_9  and  C_17 
REMARK    4  A    between atoms: N_9  and  C_20 
REMARK    5  A    between atoms: C_23  and  N_13 
REMARK       I    between atoms: N_13  and  C_31 
REMARK       I    between atoms: N_14  and  C_22 
REMARK    6  A    between atoms: C_15  and  C_17 
REMARK    7  A    between atoms: C_23  and  C_24 
REMARK    8  A    between atoms: C_23  and  C_32 
REMARK    9  A    between atoms: C_24  and  C_30 
REMARK   10  A    between atoms: C_27  and  C_31 
REMARK   11  A    between atoms: C_30  and  C_33 
ROOT
HETATM    1  C   UNK N   1       7.251  -1.177   0.837  0.00  0.00     0.028 A 
HETATM    2  C   UNK N   1       8.310  -1.863   0.227  0.00  0.00     0.030 A 
HETATM    3  C   UNK N   1       7.355   0.194   1.075  0.00  0.00     0.030 A 
HETATM    4  C   UNK N   1       9.606   0.180   0.183  0.00  0.00     0.032 A 
HETATM    5  C   UNK N   1       9.489  -1.191  -0.082  0.00  0.00     0.019 A 
HETATM    6  C   UNK N   1       8.526   0.873   0.745  0.00  0.00     0.019 A 
ENDROOT
BRANCH   1   7
HETATM    7  N   UNK N   1       6.077  -1.857   1.227  0.00  0.00    -0.388 N 
HETATM    8  H   UNK N   1       5.475  -1.434   1.882  0.00  0.00     0.159 HD
BRANCH   7   9
HETATM    9  C   UNK N   1       5.732  -3.152   0.696  0.00  0.00     0.146 C 
BRANCH   9  10
HETATM   10  C   UNK N   1       5.378  -3.000  -0.784  0.00  0.00     0.117 C 
HETATM   11  N   UNK N   1       4.490  -1.865  -0.947  0.00  0.00    -0.375 N 
HETATM   12  C   UNK N   1       3.140  -1.979  -0.541  0.00  0.00     0.142 A 
HETATM   13  H   UNK N   1       4.824  -1.025  -1.335  0.00  0.00     0.160 HD
HETATM   14  C   UNK N   1       2.573  -3.248  -0.420  0.00  0.00     0.149 A 
HETATM   15  C   UNK N   1       2.365  -0.860  -0.241  0.00  0.00     0.289 A 
HETATM   16  N   UNK N   1       3.348  -4.396  -0.733  0.00  0.00    -0.372 N 
HETATM   17  N   UNK N   1       1.283  -3.377  -0.017  0.00  0.00    -0.175 N 
HETATM   18  C   UNK N   1       4.688  -4.274  -1.284  0.00  0.00     0.148 C 
HETATM   19  H   UNK N   1       2.971  -5.292  -0.575  0.00  0.00     0.161 HD
HETATM   20  C   UNK N   1       0.532  -2.280   0.273  0.00  0.00     0.680 A 
HETATM   21  H   UNK N   1       0.887  -4.274   0.068  0.00  0.00     0.186 HD
HETATM   22  N   UNK N   1       1.066  -1.033   0.163  0.00  0.00    -0.154 N 
HETATM   23  N   UNK N   1      -0.805  -2.436   0.685  0.00  0.00    -0.234 N 
ATOM     24  HN  UNK N   1       0.494  -0.218   0.384  1.00  0.00     0.187 HD
HETATM   25  H   UNK N   1      -1.367  -1.681   0.973  0.00  0.00     0.174 HD
HETATM   26  H   UNK N   1      -1.195  -3.340   0.685  0.00  0.00     0.174 HD
HETATM   27  O   UNK N   1       2.833   0.261  -0.320  0.00  0.00    -0.265 OA
ENDBRANCH   9  10
ENDBRANCH   7   9
ENDBRANCH   1   7
BRANCH   4  28
HETATM   28  C   UNK N   1      10.913   0.839   0.078  0.00  0.00     0.252 C 
HETATM   29  O   UNK N   1      11.015   2.023   0.359  0.00  0.00    -0.268 OA
HETATM   30  N   UNK N   1      12.015   0.077  -0.144  0.00  0.00    -0.343 N 
HETATM   31  H   UNK N   1      11.885  -0.813  -0.543  0.00  0.00     0.163 HD
BRANCH  30  32
HETATM   32  C   UNK N   1      13.370   0.486   0.168  0.00  0.00     0.183 C 
BRANCH  32  33
HETATM   33  C   UNK N   1      13.781   1.795  -0.493  0.00  0.00     0.046 C 
BRANCH  33  34
HETATM   34  C   UNK N   1      13.690   2.888   0.562  0.00  0.00     0.112 C 
BRANCH  34  35
HETATM   35  C   UNK N   1      13.392   4.209  -0.059  0.00  0.00     0.139 C 
HETATM   36  O   UNK N   1      12.329   4.762   0.171  0.00  0.00    -0.650 OA
BRANCH  35  37
HETATM   37  O   UNK N   1      14.301   4.803  -0.853  0.00  0.00    -0.776 OA
HETATM   38  H   UNK N   1      14.976   4.462  -1.406  0.00  0.00     0.167 HD
ENDBRANCH  35  37
ENDBRANCH  34  35
ENDBRANCH  33  34
ENDBRANCH  32  33
BRANCH  32  39
HETATM   39  C   UNK N   1      14.313  -0.652  -0.092  0.00  0.00     0.163 C 
HETATM   40  O   UNK N   1      14.092  -1.743   0.411  0.00  0.00    -0.648 OA
BRANCH  39  41
HETATM   41  O   UNK N   1      15.413  -0.481  -0.849  0.00  0.00    -0.775 OA
HETATM   42  H   UNK N   1      15.899  -1.084  -1.376  0.00  0.00     0.167 HD
ENDBRANCH  39  41
ENDBRANCH  32  39
ENDBRANCH  30  32
ENDBRANCH   4  28
TORSDOF 11
