MODEL 1
REMARK VINA RESULT:      -6.5      0.000      0.000
REMARK  19 active torsions:
REMARK  status: ('A' for Active; 'I' for Inactive)
REMARK    1  A    between atoms: C_11  and  C_12 
REMARK    2  A    between atoms: C_12  and  C_13 
REMARK       I    between atoms: C_13  and  N_14 
REMARK    3  A    between atoms: C_34  and  C_36 
REMARK    4  A    between atoms: C_36  and  C_37 
REMARK       I    between atoms: C_37  and  N_38 
REMARK    5  A    between atoms: C_40  and  C_41 
REMARK    6  A    between atoms: C_41  and  C_42 
REMARK    7  A    between atoms: C_42  and  C_43 
REMARK       I    between atoms: C_43  and  N_44 
REMARK    8  A    between atoms: Co_46  and  C_47 
REMARK    9  A    between atoms: C_54  and  C_55 
REMARK   10  A    between atoms: C_55  and  O_56 
REMARK   11  A    between atoms: C_63  and  O_64 
REMARK   12  A    between atoms: C_73  and  C_75 
REMARK   13  A    between atoms: C_75  and  C_76 
REMARK       I    between atoms: C_76  and  N_77 
REMARK   14  A    between atoms: C_79  and  C_80 
REMARK   15  A    between atoms: C_80  and  C_81 
REMARK   16  A    between atoms: C_81  and  C_82 
REMARK       I    between atoms: C_82  and  N_83 
REMARK   17  A    between atoms: C_88  and  C_89 
REMARK   18  A    between atoms: C_89  and  C_90 
REMARK   19  A    between atoms: C_90  and  C_91 
REMARK       I    between atoms: C_91  and  N_92 
ROOT
HETATM    1  C   UNK N   1      20.941  15.498   2.889  0.00  0.00     0.148 C 
HETATM    2  C   UNK N   1      20.227  15.996   1.645  0.00  0.00     0.042 C 
HETATM    3  C   UNK N   1      20.746  14.052   3.062  0.00  0.00     0.154 C 
HETATM    4  N   UNK N   1      19.371  13.628   2.961  0.00  0.00    -0.359 N 
HETATM    5  C   UNK N   1      18.842  12.988   1.885  0.00  0.00     0.217 C 
HETATM    6  O   UNK N   1      17.688  12.606   1.953  0.00  0.00    -0.274 OA
HETATM    7  C   UNK N   1      19.616  12.707   0.600  0.00  0.00     0.104 C 
HETATM    8  C   UNK N   1      21.130  12.981   0.586  0.00  0.00     0.025 C 
HETATM    9  C   UNK N   1      21.895  12.051   1.525  0.00  0.00     0.007 C 
HETATM   10  C   UNK N   1      21.090  11.498   2.761  0.00  0.00     0.022 C 
HETATM   11  C   UNK N   1      22.097  10.683   0.960  0.00  0.00     0.036 C 
HETATM   12  C   UNK N   1      23.289  10.193   1.703  0.00  0.00     0.144 C 
HETATM   13  N   UNK N   1      23.720  11.281   2.583  0.00  0.00    -0.284 N 
HETATM   14  C   UNK N   1      23.364  12.400   1.968  0.00  0.00     0.046 C 
HETATM   15  C   UNK N   1      24.368  13.358   1.702  0.00  0.00    -0.012 C 
HETATM   16  C   UNK N   1      24.001  14.519   0.842  0.00  0.00     0.052 C 
HETATM   17  C   UNK N   1      25.896  13.269   2.240  0.00  0.00     0.048 C 
HETATM   18  N   UNK N   1      26.336  12.211   2.807  0.00  0.00    -0.256 N 
HETATM   19  C   UNK N   1      27.651  12.410   3.356  0.00  0.00     0.045 C 
HETATM   20  C   UNK N   1      28.330  11.611   4.228  0.00  0.00     0.055 C 
HETATM   21  C   UNK N   1      27.914  10.271   4.563  0.00  0.00     0.042 C 
HETATM   22  N   UNK N   1      26.859   9.851   4.033  0.00  0.00    -0.256 N 
HETATM   23  C   UNK N   1      27.194   8.518   3.480  0.00  0.00     0.052 C 
HETATM   24  C   UNK N   1      26.667   7.952   2.382  0.00  0.00    -0.012 C 
HETATM   25  C   UNK N   1      27.005   6.601   1.876  0.00  0.00     0.052 C 
HETATM   26  C   UNK N   1      26.002   8.740   1.465  0.00  0.00     0.043 C 
HETATM   27  N   UNK N   1      25.427   9.790   1.781  0.00  0.00    -0.280 N 
HETATM   28  C   UNK N   1      24.448  10.033   0.767  0.00  0.00     0.081 C 
HETATM   29  C   UNK N   1      24.865  11.245  -0.097  0.00  0.00     0.043 C 
HETATM   30  C   UNK N   1      24.376   8.752  -0.172  0.00  0.00     0.002 C 
HETATM   31  C   UNK N   1      23.589   7.573   0.426  0.00  0.00     0.019 C 
HETATM   32  C   UNK N   1      25.811   8.430  -0.012  0.00  0.00     0.049 C 
HETATM   33 Co   UNK N   1      25.225  10.892   3.451  0.00  0.00     0.000 Co
HETATM   34  N   UNK N   1      24.558  12.520   4.904  0.00  0.00    -0.242 N 
HETATM   35  C   UNK N   1      24.118  12.347   6.215  0.00  0.00     0.213 A 
HETATM   36  N   UNK N   1      23.631  13.529   6.805  0.00  0.00    -0.309 N 
HETATM   37  C   UNK N   1      23.007  13.812   8.146  0.00  0.00     0.261 C 
HETATM   38  O   UNK N   1      22.533  12.627   8.657  0.00  0.00    -0.353 OA
HETATM   39  C   UNK N   1      21.289  12.428   7.982  0.00  0.00     0.180 C 
HETATM   40  C   UNK N   1      20.697  13.787   7.419  0.00  0.00     0.198 C 
HETATM   41  O   UNK N   1      20.868  13.995   6.014  0.00  0.00    -0.279 OA
HETATM   42  P   UNK N   1      19.893  15.378   5.396  0.00  0.00     0.409 P 
HETATM   43  O   UNK N   1      18.277  14.933   4.937  0.00  0.00    -0.624 OA
HETATM   44  O   UNK N   1      19.689  16.458   6.486  0.00  0.00    -0.624 OA
HETATM   45  O   UNK N   1      20.653  16.270   4.047  0.00  0.00    -0.283 OA
HETATM   46  C   UNK N   1      21.677  14.614   8.182  0.00  0.00     0.199 C 
HETATM   47  C   UNK N   1      23.749  14.474   5.905  0.00  0.00     0.067 A 
HETATM   48  C   UNK N   1      23.378  15.828   6.102  0.00  0.00     0.039 A 
HETATM   49  C   UNK N   1      23.475  16.761   5.091  0.00  0.00    -0.054 A 
HETATM   50  C   UNK N   1      23.037  18.180   5.333  0.00  0.00     0.049 C 
HETATM   51  C   UNK N   1      23.958  16.324   3.865  0.00  0.00    -0.054 A 
HETATM   52  C   UNK N   1      24.100  17.298   2.730  0.00  0.00     0.049 C 
HETATM   53  C   UNK N   1      24.293  14.935   3.706  0.00  0.00     0.041 A 
HETATM   54  C   UNK N   1      24.235  13.946   4.746  0.00  0.00     0.085 A 
HETATM   55  C   UNK N   1      28.666   8.194   3.621  0.00  0.00     0.018 C 
HETATM   56  C   UNK N   1      29.329   8.893   2.401  0.00  0.00     0.023 C 
HETATM   57  C   UNK N   1      28.887   9.101   4.818  0.00  0.00     0.053 C 
HETATM   58  C   UNK N   1      28.307  13.584   2.776  0.00  0.00     0.006 C 
HETATM   59  C   UNK N   1      29.396  14.225   3.661  0.00  0.00     0.022 C 
HETATM   60  C   UNK N   1      29.022  13.111   1.529  0.00  0.00     0.022 C 
HETATM   61  C   UNK N   1      27.041  14.399   2.379  0.00  0.00     0.052 C 
HETATM   62  H   UNK N   1      18.776  13.815   3.721  0.00  0.00     0.162 HD
ENDROOT
BRANCH  30  63
HETATM   63  C   UNK N   1      23.944   9.055  -1.643  0.00  0.00     0.115 C 
BRANCH  63  64
HETATM   64  C   UNK N   1      23.473   7.888  -2.482  0.00  0.00     0.216 C 
HETATM   65  N   UNK N   1      22.168   7.712  -2.748  0.00  0.00    -0.370 N 
HETATM   66  H   UNK N   1      21.835   6.935  -3.255  0.00  0.00     0.159 HD
HETATM   67  H   UNK N   1      21.522   8.382  -2.427  0.00  0.00     0.159 HD
HETATM   68  O   UNK N   1      24.286   7.083  -2.909  0.00  0.00    -0.274 OA
ENDBRANCH  63  64
ENDBRANCH  30  63
BRANCH  32  69
HETATM   69  C   UNK N   1      26.593   7.476  -0.921  0.00  0.00     0.021 C 
BRANCH  69  70
HETATM   70  C   UNK N   1      27.532   8.188  -1.869  0.00  0.00     0.103 C 
BRANCH  70  71
HETATM   71  C   UNK N   1      28.886   8.328  -1.256  0.00  0.00     0.215 C 
HETATM   72  N   UNK N   1      29.535   7.238  -0.807  0.00  0.00    -0.370 N 
HETATM   73  H   UNK N   1      29.282   6.342  -1.128  0.00  0.00     0.159 HD
HETATM   74  H   UNK N   1      30.268   7.336  -0.156  0.00  0.00     0.159 HD
HETATM   75  O   UNK N   1      29.391   9.431  -1.130  0.00  0.00    -0.274 OA
ENDBRANCH  70  71
ENDBRANCH  69  70
ENDBRANCH  32  69
BRANCH  33  76
HETATM   76  C   UNK N   1      24.249   9.585   4.497  0.00  0.00     0.180 C 
HETATM   77  N   UNK N   1      23.747   8.915   5.295  0.00  0.00    -0.180 NA
ENDBRANCH  33  76
BRANCH  11  78
HETATM   78  C   UNK N   1      21.527   9.945  -0.266  0.00  0.00     0.110 C 
BRANCH  78  79
HETATM   79  C   UNK N   1      20.295   9.109  -0.109  0.00  0.00     0.215 C 
HETATM   80  N   UNK N   1      19.937   8.656   1.109  0.00  0.00    -0.370 N 
HETATM   81  H   UNK N   1      19.215   8.114   1.506  0.00  0.00     0.159 HD
HETATM   82  H   UNK N   1      20.578   8.948   1.797  0.00  0.00     0.159 HD
HETATM   83  O   UNK N   1      19.719   8.690  -1.095  0.00  0.00    -0.274 OA
ENDBRANCH  78  79
ENDBRANCH  11  78
BRANCH  55  84
HETATM   84  C   UNK N   1      29.144   6.687   3.659  0.00  0.00     0.118 C 
BRANCH  84  85
HETATM   85  C   UNK N   1      30.474   6.373   2.914  0.00  0.00     0.216 C 
HETATM   86  N   UNK N   1      31.654   6.552   3.540  0.00  0.00    -0.370 N 
HETATM   87  H   UNK N   1      32.612   6.520   3.321  0.00  0.00     0.159 HD
HETATM   88  H   UNK N   1      31.518   6.781   4.488  0.00  0.00     0.159 HD
HETATM   89  O   UNK N   1      30.480   5.955   1.764  0.00  0.00    -0.274 OA
ENDBRANCH  84  85
ENDBRANCH  55  84
BRANCH  61  90
HETATM   90  C   UNK N   1      26.955  15.496   3.529  0.00  0.00     0.021 C 
BRANCH  90  91
HETATM   91  C   UNK N   1      27.580  16.938   3.378  0.00  0.00     0.103 C 
BRANCH  91  92
HETATM   92  C   UNK N   1      27.307  18.170   4.202  0.00  0.00     0.215 C 
HETATM   93  N   UNK N   1      27.813  19.359   3.812  0.00  0.00    -0.370 N 
HETATM   94  H   UNK N   1      28.434  19.976   3.362  0.00  0.00     0.159 HD
HETATM   95  H   UNK N   1      27.181  19.988   4.232  0.00  0.00     0.159 HD
HETATM   96  O   UNK N   1      26.770  18.073   5.292  0.00  0.00    -0.274 OA
ENDBRANCH  91  92
ENDBRANCH  90  91
ENDBRANCH  61  90
BRANCH  57  97
HETATM   97  C   UNK N   1      30.290   9.251   5.372  0.00  0.00     0.021 C 
BRANCH  97  98
HETATM   98  C   UNK N   1      30.585   8.298   6.506  0.00  0.00     0.103 C 
BRANCH  98  99
HETATM   99  C   UNK N   1      31.550   8.937   7.426  0.00  0.00     0.215 C 
HETATM  100  N   UNK N   1      32.829   9.101   7.042  0.00  0.00    -0.370 N 
HETATM  101  H   UNK N   1      33.463   9.575   7.628  0.00  0.00     0.159 HD
HETATM  102  H   UNK N   1      33.131   8.748   6.175  0.00  0.00     0.159 HD
HETATM  103  O   UNK N   1      31.188   9.313   8.528  0.00  0.00    -0.274 OA
ENDBRANCH  98  99
ENDBRANCH  97  98
ENDBRANCH  57  97
BRANCH  46 104
HETATM  104  O   UNK N   1      21.654  15.997   7.999  0.00  0.00    -0.388 OA
HETATM  105  H   UNK N   1      22.149  16.780   8.288  0.00  0.00     0.210 HD
ENDBRANCH  46 104
BRANCH  39 106
HETATM  106  C   UNK N   1      21.444  11.236   7.052  0.00  0.00     0.198 C 
BRANCH 106 107
HETATM  107  O   UNK N   1      20.385  11.246   6.127  0.00  0.00    -0.398 OA
HETATM  108  H   UNK N   1      20.416  11.534   5.201  0.00  0.00     0.209 HD
ENDBRANCH 106 107
ENDBRANCH  39 106
TORSDOF 19
ENDMDL
MODEL 2
REMARK VINA RESULT:      -6.4      6.402     12.797
REMARK  19 active torsions:
REMARK  status: ('A' for Active; 'I' for Inactive)
REMARK    1  A    between atoms: C_11  and  C_12 
REMARK    2  A    between atoms: C_12  and  C_13 
REMARK       I    between atoms: C_13  and  N_14 
REMARK    3  A    between atoms: C_34  and  C_36 
REMARK    4  A    between atoms: C_36  and  C_37 
REMARK       I    between atoms: C_37  and  N_38 
REMARK    5  A    between atoms: C_40  and  C_41 
REMARK    6  A    between atoms: C_41  and  C_42 
REMARK    7  A    between atoms: C_42  and  C_43 
REMARK       I    between atoms: C_43  and  N_44 
REMARK    8  A    between atoms: Co_46  and  C_47 
REMARK    9  A    between atoms: C_54  and  C_55 
REMARK   10  A    between atoms: C_55  and  O_56 
REMARK   11  A    between atoms: C_63  and  O_64 
REMARK   12  A    between atoms: C_73  and  C_75 
REMARK   13  A    between atoms: C_75  and  C_76 
REMARK       I    between atoms: C_76  and  N_77 
REMARK   14  A    between atoms: C_79  and  C_80 
REMARK   15  A    between atoms: C_80  and  C_81 
REMARK   16  A    between atoms: C_81  and  C_82 
REMARK       I    between atoms: C_82  and  N_83 
REMARK   17  A    between atoms: C_88  and  C_89 
REMARK   18  A    between atoms: C_89  and  C_90 
REMARK   19  A    between atoms: C_90  and  C_91 
REMARK       I    between atoms: C_91  and  N_92 
ROOT
HETATM    1  C   UNK N   1      37.612  11.891   8.738  0.00  0.00     0.148 C 
HETATM    2  C   UNK N   1      38.979  11.244   8.876  0.00  0.00     0.042 C 
HETATM    3  C   UNK N   1      37.595  12.848   7.624  0.00  0.00     0.154 C 
HETATM    4  N   UNK N   1      38.692  13.783   7.635  0.00  0.00    -0.359 N 
HETATM    5  C   UNK N   1      39.766  13.717   6.805  0.00  0.00     0.217 C 
HETATM    6  O   UNK N   1      40.588  14.614   6.855  0.00  0.00    -0.274 OA
HETATM    7  C   UNK N   1      39.996  12.589   5.803  0.00  0.00     0.104 C 
HETATM    8  C   UNK N   1      38.861  11.576   5.573  0.00  0.00     0.025 C 
HETATM    9  C   UNK N   1      37.636  12.216   4.924  0.00  0.00     0.007 C 
HETATM   10  C   UNK N   1      37.430  13.753   5.198  0.00  0.00     0.022 C 
HETATM   11  C   UNK N   1      37.795  12.431   3.455  0.00  0.00     0.036 C 
HETATM   12  C   UNK N   1      36.388  12.477   2.975  0.00  0.00     0.144 C 
HETATM   13  N   UNK N   1      35.532  12.246   4.140  0.00  0.00    -0.284 N 
HETATM   14  C   UNK N   1      36.243  11.485   4.960  0.00  0.00     0.046 C 
HETATM   15  C   UNK N   1      35.685  10.254   5.371  0.00  0.00    -0.012 C 
HETATM   16  C   UNK N   1      36.565   9.320   6.130  0.00  0.00     0.052 C 
HETATM   17  C   UNK N   1      34.169   9.772   5.050  0.00  0.00     0.048 C 
HETATM   18  N   UNK N   1      33.428  10.424   4.238  0.00  0.00    -0.256 N 
HETATM   19  C   UNK N   1      32.078   9.925   4.234  0.00  0.00     0.045 C 
HETATM   20  C   UNK N   1      30.966  10.505   3.697  0.00  0.00     0.055 C 
HETATM   21  C   UNK N   1      31.018  11.639   2.806  0.00  0.00     0.042 C 
HETATM   22  N   UNK N   1      32.148  12.114   2.549  0.00  0.00    -0.256 N 
HETATM   23  C   UNK N   1      32.199  12.242   1.074  0.00  0.00     0.052 C 
HETATM   24  C   UNK N   1      33.289  12.123   0.298  0.00  0.00    -0.012 C 
HETATM   25  C   UNK N   1      33.307  12.289  -1.174  0.00  0.00     0.052 C 
HETATM   26  C   UNK N   1      34.418  11.511   0.803  0.00  0.00     0.043 C 
HETATM   27  N   UNK N   1      34.692  11.510   2.010  0.00  0.00    -0.280 N 
HETATM   28  C   UNK N   1      36.102  11.292   2.102  0.00  0.00     0.081 C 
HETATM   29  C   UNK N   1      36.388   9.882   2.667  0.00  0.00     0.043 C 
HETATM   30  C   UNK N   1      36.716  11.378   0.638  0.00  0.00     0.002 C 
HETATM   31  C   UNK N   1      36.885  12.812   0.107  0.00  0.00     0.019 C 
HETATM   32  C   UNK N   1      35.506  10.825  -0.009  0.00  0.00     0.049 C 
HETATM   33 Co   UNK N   1      33.809  12.143   3.703  0.00  0.00     0.000 Co
HETATM   34  N   UNK N   1      33.441  12.635   5.901  0.00  0.00    -0.242 N 
HETATM   35  C   UNK N   1      32.923  13.819   6.421  0.00  0.00     0.213 A 
HETATM   36  N   UNK N   1      32.957  13.878   7.827  0.00  0.00    -0.309 N 
HETATM   37  C   UNK N   1      32.578  14.956   8.808  0.00  0.00     0.261 C 
HETATM   38  O   UNK N   1      32.565  16.158   8.141  0.00  0.00    -0.353 OA
HETATM   39  C   UNK N   1      33.941  16.534   8.071  0.00  0.00     0.180 C 
HETATM   40  C   UNK N   1      34.808  15.819   9.191  0.00  0.00     0.198 C 
HETATM   41  O   UNK N   1      35.593  14.710   8.744  0.00  0.00    -0.279 OA
HETATM   42  P   UNK N   1      36.787  14.167   9.978  0.00  0.00     0.409 P 
HETATM   43  O   UNK N   1      38.299  15.021   9.898  0.00  0.00    -0.624 OA
HETATM   44  O   UNK N   1      36.280  14.438  11.415  0.00  0.00    -0.624 OA
HETATM   45  O   UNK N   1      37.112  12.410   9.964  0.00  0.00    -0.283 OA
HETATM   46  C   UNK N   1      33.599  15.332   9.917  0.00  0.00     0.199 C 
HETATM   47  C   UNK N   1      33.484  12.751   8.237  0.00  0.00     0.067 A 
HETATM   48  C   UNK N   1      33.691  12.403   9.596  0.00  0.00     0.039 A 
HETATM   49  C   UNK N   1      34.306  11.221   9.956  0.00  0.00    -0.054 A 
HETATM   50  C   UNK N   1      34.537  10.908  11.409  0.00  0.00     0.049 C 
HETATM   51  C   UNK N   1      34.713  10.377   8.933  0.00  0.00    -0.054 A 
HETATM   52  C   UNK N   1      35.375   9.069   9.264  0.00  0.00     0.049 C 
HETATM   53  C   UNK N   1      34.508  10.788   7.570  0.00  0.00     0.041 A 
HETATM   54  C   UNK N   1      33.843  11.994   7.161  0.00  0.00     0.085 A 
HETATM   55  C   UNK N   1      30.974  11.657   0.406  0.00  0.00     0.018 C 
HETATM   56  C   UNK N   1      31.282  10.136   0.307  0.00  0.00     0.023 C 
HETATM   57  C   UNK N   1      30.066  11.842   1.608  0.00  0.00     0.053 C 
HETATM   58  C   UNK N   1      31.997   8.580   4.808  0.00  0.00     0.006 C 
HETATM   59  C   UNK N   1      30.619   8.203   5.392  0.00  0.00     0.022 C 
HETATM   60  C   UNK N   1      32.239   7.608   3.674  0.00  0.00     0.022 C 
HETATM   61  C   UNK N   1      33.249   8.634   5.732  0.00  0.00     0.052 C 
HETATM   62  H   UNK N   1      38.662  14.519   8.287  0.00  0.00     0.162 HD
ENDROOT
BRANCH  30  63
HETATM   63  C   UNK N   1      38.007  10.523   0.429  0.00  0.00     0.115 C 
BRANCH  63  64
HETATM   64  C   UNK N   1      38.849  10.825  -0.791  0.00  0.00     0.216 C 
HETATM   65  N   UNK N   1      38.538  10.301  -1.989  0.00  0.00    -0.370 N 
HETATM   66  H   UNK N   1      39.097  10.448  -2.787  0.00  0.00     0.159 HD
HETATM   67  H   UNK N   1      37.725   9.753  -2.073  0.00  0.00     0.159 HD
HETATM   68  O   UNK N   1      39.833  11.538  -0.685  0.00  0.00    -0.274 OA
ENDBRANCH  63  64
ENDBRANCH  30  63
BRANCH  32  69
HETATM   69  C   UNK N   1      35.461  10.277  -1.439  0.00  0.00     0.021 C 
BRANCH  69  70
HETATM   70  C   UNK N   1      34.875   8.885  -1.528  0.00  0.00     0.103 C 
BRANCH  70  71
HETATM   71  C   UNK N   1      33.689   8.877  -2.436  0.00  0.00     0.215 C 
HETATM   72  N   UNK N   1      32.713   7.967  -2.256  0.00  0.00    -0.370 N 
HETATM   73  H   UNK N   1      32.615   7.509  -1.390  0.00  0.00     0.159 HD
HETATM   74  H   UNK N   1      32.094   7.759  -2.993  0.00  0.00     0.159 HD
HETATM   75  O   UNK N   1      33.618   9.670  -3.360  0.00  0.00    -0.274 OA
ENDBRANCH  70  71
ENDBRANCH  69  70
ENDBRANCH  32  69
BRANCH  33  76
HETATM   76  C   UNK N   1      33.828  14.038   3.302  0.00  0.00     0.180 C 
HETATM   77  N   UNK N   1      33.735  15.111   2.876  0.00  0.00    -0.180 NA
ENDBRANCH  33  76
BRANCH  11  78
HETATM   78  C   UNK N   1      38.994  12.340   2.492  0.00  0.00     0.110 C 
BRANCH  78  79
HETATM   79  C   UNK N   1      39.818  13.563   2.233  0.00  0.00     0.215 C 
HETATM   80  N   UNK N   1      40.159  13.893   0.970  0.00  0.00    -0.370 N 
HETATM   81  H   UNK N   1      40.664  14.603   0.511  0.00  0.00     0.159 HD
HETATM   82  H   UNK N   1      39.801  13.240   0.326  0.00  0.00     0.159 HD
HETATM   83  O   UNK N   1      40.328  14.157   3.163  0.00  0.00    -0.274 OA
ENDBRANCH  78  79
ENDBRANCH  11  78
BRANCH  55  84
HETATM   84  C   UNK N   1      30.527  12.172  -1.021  0.00  0.00     0.118 C 
BRANCH  84  85
HETATM   85  C   UNK N   1      30.224  11.075  -2.082  0.00  0.00     0.216 C 
HETATM   86  N   UNK N   1      30.780  11.152  -3.307  0.00  0.00    -0.370 N 
HETATM   87  H   UNK N   1      30.721  10.682  -4.169  0.00  0.00     0.159 HD
HETATM   88  H   UNK N   1      31.431  11.889  -3.352  0.00  0.00     0.159 HD
HETATM   89  O   UNK N   1      29.491  10.127  -1.830  0.00  0.00    -0.274 OA
ENDBRANCH  84  85
ENDBRANCH  55  84
BRANCH  61  90
HETATM   90  C   UNK N   1      32.613   8.868   7.173  0.00  0.00     0.021 C 
BRANCH  90  91
HETATM   91  C   UNK N   1      32.246   7.679   8.144  0.00  0.00     0.103 C 
BRANCH  91  92
HETATM   92  C   UNK N   1      31.487   7.730   9.444  0.00  0.00     0.215 C 
HETATM   93  N   UNK N   1      30.168   7.444   9.459  0.00  0.00    -0.370 N 
HETATM   94  H   UNK N   1      29.256   7.353   9.098  0.00  0.00     0.159 HD
HETATM   95  H   UNK N   1      30.041   7.150  10.390  0.00  0.00     0.159 HD
HETATM   96  O   UNK N   1      32.015   8.179  10.447  0.00  0.00    -0.274 OA
ENDBRANCH  91  92
ENDBRANCH  90  91
ENDBRANCH  61  90
BRANCH  57  97
HETATM   97  C   UNK N   1      28.645  11.320   1.538  0.00  0.00     0.021 C 
BRANCH  97  98
HETATM   98  C   UNK N   1      27.607  12.395   1.765  0.00  0.00     0.103 C 
BRANCH  98  99
HETATM   99  C   UNK N   1      27.639  12.795   3.188  0.00  0.00     0.215 C 
HETATM  100  N   UNK N   1      27.841  14.086   3.513  0.00  0.00    -0.370 N 
HETATM  101  H   UNK N   1      27.808  14.368   4.456  0.00  0.00     0.159 HD
HETATM  102  H   UNK N   1      28.022  14.748   2.808  0.00  0.00     0.159 HD
HETATM  103  O   UNK N   1      27.482  11.960   4.062  0.00  0.00    -0.274 OA
ENDBRANCH  98  99
ENDBRANCH  97  98
ENDBRANCH  57  97
BRANCH  46 104
HETATM  104  O   UNK N   1      33.787  14.525  11.040  0.00  0.00    -0.388 OA
HETATM  105  H   UNK N   1      34.490  14.304  11.670  0.00  0.00     0.210 HD
ENDBRANCH  46 104
BRANCH  39 106
HETATM  106  C   UNK N   1      34.379  16.451   6.619  0.00  0.00     0.198 C 
BRANCH 106 107
HETATM  107  O   UNK N   1      34.217  17.716   6.026  0.00  0.00    -0.398 OA
HETATM  108  H   UNK N   1      34.139  18.571   6.478  0.00  0.00     0.209 HD
ENDBRANCH 106 107
ENDBRANCH  39 106
TORSDOF 19
ENDMDL
MODEL 3
REMARK VINA RESULT:      -6.0      7.828     14.829
REMARK  19 active torsions:
REMARK  status: ('A' for Active; 'I' for Inactive)
REMARK    1  A    between atoms: C_11  and  C_12 
REMARK    2  A    between atoms: C_12  and  C_13 
REMARK       I    between atoms: C_13  and  N_14 
REMARK    3  A    between atoms: C_34  and  C_36 
REMARK    4  A    between atoms: C_36  and  C_37 
REMARK       I    between atoms: C_37  and  N_38 
REMARK    5  A    between atoms: C_40  and  C_41 
REMARK    6  A    between atoms: C_41  and  C_42 
REMARK    7  A    between atoms: C_42  and  C_43 
REMARK       I    between atoms: C_43  and  N_44 
REMARK    8  A    between atoms: Co_46  and  C_47 
REMARK    9  A    between atoms: C_54  and  C_55 
REMARK   10  A    between atoms: C_55  and  O_56 
REMARK   11  A    between atoms: C_63  and  O_64 
REMARK   12  A    between atoms: C_73  and  C_75 
REMARK   13  A    between atoms: C_75  and  C_76 
REMARK       I    between atoms: C_76  and  N_77 
REMARK   14  A    between atoms: C_79  and  C_80 
REMARK   15  A    between atoms: C_80  and  C_81 
REMARK   16  A    between atoms: C_81  and  C_82 
REMARK       I    between atoms: C_82  and  N_83 
REMARK   17  A    between atoms: C_88  and  C_89 
REMARK   18  A    between atoms: C_89  and  C_90 
REMARK   19  A    between atoms: C_90  and  C_91 
REMARK       I    between atoms: C_91  and  N_92 
ROOT
HETATM    1  C   UNK N   1      40.719   8.901   5.946  0.00  0.00     0.148 C 
HETATM    2  C   UNK N   1      40.695   7.416   6.259  0.00  0.00     0.042 C 
HETATM    3  C   UNK N   1      40.112   9.171   4.636  0.00  0.00     0.154 C 
HETATM    4  N   UNK N   1      40.613   8.335   3.572  0.00  0.00    -0.359 N 
HETATM    5  C   UNK N   1      39.932   7.292   3.030  0.00  0.00     0.217 C 
HETATM    6  O   UNK N   1      40.428   6.713   2.079  0.00  0.00    -0.274 OA
HETATM    7  C   UNK N   1      38.575   6.810   3.535  0.00  0.00     0.104 C 
HETATM    8  C   UNK N   1      37.840   7.666   4.581  0.00  0.00     0.025 C 
HETATM    9  C   UNK N   1      37.412   9.022   4.022  0.00  0.00     0.007 C 
HETATM   10  C   UNK N   1      38.285   9.592   2.842  0.00  0.00     0.022 C 
HETATM   11  C   UNK N   1      36.189   8.944   3.168  0.00  0.00     0.036 C 
HETATM   12  C   UNK N   1      35.648  10.328   3.243  0.00  0.00     0.144 C 
HETATM   13  N   UNK N   1      36.526  11.082   4.139  0.00  0.00    -0.284 N 
HETATM   14  C   UNK N   1      37.012  10.193   4.994  0.00  0.00     0.046 C 
HETATM   15  C   UNK N   1      36.817  10.425   6.374  0.00  0.00    -0.012 C 
HETATM   16  C   UNK N   1      37.190   9.331   7.315  0.00  0.00     0.052 C 
HETATM   17  C   UNK N   1      36.188  11.782   7.003  0.00  0.00     0.048 C 
HETATM   18  N   UNK N   1      35.661  12.674   6.254  0.00  0.00    -0.256 N 
HETATM   19  C   UNK N   1      35.327  13.861   6.996  0.00  0.00     0.045 C 
HETATM   20  C   UNK N   1      34.985  15.089   6.513  0.00  0.00     0.055 C 
HETATM   21  C   UNK N   1      34.660  15.332   5.128  0.00  0.00     0.042 C 
HETATM   22  N   UNK N   1      34.728  14.357   4.344  0.00  0.00    -0.256 N 
HETATM   23  C   UNK N   1      33.454  14.363   3.589  0.00  0.00     0.052 C 
HETATM   24  C   UNK N   1      32.801  13.290   3.112  0.00  0.00    -0.012 C 
HETATM   25  C   UNK N   1      31.542  13.338   2.332  0.00  0.00     0.052 C 
HETATM   26  C   UNK N   1      33.103  12.038   3.606  0.00  0.00     0.043 C 
HETATM   27  N   UNK N   1      34.218  11.751   4.061  0.00  0.00    -0.280 N 
HETATM   28  C   UNK N   1      34.337  10.329   3.970  0.00  0.00     0.081 C 
HETATM   29  C   UNK N   1      34.282   9.698   5.380  0.00  0.00     0.043 C 
HETATM   30  C   UNK N   1      33.106   9.780   3.128  0.00  0.00     0.002 C 
HETATM   31  C   UNK N   1      33.242   9.975   1.608  0.00  0.00     0.019 C 
HETATM   32  C   UNK N   1      32.180  10.829   3.610  0.00  0.00     0.049 C 
HETATM   33 Co   UNK N   1      35.933  12.734   4.435  0.00  0.00     0.000 Co
HETATM   34  N   UNK N   1      38.091  13.175   5.030  0.00  0.00    -0.242 N 
HETATM   35  C   UNK N   1      39.011  13.957   4.336  0.00  0.00     0.213 A 
HETATM   36  N   UNK N   1      40.309  13.915   4.880  0.00  0.00    -0.309 N 
HETATM   37  C   UNK N   1      41.613  14.530   4.443  0.00  0.00     0.261 C 
HETATM   38  O   UNK N   1      41.513  14.848   3.110  0.00  0.00    -0.353 OA
HETATM   39  C   UNK N   1      41.732  13.607   2.437  0.00  0.00     0.180 C 
HETATM   40  C   UNK N   1      42.522  12.573   3.344  0.00  0.00     0.198 C 
HETATM   41  O   UNK N   1      41.724  11.548   3.944  0.00  0.00    -0.279 OA
HETATM   42  P   UNK N   1      42.719  10.237   4.675  0.00  0.00     0.409 P 
HETATM   43  O   UNK N   1      43.141   8.981   3.550  0.00  0.00    -0.624 OA
HETATM   44  O   UNK N   1      44.085  10.771   5.170  0.00  0.00    -0.624 OA
HETATM   45  O   UNK N   1      41.999   9.492   6.131  0.00  0.00    -0.283 OA
HETATM   46  C   UNK N   1      42.865  13.614   4.357  0.00  0.00     0.199 C 
HETATM   47  C   UNK N   1      40.254  13.122   5.920  0.00  0.00     0.067 A 
HETATM   48  C   UNK N   1      41.355  12.813   6.759  0.00  0.00     0.039 A 
HETATM   49  C   UNK N   1      41.240  11.923   7.807  0.00  0.00    -0.054 A 
HETATM   50  C   UNK N   1      42.443  11.598   8.651  0.00  0.00     0.049 C 
HETATM   51  C   UNK N   1      39.999  11.339   8.014  0.00  0.00    -0.054 A 
HETATM   52  C   UNK N   1      39.809  10.372   9.148  0.00  0.00     0.049 C 
HETATM   53  C   UNK N   1      38.921  11.661   7.117  0.00  0.00     0.041 A 
HETATM   54  C   UNK N   1      38.998  12.607   6.039  0.00  0.00     0.085 A 
HETATM   55  C   UNK N   1      32.494  15.419   4.093  0.00  0.00     0.018 C 
HETATM   56  C   UNK N   1      31.796  14.750   5.310  0.00  0.00     0.023 C 
HETATM   57  C   UNK N   1      33.577  16.324   4.654  0.00  0.00     0.053 C 
HETATM   58  C   UNK N   1      35.275  13.601   8.436  0.00  0.00     0.006 C 
HETATM   59  C   UNK N   1      35.519  14.835   9.330  0.00  0.00     0.022 C 
HETATM   60  C   UNK N   1      33.864  13.147   8.746  0.00  0.00     0.022 C 
HETATM   61  C   UNK N   1      36.245  12.385   8.500  0.00  0.00     0.052 C 
HETATM   62  H   UNK N   1      41.508   8.534   3.215  0.00  0.00     0.162 HD
ENDROOT
BRANCH  30  63
HETATM   63  C   UNK N   1      32.675   8.323   3.491  0.00  0.00     0.115 C 
BRANCH  63  64
HETATM   64  C   UNK N   1      31.739   7.617   2.535  0.00  0.00     0.216 C 
HETATM   65  N   UNK N   1      32.206   6.718   1.652  0.00  0.00    -0.370 N 
HETATM   66  H   UNK N   1      31.622   6.280   0.991  0.00  0.00     0.159 HD
HETATM   67  H   UNK N   1      33.163   6.489   1.666  0.00  0.00     0.159 HD
HETATM   68  O   UNK N   1      30.548   7.879   2.551  0.00  0.00    -0.274 OA
ENDBRANCH  63  64
ENDBRANCH  30  63
BRANCH  32  69
HETATM   69  C   UNK N   1      30.654  10.762   3.487  0.00  0.00     0.021 C 
BRANCH  69  70
HETATM   70  C   UNK N   1      29.941  10.870   4.816  0.00  0.00     0.103 C 
BRANCH  70  71
HETATM   71  C   UNK N   1      30.045   9.586   5.570  0.00  0.00     0.215 C 
HETATM   72  N   UNK N   1      29.223   8.562   5.268  0.00  0.00    -0.370 N 
HETATM   73  H   UNK N   1      28.769   8.532   4.396  0.00  0.00     0.159 HD
HETATM   74  H   UNK N   1      29.077   7.841   5.923  0.00  0.00     0.159 HD
HETATM   75  O   UNK N   1      30.848   9.472   6.481  0.00  0.00    -0.274 OA
ENDBRANCH  70  71
ENDBRANCH  69  70
ENDBRANCH  32  69
BRANCH  33  76
HETATM   76  C   UNK N   1      36.366  13.186   2.601  0.00  0.00     0.180 C 
HETATM   77  N   UNK N   1      36.406  13.458   1.477  0.00  0.00    -0.180 NA
ENDBRANCH  33  76
BRANCH  11  78
HETATM   78  C   UNK N   1      35.389   7.776   2.562  0.00  0.00     0.110 C 
BRANCH  78  79
HETATM   79  C   UNK N   1      35.689   7.332   1.164  0.00  0.00     0.215 C 
HETATM   80  N   UNK N   1      36.656   7.946   0.453  0.00  0.00    -0.370 N 
HETATM   81  H   UNK N   1      37.062   7.878  -0.443  0.00  0.00     0.159 HD
HETATM   82  H   UNK N   1      37.075   8.667   0.976  0.00  0.00     0.159 HD
HETATM   83  O   UNK N   1      34.950   6.543   0.608  0.00  0.00    -0.274 OA
ENDBRANCH  78  79
ENDBRANCH  11  78
BRANCH  55  84
HETATM   84  C   UNK N   1      31.381  16.001   3.133  0.00  0.00     0.118 C 
BRANCH  84  85
HETATM   85  C   UNK N   1      30.054  16.446   3.813  0.00  0.00     0.216 C 
HETATM   86  N   UNK N   1      29.965  17.664   4.382  0.00  0.00    -0.370 N 
HETATM   87  H   UNK N   1      29.325  18.173   4.928  0.00  0.00     0.159 HD
HETATM   88  H   UNK N   1      30.772  18.198   4.198  0.00  0.00     0.159 HD
HETATM   89  O   UNK N   1      29.074  15.714   3.843  0.00  0.00    -0.274 OA
ENDBRANCH  84  85
ENDBRANCH  55  84
BRANCH  61  90
HETATM   90  C   UNK N   1      37.587  13.035   9.058  0.00  0.00     0.021 C 
BRANCH  90  91
HETATM   91  C   UNK N   1      38.004  12.950  10.577  0.00  0.00     0.103 C 
BRANCH  91  92
HETATM   92  C   UNK N   1      37.280  12.275  11.713  0.00  0.00     0.215 C 
HETATM   93  N   UNK N   1      36.280  12.923  12.346  0.00  0.00    -0.370 N 
HETATM   94  H   UNK N   1      35.761  13.696  12.668  0.00  0.00     0.159 HD
HETATM   95  H   UNK N   1      35.751  12.171  12.700  0.00  0.00     0.159 HD
HETATM   96  O   UNK N   1      37.692  11.220  12.164  0.00  0.00    -0.274 OA
ENDBRANCH  91  92
ENDBRANCH  90  91
ENDBRANCH  61  90
BRANCH  57  97
HETATM   97  C   UNK N   1      33.167  17.576   5.404  0.00  0.00     0.021 C 
BRANCH  97  98
HETATM   98  C   UNK N   1      33.637  17.588   6.839  0.00  0.00     0.103 C 
BRANCH  98  99
HETATM   99  C   UNK N   1      32.464  17.445   7.727  0.00  0.00     0.215 C 
HETATM  100  N   UNK N   1      32.646  17.210   9.040  0.00  0.00    -0.370 N 
HETATM  101  H   UNK N   1      31.871  17.169   9.646  0.00  0.00     0.159 HD
HETATM  102  H   UNK N   1      33.554  17.079   9.395  0.00  0.00     0.159 HD
HETATM  103  O   UNK N   1      31.338  17.540   7.271  0.00  0.00    -0.274 OA
ENDBRANCH  98  99
ENDBRANCH  97  98
ENDBRANCH  57  97
BRANCH  46 104
HETATM  104  O   UNK N   1      43.557  13.216   5.501  0.00  0.00    -0.388 OA
HETATM  105  H   UNK N   1      43.388  13.080   6.446  0.00  0.00     0.210 HD
ENDBRANCH  46 104
BRANCH  39 106
HETATM  106  C   UNK N   1      40.424  13.187   1.787  0.00  0.00     0.198 C 
BRANCH 106 107
HETATM  107  O   UNK N   1      40.549  11.859   1.341  0.00  0.00    -0.398 OA
HETATM  108  H   UNK N   1      40.131  11.070   1.721  0.00  0.00     0.209 HD
ENDBRANCH 106 107
ENDBRANCH  39 106
TORSDOF 19
ENDMDL
MODEL 4
REMARK VINA RESULT:      -5.7      9.457     15.547
REMARK  19 active torsions:
REMARK  status: ('A' for Active; 'I' for Inactive)
REMARK    1  A    between atoms: C_11  and  C_12 
REMARK    2  A    between atoms: C_12  and  C_13 
REMARK       I    between atoms: C_13  and  N_14 
REMARK    3  A    between atoms: C_34  and  C_36 
REMARK    4  A    between atoms: C_36  and  C_37 
REMARK       I    between atoms: C_37  and  N_38 
REMARK    5  A    between atoms: C_40  and  C_41 
REMARK    6  A    between atoms: C_41  and  C_42 
REMARK    7  A    between atoms: C_42  and  C_43 
REMARK       I    between atoms: C_43  and  N_44 
REMARK    8  A    between atoms: Co_46  and  C_47 
REMARK    9  A    between atoms: C_54  and  C_55 
REMARK   10  A    between atoms: C_55  and  O_56 
REMARK   11  A    between atoms: C_63  and  O_64 
REMARK   12  A    between atoms: C_73  and  C_75 
REMARK   13  A    between atoms: C_75  and  C_76 
REMARK       I    between atoms: C_76  and  N_77 
REMARK   14  A    between atoms: C_79  and  C_80 
REMARK   15  A    between atoms: C_80  and  C_81 
REMARK   16  A    between atoms: C_81  and  C_82 
REMARK       I    between atoms: C_82  and  N_83 
REMARK   17  A    between atoms: C_88  and  C_89 
REMARK   18  A    between atoms: C_89  and  C_90 
REMARK   19  A    between atoms: C_90  and  C_91 
REMARK       I    between atoms: C_91  and  N_92 
ROOT
HETATM    1  C   UNK N   1      33.230  13.389   6.828  0.00  0.00     0.148 C 
HETATM    2  C   UNK N   1      32.051  14.185   7.356  0.00  0.00     0.042 C 
HETATM    3  C   UNK N   1      34.445  13.673   7.604  0.00  0.00     0.154 C 
HETATM    4  N   UNK N   1      34.713  15.079   7.782  0.00  0.00    -0.359 N 
HETATM    5  C   UNK N   1      34.507  15.760   8.940  0.00  0.00     0.217 C 
HETATM    6  O   UNK N   1      34.851  16.927   8.991  0.00  0.00    -0.274 OA
HETATM    7  C   UNK N   1      33.881  15.142  10.188  0.00  0.00     0.104 C 
HETATM    8  C   UNK N   1      33.651  13.621  10.211  0.00  0.00     0.025 C 
HETATM    9  C   UNK N   1      34.962  12.837  10.197  0.00  0.00     0.007 C 
HETATM   10  C   UNK N   1      36.191  13.553   9.519  0.00  0.00     0.022 C 
HETATM   11  C   UNK N   1      35.635  12.796  11.529  0.00  0.00     0.036 C 
HETATM   12  C   UNK N   1      36.480  11.575  11.433  0.00  0.00     0.144 C 
HETATM   13  N   UNK N   1      36.219  10.978  10.122  0.00  0.00    -0.284 N 
HETATM   14  C   UNK N   1      34.972  11.309   9.821  0.00  0.00     0.046 C 
HETATM   15  C   UNK N   1      34.062  10.268   9.529  0.00  0.00    -0.012 C 
HETATM   16  C   UNK N   1      32.624  10.632   9.385  0.00  0.00     0.052 C 
HETATM   17  C   UNK N   1      34.466   8.705   9.372  0.00  0.00     0.048 C 
HETATM   18  N   UNK N   1      35.636   8.291   9.681  0.00  0.00    -0.256 N 
HETATM   19  C   UNK N   1      35.830   6.916   9.303  0.00  0.00     0.045 C 
HETATM   20  C   UNK N   1      36.998   6.214   9.243  0.00  0.00     0.055 C 
HETATM   21  C   UNK N   1      38.238   6.695   9.803  0.00  0.00     0.042 C 
HETATM   22  N   UNK N   1      38.224   7.825  10.341  0.00  0.00    -0.256 N 
HETATM   23  C   UNK N   1      38.876   7.648  11.659  0.00  0.00     0.052 C 
HETATM   24  C   UNK N   1      38.600   8.324  12.786  0.00  0.00    -0.012 C 
HETATM   25  C   UNK N   1      39.297   8.140  14.081  0.00  0.00     0.052 C 
HETATM   26  C   UNK N   1      37.410   9.016  12.887  0.00  0.00     0.043 C 
HETATM   27  N   UNK N   1      36.821   9.476  11.901  0.00  0.00    -0.280 N 
HETATM   28  C   UNK N   1      35.986  10.531  12.388  0.00  0.00     0.081 C 
HETATM   29  C   UNK N   1      34.499  10.113  12.310  0.00  0.00     0.043 C 
HETATM   30  C   UNK N   1      36.352  10.792  13.912  0.00  0.00     0.002 C 
HETATM   31  C   UNK N   1      37.644  11.602  14.122  0.00  0.00     0.019 C 
HETATM   32  C   UNK N   1      36.690   9.377  14.177  0.00  0.00     0.049 C 
HETATM   33 Co   UNK N   1      37.066   9.427   9.905  0.00  0.00     0.000 Co
HETATM   34  N   UNK N   1      36.775   9.822   7.677  0.00  0.00    -0.242 N 
HETATM   35  C   UNK N   1      37.760  10.140   6.744  0.00  0.00     0.213 A 
HETATM   36  N   UNK N   1      37.247  10.475   5.477  0.00  0.00    -0.309 N 
HETATM   37  C   UNK N   1      37.906  10.939   4.205  0.00  0.00     0.261 C 
HETATM   38  O   UNK N   1      39.144  11.447   4.524  0.00  0.00    -0.353 OA
HETATM   39  C   UNK N   1      38.867  12.763   5.006  0.00  0.00     0.180 C 
HETATM   40  C   UNK N   1      37.472  13.305   4.481  0.00  0.00     0.198 C 
HETATM   41  O   UNK N   1      36.401  13.261   5.429  0.00  0.00    -0.279 OA
HETATM   42  P   UNK N   1      34.956  14.187   4.882  0.00  0.00     0.409 P 
HETATM   43  O   UNK N   1      35.010  15.869   5.314  0.00  0.00    -0.624 OA
HETATM   44  O   UNK N   1      34.842  14.199   3.339  0.00  0.00    -0.624 OA
HETATM   45  O   UNK N   1      33.396  13.501   5.420  0.00  0.00    -0.283 OA
HETATM   46  C   UNK N   1      37.330  12.195   3.495  0.00  0.00     0.199 C 
HETATM   47  C   UNK N   1      35.943  10.377   5.562  0.00  0.00     0.067 A 
HETATM   48  C   UNK N   1      35.044  10.625   4.494  0.00  0.00     0.039 A 
HETATM   49  C   UNK N   1      33.677  10.560   4.669  0.00  0.00    -0.054 A 
HETATM   50  C   UNK N   1      32.757  10.864   3.517  0.00  0.00     0.049 C 
HETATM   51  C   UNK N   1      33.210  10.236   5.935  0.00  0.00    -0.054 A 
HETATM   52  C   UNK N   1      31.732  10.136   6.183  0.00  0.00     0.049 C 
HETATM   53  C   UNK N   1      34.162  10.023   6.993  0.00  0.00     0.041 A 
HETATM   54  C   UNK N   1      35.589  10.051   6.838  0.00  0.00     0.085 A 
HETATM   55  C   UNK N   1      39.203   6.198  11.945  0.00  0.00     0.018 C 
HETATM   56  C   UNK N   1      37.875   5.610  12.498  0.00  0.00     0.023 C 
HETATM   57  C   UNK N   1      39.287   5.791  10.485  0.00  0.00     0.053 C 
HETATM   58  C   UNK N   1      34.555   6.236   9.066  0.00  0.00     0.006 C 
HETATM   59  C   UNK N   1      34.632   5.018   8.120  0.00  0.00     0.022 C 
HETATM   60  C   UNK N   1      34.100   5.686  10.401  0.00  0.00     0.022 C 
HETATM   61  C   UNK N   1      33.687   7.470   8.682  0.00  0.00     0.052 C 
HETATM   62  H   UNK N   1      35.069  15.580   7.014  0.00  0.00     0.162 HD
ENDROOT
BRANCH  30  63
HETATM   63  C   UNK N   1      35.172  11.346  14.773  0.00  0.00     0.115 C 
BRANCH  63  64
HETATM   64  C   UNK N   1      35.519  11.983  16.100  0.00  0.00     0.216 C 
HETATM   65  N   UNK N   1      35.686  11.232  17.202  0.00  0.00    -0.370 N 
HETATM   66  H   UNK N   1      35.869  11.629  18.085  0.00  0.00     0.159 HD
HETATM   67  H   UNK N   1      35.623  10.252  17.125  0.00  0.00     0.159 HD
HETATM   68  O   UNK N   1      35.633  13.195  16.178  0.00  0.00    -0.274 OA
ENDBRANCH  63  64
ENDBRANCH  30  63
BRANCH  32  69
HETATM   69  C   UNK N   1      36.820   8.764  15.576  0.00  0.00     0.021 C 
BRANCH  69  70
HETATM   70  C   UNK N   1      35.687   7.825  15.926  0.00  0.00     0.103 C 
BRANCH  70  71
HETATM   71  C   UNK N   1      36.095   6.407  15.695  0.00  0.00     0.215 C 
HETATM   72  N   UNK N   1      37.287   5.970  16.144  0.00  0.00    -0.370 N 
HETATM   73  H   UNK N   1      37.758   6.459  16.856  0.00  0.00     0.159 HD
HETATM   74  H   UNK N   1      37.688   5.157  15.760  0.00  0.00     0.159 HD
HETATM   75  O   UNK N   1      35.366   5.652  15.073  0.00  0.00    -0.274 OA
ENDBRANCH  70  71
ENDBRANCH  69  70
ENDBRANCH  32  69
BRANCH  33  76
HETATM   76  C   UNK N   1      38.747  10.388   9.837  0.00  0.00     0.180 C 
HETATM   77  N   UNK N   1      39.635  11.116   9.688  0.00  0.00    -0.180 NA
ENDBRANCH  33  76
BRANCH  11  78
HETATM   78  C   UNK N   1      35.406  13.540  12.859  0.00  0.00     0.110 C 
BRANCH  78  79
HETATM   79  C   UNK N   1      36.169  14.798  13.134  0.00  0.00     0.215 C 
HETATM   80  N   UNK N   1      36.813  14.954  14.308  0.00  0.00    -0.370 N 
HETATM   81  H   UNK N   1      37.371  15.634  14.752  0.00  0.00     0.159 HD
HETATM   82  H   UNK N   1      36.692  14.166  14.885  0.00  0.00     0.159 HD
HETATM   83  O   UNK N   1      36.062  15.747  12.381  0.00  0.00    -0.274 OA
ENDBRANCH  78  79
ENDBRANCH  11  78
BRANCH  55  84
HETATM   84  C   UNK N   1      40.370   5.832  12.947  0.00  0.00     0.118 C 
BRANCH  84  85
HETATM   85  C   UNK N   1      41.818   6.007  12.404  0.00  0.00     0.216 C 
HETATM   86  N   UNK N   1      42.304   7.242  12.170  0.00  0.00    -0.370 N 
HETATM   87  H   UNK N   1      43.107   7.651  11.774  0.00  0.00     0.159 HD
HETATM   88  H   UNK N   1      41.677   7.932  12.486  0.00  0.00     0.159 HD
HETATM   89  O   UNK N   1      42.541   5.043  12.186  0.00  0.00    -0.274 OA
ENDBRANCH  84  85
ENDBRANCH  55  84
BRANCH  61  90
HETATM   90  C   UNK N   1      33.599   7.358   7.096  0.00  0.00     0.021 C 
BRANCH  90  91
HETATM   91  C   UNK N   1      32.359   6.719   6.357  0.00  0.00     0.103 C 
BRANCH  91  92
HETATM   92  C   UNK N   1      31.067   6.222   6.952  0.00  0.00     0.215 C 
HETATM   93  N   UNK N   1      30.159   7.108   7.413  0.00  0.00    -0.370 N 
HETATM   94  H   UNK N   1      29.830   7.961   7.779  0.00  0.00     0.159 HD
HETATM   95  H   UNK N   1      29.325   6.590   7.340  0.00  0.00     0.159 HD
HETATM   96  O   UNK N   1      30.906   5.032   7.163  0.00  0.00    -0.274 OA
ENDBRANCH  91  92
ENDBRANCH  90  91
ENDBRANCH  61  90
BRANCH  57  97
HETATM   97  C   UNK N   1      39.520   4.333  10.145  0.00  0.00     0.021 C 
BRANCH  97  98
HETATM   98  C   UNK N   1      40.144   4.133   8.784  0.00  0.00     0.103 C 
BRANCH  98  99
HETATM   99  C   UNK N   1      41.581   4.470   8.864  0.00  0.00     0.215 C 
HETATM  100  N   UNK N   1      42.422   3.653   9.525  0.00  0.00    -0.370 N 
HETATM  101  H   UNK N   1      43.388   3.843   9.535  0.00  0.00     0.159 HD
HETATM  102  H   UNK N   1      42.071   2.865   9.998  0.00  0.00     0.159 HD
HETATM  103  O   UNK N   1      42.002   5.485   8.335  0.00  0.00    -0.274 OA
ENDBRANCH  98  99
ENDBRANCH  97  98
ENDBRANCH  57  97
BRANCH  46 104
HETATM  104  O   UNK N   1      36.159  12.133   2.739  0.00  0.00    -0.388 OA
HETATM  105  H   UNK N   1      35.455  12.726   2.434  0.00  0.00     0.210 HD
ENDBRANCH  46 104
BRANCH  39 106
HETATM  106  C   UNK N   1      39.170  12.792   6.495  0.00  0.00     0.198 C 
BRANCH 106 107
HETATM  107  O   UNK N   1      38.639  13.975   7.040  0.00  0.00    -0.398 OA
HETATM  108  H   UNK N   1      39.132  14.727   7.404  0.00  0.00     0.209 HD
ENDBRANCH 106 107
ENDBRANCH  39 106
TORSDOF 19
ENDMDL
MODEL 5
REMARK VINA RESULT:      -5.6     11.066     16.336
REMARK  19 active torsions:
REMARK  status: ('A' for Active; 'I' for Inactive)
REMARK    1  A    between atoms: C_11  and  C_12 
REMARK    2  A    between atoms: C_12  and  C_13 
REMARK       I    between atoms: C_13  and  N_14 
REMARK    3  A    between atoms: C_34  and  C_36 
REMARK    4  A    between atoms: C_36  and  C_37 
REMARK       I    between atoms: C_37  and  N_38 
REMARK    5  A    between atoms: C_40  and  C_41 
REMARK    6  A    between atoms: C_41  and  C_42 
REMARK    7  A    between atoms: C_42  and  C_43 
REMARK       I    between atoms: C_43  and  N_44 
REMARK    8  A    between atoms: Co_46  and  C_47 
REMARK    9  A    between atoms: C_54  and  C_55 
REMARK   10  A    between atoms: C_55  and  O_56 
REMARK   11  A    between atoms: C_63  and  O_64 
REMARK   12  A    between atoms: C_73  and  C_75 
REMARK   13  A    between atoms: C_75  and  C_76 
REMARK       I    between atoms: C_76  and  N_77 
REMARK   14  A    between atoms: C_79  and  C_80 
REMARK   15  A    between atoms: C_80  and  C_81 
REMARK   16  A    between atoms: C_81  and  C_82 
REMARK       I    between atoms: C_82  and  N_83 
REMARK   17  A    between atoms: C_88  and  C_89 
REMARK   18  A    between atoms: C_89  and  C_90 
REMARK   19  A    between atoms: C_90  and  C_91 
REMARK       I    between atoms: C_91  and  N_92 
ROOT
HETATM    1  C   UNK N   1      35.156  10.456   7.726  0.00  0.00     0.148 C 
HETATM    2  C   UNK N   1      34.524   9.888   6.468  0.00  0.00     0.042 C 
HETATM    3  C   UNK N   1      34.452   9.985   8.925  0.00  0.00     0.154 C 
HETATM    4  N   UNK N   1      33.019  10.136   8.864  0.00  0.00    -0.359 N 
HETATM    5  C   UNK N   1      32.147   9.115   8.652  0.00  0.00     0.217 C 
HETATM    6  O   UNK N   1      30.954   9.357   8.705  0.00  0.00    -0.274 OA
HETATM    7  C   UNK N   1      32.576   7.679   8.366  0.00  0.00     0.104 C 
HETATM    8  C   UNK N   1      34.064   7.318   8.520  0.00  0.00     0.025 C 
HETATM    9  C   UNK N   1      34.537   7.417   9.968  0.00  0.00     0.007 C 
HETATM   10  C   UNK N   1      33.757   8.433  10.885  0.00  0.00     0.022 C 
HETATM   11  C   UNK N   1      34.126   6.247  10.801  0.00  0.00     0.036 C 
HETATM   12  C   UNK N   1      35.131   6.255  11.898  0.00  0.00     0.144 C 
HETATM   13  N   UNK N   1      36.057   7.355  11.620  0.00  0.00    -0.284 N 
HETATM   14  C   UNK N   1      36.074   7.483  10.301  0.00  0.00     0.046 C 
HETATM   15  C   UNK N   1      37.321   7.396   9.642  0.00  0.00    -0.012 C 
HETATM   16  C   UNK N   1      37.310   7.344   8.153  0.00  0.00     0.052 C 
HETATM   17  C   UNK N   1      38.758   7.316  10.391  0.00  0.00     0.048 C 
HETATM   18  N   UNK N   1      38.834   7.151  11.657  0.00  0.00    -0.256 N 
HETATM   19  C   UNK N   1      40.188   7.282  12.128  0.00  0.00     0.045 C 
HETATM   20  C   UNK N   1      40.623   7.415  13.414  0.00  0.00     0.055 C 
HETATM   21  C   UNK N   1      39.777   7.195  14.563  0.00  0.00     0.042 C 
HETATM   22  N   UNK N   1      38.582   6.894  14.344  0.00  0.00    -0.256 N 
HETATM   23  C   UNK N   1      38.308   5.708  15.188  0.00  0.00     0.052 C 
HETATM   24  C   UNK N   1      37.463   4.703  14.906  0.00  0.00    -0.012 C 
HETATM   25  C   UNK N   1      37.192   3.546  15.791  0.00  0.00     0.052 C 
HETATM   26  C   UNK N   1      37.031   4.524  13.608  0.00  0.00     0.043 C 
HETATM   27  N   UNK N   1      36.946   5.457  12.799  0.00  0.00    -0.280 N 
HETATM   28  C   UNK N   1      36.006   5.042  11.804  0.00  0.00     0.081 C 
HETATM   29  C   UNK N   1      36.732   4.765  10.467  0.00  0.00     0.043 C 
HETATM   30  C   UNK N   1      35.328   3.690  12.293  0.00  0.00     0.002 C 
HETATM   31  C   UNK N   1      34.240   3.881  13.364  0.00  0.00     0.019 C 
HETATM   32  C   UNK N   1      36.540   3.220  12.998  0.00  0.00     0.049 C 
HETATM   33 Co   UNK N   1      37.403   7.416  12.783  0.00  0.00     0.000 Co
HETATM   34  N   UNK N   1      37.606   9.588  12.114  0.00  0.00    -0.242 N 
HETATM   35  C   UNK N   1      37.313  10.727  12.859  0.00  0.00     0.213 A 
HETATM   36  N   UNK N   1      37.396  11.921  12.117  0.00  0.00    -0.309 N 
HETATM   37  C   UNK N   1      37.112  13.357  12.470  0.00  0.00     0.261 C 
HETATM   38  O   UNK N   1      36.296  13.374  13.577  0.00  0.00    -0.353 OA
HETATM   39  C   UNK N   1      34.992  13.116  13.054  0.00  0.00     0.180 C 
HETATM   40  C   UNK N   1      34.891  13.473  11.512  0.00  0.00     0.198 C 
HETATM   41  O   UNK N   1      34.938  12.357  10.619  0.00  0.00    -0.279 OA
HETATM   42  P   UNK N   1      34.488  12.802   8.932  0.00  0.00     0.409 P 
HETATM   43  O   UNK N   1      32.778  12.724   8.631  0.00  0.00    -0.624 OA
HETATM   44  O   UNK N   1      34.857  14.271   8.616  0.00  0.00    -0.624 OA
HETATM   45  O   UNK N   1      35.341  11.865   7.672  0.00  0.00    -0.283 OA
HETATM   46  C   UNK N   1      36.204  14.182  11.516  0.00  0.00     0.199 C 
HETATM   47  C   UNK N   1      37.742  11.583  10.900  0.00  0.00     0.067 A 
HETATM   48  C   UNK N   1      37.943  12.497   9.834  0.00  0.00     0.039 A 
HETATM   49  C   UNK N   1      38.250  12.067   8.560  0.00  0.00    -0.054 A 
HETATM   50  C   UNK N   1      38.421  13.069   7.450  0.00  0.00     0.049 C 
HETATM   51  C   UNK N   1      38.362  10.699   8.358  0.00  0.00    -0.054 A 
HETATM   52  C   UNK N   1      38.709  10.172   6.994  0.00  0.00     0.049 C 
HETATM   53  C   UNK N   1      38.120   9.811   9.463  0.00  0.00     0.041 A 
HETATM   54  C   UNK N   1      37.830  10.226  10.808  0.00  0.00     0.085 A 
HETATM   55  C   UNK N   1      39.551   5.209  15.893  0.00  0.00     0.018 C 
HETATM   56  C   UNK N   1      40.260   4.320  14.833  0.00  0.00     0.023 C 
HETATM   57  C   UNK N   1      40.258   6.552  15.881  0.00  0.00     0.053 C 
HETATM   58  C   UNK N   1      41.156   7.146  11.038  0.00  0.00     0.006 C 
HETATM   59  C   UNK N   1      42.515   7.834  11.284  0.00  0.00     0.022 C 
HETATM   60  C   UNK N   1      41.464   5.669  10.912  0.00  0.00     0.022 C 
HETATM   61  C   UNK N   1      40.254   7.599   9.853  0.00  0.00     0.052 C 
HETATM   62  H   UNK N   1      32.647  11.039   8.982  0.00  0.00     0.162 HD
ENDROOT
BRANCH  30  63
HETATM   63  C   UNK N   1      34.849   2.754  11.137  0.00  0.00     0.115 C 
BRANCH  63  64
HETATM   64  C   UNK N   1      33.912   1.625  11.502  0.00  0.00     0.216 C 
HETATM   65  N   UNK N   1      32.585   1.746  11.326  0.00  0.00    -0.370 N 
HETATM   66  H   UNK N   1      31.953   1.041  11.598  0.00  0.00     0.159 HD
HETATM   67  H   UNK N   1      32.232   2.567  10.912  0.00  0.00     0.159 HD
HETATM   68  O   UNK N   1      34.362   0.596  11.979  0.00  0.00    -0.274 OA
ENDBRANCH  63  64
ENDBRANCH  30  63
BRANCH  32  69
HETATM   69  C   UNK N   1      36.771   1.777  13.457  0.00  0.00     0.021 C 
BRANCH  69  70
HETATM   70  C   UNK N   1      38.074   1.191  12.960  0.00  0.00     0.103 C 
BRANCH  70  71
HETATM   71  C   UNK N   1      38.003   0.931  11.491  0.00  0.00     0.215 C 
HETATM   72  N   UNK N   1      37.205  -0.045  11.021  0.00  0.00    -0.370 N 
HETATM   73  H   UNK N   1      36.464  -0.389  11.571  0.00  0.00     0.159 HD
HETATM   74  H   UNK N   1      37.361  -0.417  10.122  0.00  0.00     0.159 HD
HETATM   75  O   UNK N   1      38.691   1.579  10.719  0.00  0.00    -0.274 OA
ENDBRANCH  70  71
ENDBRANCH  69  70
ENDBRANCH  32  69
BRANCH  33  76
HETATM   76  C   UNK N   1      36.154   7.975  14.155  0.00  0.00     0.180 C 
HETATM   77  N   UNK N   1      35.563   8.458  15.025  0.00  0.00    -0.180 NA
ENDBRANCH  33  76
BRANCH  11  78
HETATM   78  C   UNK N   1      33.160   5.069  10.575  0.00  0.00     0.110 C 
BRANCH  78  79
HETATM   79  C   UNK N   1      31.749   5.177  11.064  0.00  0.00     0.215 C 
HETATM   80  N   UNK N   1      30.945   6.153  10.596  0.00  0.00    -0.370 N 
HETATM   81  H   UNK N   1      30.016   6.459  10.721  0.00  0.00     0.159 HD
HETATM   82  H   UNK N   1      31.419   6.720   9.946  0.00  0.00     0.159 HD
HETATM   83  O   UNK N   1      31.382   4.501  12.006  0.00  0.00    -0.274 OA
ENDBRANCH  78  79
ENDBRANCH  11  78
BRANCH  55  84
HETATM   84  C   UNK N   1      39.422   4.384  17.236  0.00  0.00     0.118 C 
BRANCH  84  85
HETATM   85  C   UNK N   1      39.062   5.202  18.510  0.00  0.00     0.216 C 
HETATM   86  N   UNK N   1      39.979   5.370  19.483  0.00  0.00    -0.370 N 
HETATM   87  H   UNK N   1      40.025   5.746  20.391  0.00  0.00     0.159 HD
HETATM   88  H   UNK N   1      40.855   5.014  19.206  0.00  0.00     0.159 HD
HETATM   89  O   UNK N   1      37.958   5.710  18.654  0.00  0.00    -0.274 OA
ENDBRANCH  84  85
ENDBRANCH  55  84
BRANCH  61  90
HETATM   90  C   UNK N   1      40.746   9.089   9.586  0.00  0.00     0.021 C 
BRANCH  90  91
HETATM   91  C   UNK N   1      41.817   9.446   8.483  0.00  0.00     0.103 C 
BRANCH  91  92
HETATM   92  C   UNK N   1      42.553  10.745   8.276  0.00  0.00     0.215 C 
HETATM   93  N   UNK N   1      41.872  11.843   7.886  0.00  0.00    -0.370 N 
HETATM   94  H   UNK N   1      41.144  12.357   7.466  0.00  0.00     0.159 HD
HETATM   95  H   UNK N   1      42.451  12.564   8.224  0.00  0.00     0.159 HD
HETATM   96  O   UNK N   1      43.772  10.772   8.303  0.00  0.00    -0.274 OA
ENDBRANCH  91  92
ENDBRANCH  90  91
ENDBRANCH  61  90
BRANCH  57  97
HETATM   97  C   UNK N   1      41.674   6.637  16.415  0.00  0.00     0.021 C 
BRANCH  97  98
HETATM   98  C   UNK N   1      42.118   8.055  16.695  0.00  0.00     0.103 C 
BRANCH  98  99
HETATM   99  C   UNK N   1      42.568   8.144  18.100  0.00  0.00     0.215 C 
HETATM  100  N   UNK N   1      43.624   8.918  18.413  0.00  0.00    -0.370 N 
HETATM  101  H   UNK N   1      43.894   9.025  19.355  0.00  0.00     0.159 HD
HETATM  102  H   UNK N   1      44.126   9.376  17.702  0.00  0.00     0.159 HD
HETATM  103  O   UNK N   1      41.985   7.521  18.970  0.00  0.00    -0.274 OA
ENDBRANCH  98  99
ENDBRANCH  97  98
ENDBRANCH  57  97
BRANCH  46 104
HETATM  104  O   UNK N   1      36.684  14.685  10.306  0.00  0.00    -0.388 OA
HETATM  105  H   UNK N   1      36.549  14.550   9.355  0.00  0.00     0.210 HD
ENDBRANCH  46 104
BRANCH  39 106
HETATM  106  C   UNK N   1      34.556  11.742  13.534  0.00  0.00     0.198 C 
BRANCH 106 107
HETATM  107  O   UNK N   1      34.748  11.668  14.925  0.00  0.00    -0.398 OA
HETATM  108  H   UNK N   1      34.112  11.363  15.591  0.00  0.00     0.209 HD
ENDBRANCH 106 107
ENDBRANCH  39 106
TORSDOF 19
ENDMDL
MODEL 6
REMARK VINA RESULT:      -5.4      6.995     13.254
REMARK  19 active torsions:
REMARK  status: ('A' for Active; 'I' for Inactive)
REMARK    1  A    between atoms: C_11  and  C_12 
REMARK    2  A    between atoms: C_12  and  C_13 
REMARK       I    between atoms: C_13  and  N_14 
REMARK    3  A    between atoms: C_34  and  C_36 
REMARK    4  A    between atoms: C_36  and  C_37 
REMARK       I    between atoms: C_37  and  N_38 
REMARK    5  A    between atoms: C_40  and  C_41 
REMARK    6  A    between atoms: C_41  and  C_42 
REMARK    7  A    between atoms: C_42  and  C_43 
REMARK       I    between atoms: C_43  and  N_44 
REMARK    8  A    between atoms: Co_46  and  C_47 
REMARK    9  A    between atoms: C_54  and  C_55 
REMARK   10  A    between atoms: C_55  and  O_56 
REMARK   11  A    between atoms: C_63  and  O_64 
REMARK   12  A    between atoms: C_73  and  C_75 
REMARK   13  A    between atoms: C_75  and  C_76 
REMARK       I    between atoms: C_76  and  N_77 
REMARK   14  A    between atoms: C_79  and  C_80 
REMARK   15  A    between atoms: C_80  and  C_81 
REMARK   16  A    between atoms: C_81  and  C_82 
REMARK       I    between atoms: C_82  and  N_83 
REMARK   17  A    between atoms: C_88  and  C_89 
REMARK   18  A    between atoms: C_89  and  C_90 
REMARK   19  A    between atoms: C_90  and  C_91 
REMARK       I    between atoms: C_91  and  N_92 
ROOT
HETATM    1  C   UNK N   1      30.308  10.336   2.214  0.00  0.00     0.148 C 
HETATM    2  C   UNK N   1      28.920  10.591   2.772  0.00  0.00     0.042 C 
HETATM    3  C   UNK N   1      31.130  11.552   2.277  0.00  0.00     0.154 C 
HETATM    4  N   UNK N   1      30.486  12.726   1.743  0.00  0.00    -0.359 N 
HETATM    5  C   UNK N   1      29.968  13.729   2.500  0.00  0.00     0.217 C 
HETATM    6  O   UNK N   1      29.523  14.709   1.930  0.00  0.00    -0.274 OA
HETATM    7  C   UNK N   1      29.925  13.706   4.025  0.00  0.00     0.104 C 
HETATM    8  C   UNK N   1      30.682  12.585   4.759  0.00  0.00     0.025 C 
HETATM    9  C   UNK N   1      32.194  12.689   4.571  0.00  0.00     0.007 C 
HETATM   10  C   UNK N   1      32.682  13.390   3.248  0.00  0.00     0.022 C 
HETATM   11  C   UNK N   1      32.822  13.733   5.435  0.00  0.00     0.036 C 
HETATM   12  C   UNK N   1      34.232  13.271   5.538  0.00  0.00     0.144 C 
HETATM   13  N   UNK N   1      34.323  12.011   4.797  0.00  0.00    -0.284 N 
HETATM   14  C   UNK N   1      33.122  11.457   4.886  0.00  0.00     0.046 C 
HETATM   15  C   UNK N   1      33.032  10.152   5.420  0.00  0.00    -0.012 C 
HETATM   16  C   UNK N   1      31.669   9.616   5.698  0.00  0.00     0.052 C 
HETATM   17  C   UNK N   1      34.303   9.211   5.781  0.00  0.00     0.048 C 
HETATM   18  N   UNK N   1      35.495   9.675   5.761  0.00  0.00    -0.256 N 
HETATM   19  C   UNK N   1      36.472   8.635   5.941  0.00  0.00     0.045 C 
HETATM   20  C   UNK N   1      37.819   8.699   5.736  0.00  0.00     0.055 C 
HETATM   21  C   UNK N   1      38.529   9.938   5.530  0.00  0.00     0.042 C 
HETATM   22  N   UNK N   1      37.851  10.991   5.515  0.00  0.00    -0.256 N 
HETATM   23  C   UNK N   1      38.546  11.926   6.431  0.00  0.00     0.052 C 
HETATM   24  C   UNK N   1      37.975  12.874   7.191  0.00  0.00    -0.012 C 
HETATM   25  C   UNK N   1      38.707  13.813   8.073  0.00  0.00     0.052 C 
HETATM   26  C   UNK N   1      36.619  12.817   7.442  0.00  0.00     0.043 C 
HETATM   27  N   UNK N   1      35.818  12.288   6.660  0.00  0.00    -0.280 N 
HETATM   28  C   UNK N   1      34.539  12.861   6.946  0.00  0.00     0.081 C 
HETATM   29  C   UNK N   1      33.624  11.813   7.620  0.00  0.00     0.043 C 
HETATM   30  C   UNK N   1      34.750  14.066   7.961  0.00  0.00     0.002 C 
HETATM   31  C   UNK N   1      35.279  15.356   7.310  0.00  0.00     0.019 C 
HETATM   32  C   UNK N   1      35.902  13.428   8.636  0.00  0.00     0.049 C 
HETATM   33 Co   UNK N   1      35.931  11.260   4.935  0.00  0.00     0.000 Co
HETATM   34  N   UNK N   1      35.338  10.140   3.038  0.00  0.00    -0.242 N 
HETATM   35  C   UNK N   1      35.864  10.312   1.760  0.00  0.00     0.213 A 
HETATM   36  N   UNK N   1      35.185   9.580   0.768  0.00  0.00    -0.309 N 
HETATM   37  C   UNK N   1      35.348   9.503  -0.727  0.00  0.00     0.261 C 
HETATM   38  O   UNK N   1      36.026  10.625  -1.143  0.00  0.00    -0.353 OA
HETATM   39  C   UNK N   1      35.025  11.643  -1.181  0.00  0.00     0.180 C 
HETATM   40  C   UNK N   1      33.566  11.035  -1.308  0.00  0.00     0.198 C 
HETATM   41  O   UNK N   1      32.803  11.013  -0.098  0.00  0.00    -0.279 OA
HETATM   42  P   UNK N   1      31.067  10.626  -0.382  0.00  0.00     0.409 P 
HETATM   43  O   UNK N   1      30.098  12.024  -0.739  0.00  0.00    -0.624 OA
HETATM   44  O   UNK N   1      30.885   9.717  -1.622  0.00  0.00    -0.624 OA
HETATM   45  O   UNK N   1      30.293   9.706   0.939  0.00  0.00    -0.283 OA
HETATM   46  C   UNK N   1      34.083   9.669  -1.613  0.00  0.00     0.199 C 
HETATM   47  C   UNK N   1      34.226   8.927   1.375  0.00  0.00     0.067 A 
HETATM   48  C   UNK N   1      33.307   8.060   0.731  0.00  0.00     0.039 A 
HETATM   49  C   UNK N   1      32.282   7.448   1.423  0.00  0.00    -0.054 A 
HETATM   50  C   UNK N   1      31.309   6.561   0.694  0.00  0.00     0.049 C 
HETATM   51  C   UNK N   1      32.184   7.710   2.781  0.00  0.00    -0.054 A 
HETATM   52  C   UNK N   1      31.097   7.061   3.591  0.00  0.00     0.049 C 
HETATM   53  C   UNK N   1      33.121   8.621   3.383  0.00  0.00     0.041 A 
HETATM   54  C   UNK N   1      34.218   9.248   2.700  0.00  0.00     0.085 A 
HETATM   55  C   UNK N   1      39.711  11.271   7.141  0.00  0.00     0.018 C 
HETATM   56  C   UNK N   1      39.059  10.537   8.347  0.00  0.00     0.023 C 
HETATM   57  C   UNK N   1      39.948  10.223   6.068  0.00  0.00     0.053 C 
HETATM   58  C   UNK N   1      35.876   7.425   6.511  0.00  0.00     0.006 C 
HETATM   59  C   UNK N   1      36.633   6.117   6.200  0.00  0.00     0.022 C 
HETATM   60  C   UNK N   1      35.930   7.580   8.015  0.00  0.00     0.022 C 
HETATM   61  C   UNK N   1      34.413   7.617   6.014  0.00  0.00     0.052 C 
HETATM   62  H   UNK N   1      30.416  12.807   0.765  0.00  0.00     0.162 HD
ENDROOT
BRANCH  30  63
HETATM   63  C   UNK N   1      33.528  14.344   8.895  0.00  0.00     0.115 C 
BRANCH  63  64
HETATM   64  C   UNK N   1      33.426  15.721   9.512  0.00  0.00     0.216 C 
HETATM   65  N   UNK N   1      34.188  16.062  10.566  0.00  0.00    -0.370 N 
HETATM   66  H   UNK N   1      34.105  16.937  11.011  0.00  0.00     0.159 HD
HETATM   67  H   UNK N   1      34.850  15.417  10.904  0.00  0.00     0.159 HD
HETATM   68  O   UNK N   1      32.629  16.528   9.062  0.00  0.00    -0.274 OA
ENDBRANCH  63  64
ENDBRANCH  30  63
BRANCH  32  69
HETATM   69  C   UNK N   1      36.458  13.860   9.996  0.00  0.00     0.021 C 
BRANCH  69  70
HETATM   70  C   UNK N   1      36.179  12.866  11.101  0.00  0.00     0.103 C 
BRANCH  70  71
HETATM   71  C   UNK N   1      35.836  13.576  12.369  0.00  0.00     0.215 C 
HETATM   72  N   UNK N   1      36.813  13.925  13.227  0.00  0.00    -0.370 N 
HETATM   73  H   UNK N   1      37.745  13.988  12.919  0.00  0.00     0.159 HD
HETATM   74  H   UNK N   1      36.593  14.119  14.168  0.00  0.00     0.159 HD
HETATM   75  O   UNK N   1      34.671  13.812  12.644  0.00  0.00    -0.274 OA
ENDBRANCH  70  71
ENDBRANCH  69  70
ENDBRANCH  32  69
BRANCH  33  76
HETATM   76  C   UNK N   1      36.658  12.686   3.842  0.00  0.00     0.180 C 
HETATM   77  N   UNK N   1      36.985  13.437   3.025  0.00  0.00    -0.180 NA
ENDBRANCH  33  76
BRANCH  11  78
HETATM   78  C   UNK N   1      32.257  14.863   6.317  0.00  0.00     0.110 C 
BRANCH  78  79
HETATM   79  C   UNK N   1      32.027  16.215   5.715  0.00  0.00     0.215 C 
HETATM   80  N   UNK N   1      30.885  16.883   5.973  0.00  0.00    -0.370 N 
HETATM   81  H   UNK N   1      30.472  17.746   5.736  0.00  0.00     0.159 HD
HETATM   82  H   UNK N   1      30.297  16.361   6.565  0.00  0.00     0.159 HD
HETATM   83  O   UNK N   1      32.783  16.632   4.858  0.00  0.00    -0.274 OA
ENDBRANCH  78  79
ENDBRANCH  11  78
BRANCH  55  84
HETATM   84  C   UNK N   1      40.909  12.152   7.677  0.00  0.00     0.118 C 
BRANCH  84  85
HETATM   85  C   UNK N   1      41.897  12.692   6.602  0.00  0.00     0.216 C 
HETATM   86  N   UNK N   1      41.569  13.777   5.873  0.00  0.00    -0.370 N 
HETATM   87  H   UNK N   1      41.927  14.280   5.107  0.00  0.00     0.159 HD
HETATM   88  H   UNK N   1      40.733  14.181   6.199  0.00  0.00     0.159 HD
HETATM   89  O   UNK N   1      42.979  12.157   6.401  0.00  0.00    -0.274 OA
ENDBRANCH  84  85
ENDBRANCH  55  84
BRANCH  61  90
HETATM   90  C   UNK N   1      34.325   6.614   4.781  0.00  0.00     0.021 C 
BRANCH  90  91
HETATM   91  C   UNK N   1      33.730   5.157   4.911  0.00  0.00     0.103 C 
BRANCH  91  92
HETATM   92  C   UNK N   1      33.347   4.200   3.812  0.00  0.00     0.215 C 
HETATM   93  N   UNK N   1      33.866   4.359   2.577  0.00  0.00    -0.370 N 
HETATM   94  H   UNK N   1      34.269   4.840   1.818  0.00  0.00     0.159 HD
HETATM   95  H   UNK N   1      33.806   3.443   2.219  0.00  0.00     0.159 HD
HETATM   96  O   UNK N   1      32.456   3.386   3.989  0.00  0.00    -0.274 OA
ENDBRANCH  91  92
ENDBRANCH  90  91
ENDBRANCH  61  90
BRANCH  57  97
HETATM   97  C   UNK N   1      41.010   9.167   6.299  0.00  0.00     0.021 C 
BRANCH  97  98
HETATM   98  C   UNK N   1      41.455   8.484   5.027  0.00  0.00     0.103 C 
BRANCH  98  99
HETATM   99  C   UNK N   1      42.220   9.450   4.210  0.00  0.00     0.215 C 
HETATM  100  N   UNK N   1      43.421   9.881   4.639  0.00  0.00    -0.370 N 
HETATM  101  H   UNK N   1      43.960  10.481   4.074  0.00  0.00     0.159 HD
HETATM  102  H   UNK N   1      43.760   9.597   5.517  0.00  0.00     0.159 HD
HETATM  103  O   UNK N   1      41.765   9.854   3.154  0.00  0.00    -0.274 OA
ENDBRANCH  98  99
ENDBRANCH  97  98
ENDBRANCH  57  97
BRANCH  46 104
HETATM  104  O   UNK N   1      33.159   8.636  -1.767  0.00  0.00    -0.388 OA
HETATM  105  H   UNK N   1      32.244   8.432  -1.519  0.00  0.00     0.210 HD
ENDBRANCH  46 104
BRANCH  39 106
HETATM  106  C   UNK N   1      35.327  12.641  -0.076  0.00  0.00     0.198 C 
BRANCH 106 107
HETATM  107  O   UNK N   1      34.187  13.438   0.136  0.00  0.00    -0.398 OA
HETATM  108  H   UNK N   1      33.373  13.186   0.598  0.00  0.00     0.209 HD
ENDBRANCH 106 107
ENDBRANCH  39 106
TORSDOF 19
ENDMDL
MODEL 7
REMARK VINA RESULT:      -5.2     14.284     17.943
REMARK  19 active torsions:
REMARK  status: ('A' for Active; 'I' for Inactive)
REMARK    1  A    between atoms: C_11  and  C_12 
REMARK    2  A    between atoms: C_12  and  C_13 
REMARK       I    between atoms: C_13  and  N_14 
REMARK    3  A    between atoms: C_34  and  C_36 
REMARK    4  A    between atoms: C_36  and  C_37 
REMARK       I    between atoms: C_37  and  N_38 
REMARK    5  A    between atoms: C_40  and  C_41 
REMARK    6  A    between atoms: C_41  and  C_42 
REMARK    7  A    between atoms: C_42  and  C_43 
REMARK       I    between atoms: C_43  and  N_44 
REMARK    8  A    between atoms: Co_46  and  C_47 
REMARK    9  A    between atoms: C_54  and  C_55 
REMARK   10  A    between atoms: C_55  and  O_56 
REMARK   11  A    between atoms: C_63  and  O_64 
REMARK   12  A    between atoms: C_73  and  C_75 
REMARK   13  A    between atoms: C_75  and  C_76 
REMARK       I    between atoms: C_76  and  N_77 
REMARK   14  A    between atoms: C_79  and  C_80 
REMARK   15  A    between atoms: C_80  and  C_81 
REMARK   16  A    between atoms: C_81  and  C_82 
REMARK       I    between atoms: C_82  and  N_83 
REMARK   17  A    between atoms: C_88  and  C_89 
REMARK   18  A    between atoms: C_89  and  C_90 
REMARK   19  A    between atoms: C_90  and  C_91 
REMARK       I    between atoms: C_91  and  N_92 
ROOT
HETATM    1  C   UNK N   1      30.434  22.647  -9.117  0.00  0.00     0.148 C 
HETATM    2  C   UNK N   1      30.153  22.141 -10.521  0.00  0.00     0.042 C 
HETATM    3  C   UNK N   1      30.863  21.549  -8.241  0.00  0.00     0.154 C 
HETATM    4  N   UNK N   1      30.010  20.388  -8.291  0.00  0.00    -0.359 N 
HETATM    5  C   UNK N   1      30.324  19.231  -8.932  0.00  0.00     0.217 C 
HETATM    6  O   UNK N   1      29.555  18.291  -8.832  0.00  0.00    -0.274 OA
HETATM    7  C   UNK N   1      31.591  19.037  -9.760  0.00  0.00     0.104 C 
HETATM    8  C   UNK N   1      32.670  20.132  -9.709  0.00  0.00     0.025 C 
HETATM    9  C   UNK N   1      33.311  20.250  -8.328  0.00  0.00     0.007 C 
HETATM   10  C   UNK N   1      32.418  19.807  -7.108  0.00  0.00     0.022 C 
HETATM   11  C   UNK N   1      34.323  19.184  -8.059  0.00  0.00     0.036 C 
HETATM   12  C   UNK N   1      35.183  19.804  -7.015  0.00  0.00     0.144 C 
HETATM   13  N   UNK N   1      34.670  21.157  -6.786  0.00  0.00    -0.284 N 
HETATM   14  C   UNK N   1      34.133  21.534  -7.939  0.00  0.00     0.046 C 
HETATM   15  C   UNK N   1      34.602  22.730  -8.527  0.00  0.00    -0.012 C 
HETATM   16  C   UNK N   1      34.138  23.043  -9.909  0.00  0.00     0.052 C 
HETATM   17  C   UNK N   1      35.631  23.766  -7.821  0.00  0.00     0.048 C 
HETATM   18  N   UNK N   1      36.225  23.466  -6.729  0.00  0.00    -0.256 N 
HETATM   19  C   UNK N   1      36.950  24.588  -6.194  0.00  0.00     0.045 C 
HETATM   20  C   UNK N   1      37.491  24.725  -4.949  0.00  0.00     0.055 C 
HETATM   21  C   UNK N   1      37.632  23.628  -4.022  0.00  0.00     0.042 C 
HETATM   22  N   UNK N   1      37.206  22.509  -4.390  0.00  0.00    -0.256 N 
HETATM   23  C   UNK N   1      38.302  21.553  -4.112  0.00  0.00     0.052 C 
HETATM   24  C   UNK N   1      38.593  20.443  -4.810  0.00  0.00    -0.012 C 
HETATM   25  C   UNK N   1      39.681  19.492  -4.482  0.00  0.00     0.052 C 
HETATM   26  C   UNK N   1      38.086  20.291  -6.084  0.00  0.00     0.043 C 
HETATM   27  N   UNK N   1      37.026  20.816  -6.447  0.00  0.00    -0.280 N 
HETATM   28  C   UNK N   1      36.558  20.050  -7.560  0.00  0.00     0.081 C 
HETATM   29  C   UNK N   1      36.692  20.868  -8.865  0.00  0.00     0.043 C 
HETATM   30  C   UNK N   1      37.467  18.753  -7.689  0.00  0.00     0.002 C 
HETATM   31  C   UNK N   1      37.133  17.644  -6.675  0.00  0.00     0.019 C 
HETATM   32  C   UNK N   1      38.682  19.433  -7.190  0.00  0.00     0.049 C 
HETATM   33 Co   UNK N   1      35.680  22.080  -5.649  0.00  0.00     0.000 Co
HETATM   34  N   UNK N   1      33.817  23.368  -5.370  0.00  0.00    -0.242 N 
HETATM   35  C   UNK N   1      33.009  23.443  -4.238  0.00  0.00     0.213 A 
HETATM   36  N   UNK N   1      31.846  24.214  -4.427  0.00  0.00    -0.309 N 
HETATM   37  C   UNK N   1      30.673  24.518  -3.533  0.00  0.00     0.261 C 
HETATM   38  O   UNK N   1      30.626  23.561  -2.547  0.00  0.00    -0.353 OA
HETATM   39  C   UNK N   1      30.010  22.438  -3.179  0.00  0.00     0.180 C 
HETATM   40  C   UNK N   1      29.156  22.866  -4.446  0.00  0.00     0.198 C 
HETATM   41  O   UNK N   1      29.773  22.622  -5.713  0.00  0.00    -0.279 OA
HETATM   42  P   UNK N   1      28.629  22.820  -7.089  0.00  0.00     0.409 P 
HETATM   43  O   UNK N   1      27.741  21.373  -7.461  0.00  0.00    -0.624 OA
HETATM   44  O   UNK N   1      27.530  23.861  -6.767  0.00  0.00    -0.624 OA
HETATM   45  O   UNK N   1      29.380  23.440  -8.587  0.00  0.00    -0.283 OA
HETATM   46  C   UNK N   1      29.242  24.316  -4.104  0.00  0.00     0.199 C 
HETATM   47  C   UNK N   1      31.880  24.648  -5.662  0.00  0.00     0.067 A 
HETATM   48  C   UNK N   1      30.891  25.472  -6.257  0.00  0.00     0.039 A 
HETATM   49  C   UNK N   1      30.961  25.845  -7.583  0.00  0.00    -0.054 A 
HETATM   50  C   UNK N   1      29.871  26.692  -8.182  0.00  0.00     0.049 C 
HETATM   51  C   UNK N   1      32.043  25.386  -8.319  0.00  0.00    -0.054 A 
HETATM   52  C   UNK N   1      32.181  25.772  -9.764  0.00  0.00     0.049 C 
HETATM   53  C   UNK N   1      33.005  24.528  -7.679  0.00  0.00     0.041 A 
HETATM   54  C   UNK N   1      32.980  24.147  -6.295  0.00  0.00     0.085 A 
HETATM   55  C   UNK N   1      39.555  22.247  -3.623  0.00  0.00     0.018 C 
HETATM   56  C   UNK N   1      40.264  22.716  -4.924  0.00  0.00     0.023 C 
HETATM   57  C   UNK N   1      38.827  23.455  -3.062  0.00  0.00     0.053 C 
HETATM   58  C   UNK N   1      37.174  25.620  -7.207  0.00  0.00     0.006 C 
HETATM   59  C   UNK N   1      37.381  27.045  -6.651  0.00  0.00     0.022 C 
HETATM   60  C   UNK N   1      38.467  25.266  -7.910  0.00  0.00     0.022 C 
HETATM   61  C   UNK N   1      35.966  25.313  -8.140  0.00  0.00     0.052 C 
HETATM   62  H   UNK N   1      29.142  20.435  -7.830  0.00  0.00     0.162 HD
ENDROOT
BRANCH  30  63
HETATM   63  C   UNK N   1      37.592  18.194  -9.143  0.00  0.00     0.115 C 
BRANCH  63  64
HETATM   64  C   UNK N   1      38.104  16.780  -9.301  0.00  0.00     0.216 C 
HETATM   65  N   UNK N   1      39.416  16.537  -9.467  0.00  0.00    -0.370 N 
HETATM   66  H   UNK N   1      39.766  15.628  -9.616  0.00  0.00     0.159 HD
HETATM   67  H   UNK N   1      40.048  17.291  -9.438  0.00  0.00     0.159 HD
HETATM   68  O   UNK N   1      37.317  15.847  -9.297  0.00  0.00    -0.274 OA
ENDBRANCH  63  64
ENDBRANCH  30  63
BRANCH  32  69
HETATM   69  C   UNK N   1      40.106  18.891  -7.348  0.00  0.00     0.021 C 
BRANCH  69  70
HETATM   70  C   UNK N   1      41.065  19.892  -7.953  0.00  0.00     0.103 C 
BRANCH  70  71
HETATM   71  C   UNK N   1      40.707  20.160  -9.378  0.00  0.00     0.215 C 
HETATM   72  N   UNK N   1      40.322  21.395  -9.752  0.00  0.00    -0.370 N 
HETATM   73  H   UNK N   1      40.545  22.175  -9.194  0.00  0.00     0.159 HD
HETATM   74  H   UNK N   1      39.816  21.519 -10.588  0.00  0.00     0.159 HD
HETATM   75  O   UNK N   1      40.732  19.257 -10.198  0.00  0.00    -0.274 OA
ENDBRANCH  70  71
ENDBRANCH  69  70
ENDBRANCH  32  69
BRANCH  33  76
HETATM   76  C   UNK N   1      35.072  20.924  -4.217  0.00  0.00     0.180 C 
HETATM   77  N   UNK N   1      34.525  20.215  -3.484  0.00  0.00    -0.180 NA
ENDBRANCH  33  76
BRANCH  11  78
HETATM   78  C   UNK N   1      34.710  17.880  -8.781  0.00  0.00     0.110 C 
BRANCH  78  79
HETATM   79  C   UNK N   1      33.996  16.611  -8.432  0.00  0.00     0.215 C 
HETATM   80  N   UNK N   1      34.616  15.668  -7.695  0.00  0.00    -0.370 N 
HETATM   81  H   UNK N   1      34.412  14.778  -7.324  0.00  0.00     0.159 HD
HETATM   82  H   UNK N   1      35.530  15.947  -7.461  0.00  0.00     0.159 HD
HETATM   83  O   UNK N   1      32.930  16.353  -8.959  0.00  0.00    -0.274 OA
ENDBRANCH  78  79
ENDBRANCH  11  78
BRANCH  55  84
HETATM   84  C   UNK N   1      40.602  21.460  -2.736  0.00  0.00     0.118 C 
BRANCH  84  85
HETATM   85  C   UNK N   1      40.161  21.139  -1.279  0.00  0.00     0.216 C 
HETATM   86  N   UNK N   1      40.572  21.925  -0.264  0.00  0.00    -0.370 N 
HETATM   87  H   UNK N   1      40.530  21.935   0.719  0.00  0.00     0.159 HD
HETATM   88  H   UNK N   1      41.051  22.715  -0.603  0.00  0.00     0.159 HD
HETATM   89  O   UNK N   1      39.438  20.185  -1.024  0.00  0.00    -0.274 OA
ENDBRANCH  84  85
ENDBRANCH  55  84
BRANCH  61  90
HETATM   90  C   UNK N   1      34.928  26.459  -7.760  0.00  0.00     0.021 C 
BRANCH  90  91
HETATM   91  C   UNK N   1      34.773  27.781  -8.607  0.00  0.00     0.103 C 
BRANCH  91  92
HETATM   92  C   UNK N   1      33.958  29.008  -8.289  0.00  0.00     0.215 C 
HETATM   93  N   UNK N   1      34.574  30.119  -7.832  0.00  0.00    -0.370 N 
HETATM   94  H   UNK N   1      35.276  30.648  -7.389  0.00  0.00     0.159 HD
HETATM   95  H   UNK N   1      33.940  30.821  -8.104  0.00  0.00     0.159 HD
HETATM   96  O   UNK N   1      32.740  28.954  -8.291  0.00  0.00    -0.274 OA
ENDBRANCH  91  92
ENDBRANCH  90  91
ENDBRANCH  61  90
BRANCH  57  97
HETATM   97  C   UNK N   1      39.641  24.596  -2.484  0.00  0.00     0.021 C 
BRANCH  97  98
HETATM   98  C   UNK N   1      39.115  25.087  -1.156  0.00  0.00     0.103 C 
BRANCH  98  99
HETATM   99  C   UNK N   1      40.215  25.746  -0.421  0.00  0.00     0.215 C 
HETATM  100  N   UNK N   1      40.563  25.298   0.800  0.00  0.00    -0.370 N 
HETATM  101  H   UNK N   1      41.331  25.697   1.271  0.00  0.00     0.159 HD
HETATM  102  H   UNK N   1      40.051  24.573   1.222  0.00  0.00     0.159 HD
HETATM  103  O   UNK N   1      40.805  26.689  -0.919  0.00  0.00    -0.274 OA
ENDBRANCH  98  99
ENDBRANCH  97  98
ENDBRANCH  57  97
BRANCH  46 104
HETATM  104  O   UNK N   1      28.672  25.234  -4.985  0.00  0.00    -0.388 OA
HETATM  105  H   UNK N   1      28.814  25.566  -5.886  0.00  0.00     0.210 HD
ENDBRANCH  46 104
BRANCH  39 106
HETATM  106  C   UNK N   1      31.054  21.343  -3.315  0.00  0.00     0.198 C 
BRANCH 106 107
HETATM  107  O   UNK N   1      31.894  21.378  -2.188  0.00  0.00    -0.398 OA
HETATM  108  H   UNK N   1      32.641  21.975  -2.030  0.00  0.00     0.209 HD
ENDBRANCH 106 107
ENDBRANCH  39 106
TORSDOF 19
ENDMDL
MODEL 8
REMARK VINA RESULT:      -5.1      7.700     15.114
REMARK  19 active torsions:
REMARK  status: ('A' for Active; 'I' for Inactive)
REMARK    1  A    between atoms: C_11  and  C_12 
REMARK    2  A    between atoms: C_12  and  C_13 
REMARK       I    between atoms: C_13  and  N_14 
REMARK    3  A    between atoms: C_34  and  C_36 
REMARK    4  A    between atoms: C_36  and  C_37 
REMARK       I    between atoms: C_37  and  N_38 
REMARK    5  A    between atoms: C_40  and  C_41 
REMARK    6  A    between atoms: C_41  and  C_42 
REMARK    7  A    between atoms: C_42  and  C_43 
REMARK       I    between atoms: C_43  and  N_44 
REMARK    8  A    between atoms: Co_46  and  C_47 
REMARK    9  A    between atoms: C_54  and  C_55 
REMARK   10  A    between atoms: C_55  and  O_56 
REMARK   11  A    between atoms: C_63  and  O_64 
REMARK   12  A    between atoms: C_73  and  C_75 
REMARK   13  A    between atoms: C_75  and  C_76 
REMARK       I    between atoms: C_76  and  N_77 
REMARK   14  A    between atoms: C_79  and  C_80 
REMARK   15  A    between atoms: C_80  and  C_81 
REMARK   16  A    between atoms: C_81  and  C_82 
REMARK       I    between atoms: C_82  and  N_83 
REMARK   17  A    between atoms: C_88  and  C_89 
REMARK   18  A    between atoms: C_89  and  C_90 
REMARK   19  A    between atoms: C_90  and  C_91 
REMARK       I    between atoms: C_91  and  N_92 
ROOT
HETATM    1  C   UNK N   1      40.379   7.272   6.152  0.00  0.00     0.148 C 
HETATM    2  C   UNK N   1      40.242   5.790   5.853  0.00  0.00     0.042 C 
HETATM    3  C   UNK N   1      40.163   8.073   4.940  0.00  0.00     0.154 C 
HETATM    4  N   UNK N   1      40.921   7.628   3.797  0.00  0.00    -0.359 N 
HETATM    5  C   UNK N   1      40.396   6.946   2.745  0.00  0.00     0.217 C 
HETATM    6  O   UNK N   1      41.124   6.699   1.800  0.00  0.00    -0.274 OA
HETATM    7  C   UNK N   1      38.944   6.484   2.673  0.00  0.00     0.104 C 
HETATM    8  C   UNK N   1      37.966   6.984   3.751  0.00  0.00     0.025 C 
HETATM    9  C   UNK N   1      37.734   8.491   3.669  0.00  0.00     0.007 C 
HETATM   10  C   UNK N   1      38.909   9.341   3.055  0.00  0.00     0.022 C 
HETATM   11  C   UNK N   1      36.792   8.881   2.577  0.00  0.00     0.036 C 
HETATM   12  C   UNK N   1      36.278  10.197   3.041  0.00  0.00     0.144 C 
HETATM   13  N   UNK N   1      36.890  10.459   4.346  0.00  0.00    -0.284 N 
HETATM   14  C   UNK N   1      37.104   9.266   4.885  0.00  0.00     0.046 C 
HETATM   15  C   UNK N   1      36.541   9.002   6.153  0.00  0.00    -0.012 C 
HETATM   16  C   UNK N   1      36.619   7.603   6.662  0.00  0.00     0.052 C 
HETATM   17  C   UNK N   1      35.789  10.103   7.078  0.00  0.00     0.048 C 
HETATM   18  N   UNK N   1      35.506  11.264   6.624  0.00  0.00    -0.256 N 
HETATM   19  C   UNK N   1      35.002  12.129   7.658  0.00  0.00     0.045 C 
HETATM   20  C   UNK N   1      34.830  13.482   7.615  0.00  0.00     0.055 C 
HETATM   21  C   UNK N   1      34.904  14.251   6.396  0.00  0.00     0.042 C 
HETATM   22  N   UNK N   1      35.167  13.628   5.342  0.00  0.00    -0.256 N 
HETATM   23  C   UNK N   1      34.151  14.065   4.357  0.00  0.00     0.052 C 
HETATM   24  C   UNK N   1      33.635  13.329   3.359  0.00  0.00    -0.012 C 
HETATM   25  C   UNK N   1      32.641  13.812   2.372  0.00  0.00     0.052 C 
HETATM   26  C   UNK N   1      33.765  11.956   3.392  0.00  0.00     0.043 C 
HETATM   27  N   UNK N   1      34.706  11.389   3.963  0.00  0.00    -0.280 N 
HETATM   28  C   UNK N   1      34.818  10.095   3.364  0.00  0.00     0.081 C 
HETATM   29  C   UNK N   1      34.364   9.005   4.362  0.00  0.00     0.043 C 
HETATM   30  C   UNK N   1      33.856  10.046   2.100  0.00  0.00     0.002 C 
HETATM   31  C   UNK N   1      34.410  10.764   0.856  0.00  0.00     0.019 C 
HETATM   32  C   UNK N   1      32.854  10.952   2.702  0.00  0.00     0.049 C 
HETATM   33 Co   UNK N   1      36.270  11.948   5.097  0.00  0.00     0.000 Co
HETATM   34  N   UNK N   1      38.188  11.874   6.329  0.00  0.00    -0.242 N 
HETATM   35  C   UNK N   1      39.279  12.736   6.241  0.00  0.00     0.213 A 
HETATM   36  N   UNK N   1      40.375  12.339   7.029  0.00  0.00    -0.309 N 
HETATM   37  C   UNK N   1      41.761  12.906   7.200  0.00  0.00     0.261 C 
HETATM   38  O   UNK N   1      42.037  13.698   6.111  0.00  0.00    -0.353 OA
HETATM   39  C   UNK N   1      42.410  12.771   5.090  0.00  0.00     0.180 C 
HETATM   40  C   UNK N   1      42.899  11.389   5.695  0.00  0.00     0.198 C 
HETATM   41  O   UNK N   1      41.948  10.322   5.637  0.00  0.00    -0.279 OA
HETATM   42  P   UNK N   1      42.678   8.723   6.030  0.00  0.00     0.409 P 
HETATM   43  O   UNK N   1      43.369   7.922   4.650  0.00  0.00    -0.624 OA
HETATM   44  O   UNK N   1      43.864   8.868   7.013  0.00  0.00    -0.624 OA
HETATM   45  O   UNK N   1      41.570   7.593   6.860  0.00  0.00    -0.283 OA
HETATM   46  C   UNK N   1      42.969  11.938   7.081  0.00  0.00     0.199 C 
HETATM   47  C   UNK N   1      40.021  11.234   7.636  0.00  0.00     0.067 A 
HETATM   48  C   UNK N   1      40.841  10.508   8.536  0.00  0.00     0.039 A 
HETATM   49  C   UNK N   1      40.425   9.318   9.097  0.00  0.00    -0.054 A 
HETATM   50  C   UNK N   1      41.342   8.563  10.020  0.00  0.00     0.049 C 
HETATM   51  C   UNK N   1      39.164   8.856   8.750  0.00  0.00    -0.054 A 
HETATM   52  C   UNK N   1      38.651   7.574   9.340  0.00  0.00     0.049 C 
HETATM   53  C   UNK N   1      38.381   9.613   7.809  0.00  0.00     0.041 A 
HETATM   54  C   UNK N   1      38.770  10.870   7.233  0.00  0.00     0.085 A 
HETATM   55  C   UNK N   1      33.110  14.974   4.974  0.00  0.00     0.018 C 
HETATM   56  C   UNK N   1      32.091  13.998   5.627  0.00  0.00     0.023 C 
HETATM   57  C   UNK N   1      34.013  15.472   6.088  0.00  0.00     0.053 C 
HETATM   58  C   UNK N   1      34.550  11.371   8.826  0.00  0.00     0.006 C 
HETATM   59  C   UNK N   1      34.563  12.153  10.156  0.00  0.00     0.022 C 
HETATM   60  C   UNK N   1      33.101  11.012   8.578  0.00  0.00     0.022 C 
HETATM   61  C   UNK N   1      35.442  10.106   8.655  0.00  0.00     0.052 C 
HETATM   62  H   UNK N   1      41.883   7.832   3.777  0.00  0.00     0.162 HD
ENDROOT
BRANCH  30  63
HETATM   63  C   UNK N   1      33.314   8.621   1.756  0.00  0.00     0.115 C 
BRANCH  63  64
HETATM   64  C   UNK N   1      32.760   8.407   0.366  0.00  0.00     0.216 C 
HETATM   65  N   UNK N   1      33.428   7.668  -0.536  0.00  0.00    -0.370 N 
HETATM   66  H   UNK N   1      33.107   7.552  -1.461  0.00  0.00     0.159 HD
HETATM   67  H   UNK N   1      34.265   7.227  -0.265  0.00  0.00     0.159 HD
HETATM   68  O   UNK N   1      31.701   8.925   0.050  0.00  0.00    -0.274 OA
ENDBRANCH  63  64
ENDBRANCH  30  63
BRANCH  32  69
HETATM   69  C   UNK N   1      31.420  11.122   2.190  0.00  0.00     0.021 C 
BRANCH  69  70
HETATM   70  C   UNK N   1      30.393  10.399   3.032  0.00  0.00     0.103 C 
BRANCH  70  71
HETATM   71  C   UNK N   1      29.935  11.268   4.156  0.00  0.00     0.215 C 
HETATM   72  N   UNK N   1      29.377  12.465   3.895  0.00  0.00    -0.370 N 
HETATM   73  H   UNK N   1      29.003  12.655   3.004  0.00  0.00     0.159 HD
HETATM   74  H   UNK N   1      29.343  13.154   4.598  0.00  0.00     0.159 HD
HETATM   75  O   UNK N   1      30.094  10.911   5.312  0.00  0.00    -0.274 OA
ENDBRANCH  70  71
ENDBRANCH  69  70
ENDBRANCH  32  69
BRANCH  33  76
HETATM   76  C   UNK N   1      37.200  12.981   3.747  0.00  0.00     0.180 C 
HETATM   77  N   UNK N   1      37.878  13.669   3.110  0.00  0.00    -0.180 NA
ENDBRANCH  33  76
BRANCH  11  78
HETATM   78  C   UNK N   1      36.169   8.122   1.391  0.00  0.00     0.110 C 
BRANCH  78  79
HETATM   79  C   UNK N   1      36.852   8.158   0.059  0.00  0.00     0.215 C 
HETATM   80  N   UNK N   1      37.673   9.181  -0.252  0.00  0.00    -0.370 N 
HETATM   81  H   UNK N   1      38.236   9.463  -1.010  0.00  0.00     0.159 HD
HETATM   82  H   UNK N   1      37.724   9.830   0.487  0.00  0.00     0.159 HD
HETATM   83  O   UNK N   1      36.533   7.364  -0.806  0.00  0.00    -0.274 OA
ENDBRANCH  78  79
ENDBRANCH  11  78
BRANCH  55  84
HETATM   84  C   UNK N   1      32.316  15.999   4.068  0.00  0.00     0.118 C 
BRANCH  84  85
HETATM   85  C   UNK N   1      30.824  16.231   4.444  0.00  0.00     0.216 C 
HETATM   86  N   UNK N   1      30.498  17.164   5.360  0.00  0.00    -0.370 N 
HETATM   87  H   UNK N   1      29.697  17.472   5.840  0.00  0.00     0.159 HD
HETATM   88  H   UNK N   1      31.289  17.688   5.625  0.00  0.00     0.159 HD
HETATM   89  O   UNK N   1      29.924  15.586   3.921  0.00  0.00    -0.274 OA
ENDBRANCH  84  85
ENDBRANCH  55  84
BRANCH  61  90
HETATM   90  C   UNK N   1      36.590  10.337   9.733  0.00  0.00     0.021 C 
BRANCH  90  91
HETATM   91  C   UNK N   1      36.537   9.710  11.180  0.00  0.00     0.103 C 
BRANCH  91  92
HETATM   92  C   UNK N   1      35.460   8.850  11.791  0.00  0.00     0.215 C 
HETATM   93  N   UNK N   1      35.396   7.539  11.478  0.00  0.00    -0.370 N 
HETATM   94  H   UNK N   1      35.531   6.729  10.934  0.00  0.00     0.159 HD
HETATM   95  H   UNK N   1      34.937   7.171  12.268  0.00  0.00     0.159 HD
HETATM   96  O   UNK N   1      34.559   9.360  12.435  0.00  0.00    -0.274 OA
ENDBRANCH  91  92
ENDBRANCH  90  91
ENDBRANCH  61  90
BRANCH  57  97
HETATM   97  C   UNK N   1      33.436  16.404   7.135  0.00  0.00     0.021 C 
BRANCH  97  98
HETATM   98  C   UNK N   1      33.956  17.818   7.021  0.00  0.00     0.103 C 
BRANCH  98  99
HETATM   99  C   UNK N   1      34.531  18.221   8.321  0.00  0.00     0.215 C 
HETATM  100  N   UNK N   1      34.188  17.552   9.438  0.00  0.00    -0.370 N 
HETATM  101  H   UNK N   1      34.609  17.779  10.299  0.00  0.00     0.159 HD
HETATM  102  H   UNK N   1      33.516  16.835   9.394  0.00  0.00     0.159 HD
HETATM  103  O   UNK N   1      35.312  19.155   8.382  0.00  0.00    -0.274 OA
ENDBRANCH  98  99
ENDBRANCH  97  98
ENDBRANCH  57  97
BRANCH  46 104
HETATM  104  O   UNK N   1      43.313  11.068   8.116  0.00  0.00    -0.388 OA
HETATM  105  H   UNK N   1      42.992  10.242   8.512  0.00  0.00     0.210 HD
ENDBRANCH  46 104
BRANCH  39 106
HETATM  106  C   UNK N   1      41.324  12.780   4.027  0.00  0.00     0.198 C 
BRANCH 106 107
HETATM  107  O   UNK N   1      41.554  11.715   3.138  0.00  0.00    -0.398 OA
HETATM  108  H   UNK N   1      41.191  11.606   2.246  0.00  0.00     0.209 HD
ENDBRANCH 106 107
ENDBRANCH  39 106
TORSDOF 19
ENDMDL
MODEL 9
REMARK VINA RESULT:      -5.1      9.194     14.289
REMARK  19 active torsions:
REMARK  status: ('A' for Active; 'I' for Inactive)
REMARK    1  A    between atoms: C_11  and  C_12 
REMARK    2  A    between atoms: C_12  and  C_13 
REMARK       I    between atoms: C_13  and  N_14 
REMARK    3  A    between atoms: C_34  and  C_36 
REMARK    4  A    between atoms: C_36  and  C_37 
REMARK       I    between atoms: C_37  and  N_38 
REMARK    5  A    between atoms: C_40  and  C_41 
REMARK    6  A    between atoms: C_41  and  C_42 
REMARK    7  A    between atoms: C_42  and  C_43 
REMARK       I    between atoms: C_43  and  N_44 
REMARK    8  A    between atoms: Co_46  and  C_47 
REMARK    9  A    between atoms: C_54  and  C_55 
REMARK   10  A    between atoms: C_55  and  O_56 
REMARK   11  A    between atoms: C_63  and  O_64 
REMARK   12  A    between atoms: C_73  and  C_75 
REMARK   13  A    between atoms: C_75  and  C_76 
REMARK       I    between atoms: C_76  and  N_77 
REMARK   14  A    between atoms: C_79  and  C_80 
REMARK   15  A    between atoms: C_80  and  C_81 
REMARK   16  A    between atoms: C_81  and  C_82 
REMARK       I    between atoms: C_82  and  N_83 
REMARK   17  A    between atoms: C_88  and  C_89 
REMARK   18  A    between atoms: C_89  and  C_90 
REMARK   19  A    between atoms: C_90  and  C_91 
REMARK       I    between atoms: C_91  and  N_92 
ROOT
HETATM    1  C   UNK N   1      33.946   6.980   1.838  0.00  0.00     0.148 C 
HETATM    2  C   UNK N   1      32.889   7.357   0.816  0.00  0.00     0.042 C 
HETATM    3  C   UNK N   1      34.949   8.044   1.972  0.00  0.00     0.154 C 
HETATM    4  N   UNK N   1      35.482   8.512   0.716  0.00  0.00    -0.359 N 
HETATM    5  C   UNK N   1      35.147   9.692   0.131  0.00  0.00     0.217 C 
HETATM    6  O   UNK N   1      35.729  10.013  -0.890  0.00  0.00    -0.274 OA
HETATM    7  C   UNK N   1      34.093  10.645   0.687  0.00  0.00     0.104 C 
HETATM    8  C   UNK N   1      33.517  10.360   2.085  0.00  0.00     0.025 C 
HETATM    9  C   UNK N   1      34.567  10.508   3.185  0.00  0.00     0.007 C 
HETATM   10  C   UNK N   1      36.061  10.253   2.756  0.00  0.00     0.022 C 
HETATM   11  C   UNK N   1      34.843  11.931   3.545  0.00  0.00     0.036 C 
HETATM   12  C   UNK N   1      35.375  11.823   4.930  0.00  0.00     0.144 C 
HETATM   13  N   UNK N   1      35.331  10.405   5.294  0.00  0.00    -0.284 N 
HETATM   14  C   UNK N   1      34.317   9.892   4.611  0.00  0.00     0.046 C 
HETATM   15  C   UNK N   1      33.297   9.234   5.334  0.00  0.00    -0.012 C 
HETATM   16  C   UNK N   1      32.071   8.835   4.586  0.00  0.00     0.052 C 
HETATM   17  C   UNK N   1      33.352   8.911   6.923  0.00  0.00     0.048 C 
HETATM   18  N   UNK N   1      34.273   9.399   7.665  0.00  0.00    -0.256 N 
HETATM   19  C   UNK N   1      34.231   8.848   8.994  0.00  0.00     0.045 C 
HETATM   20  C   UNK N   1      35.178   8.934   9.972  0.00  0.00     0.055 C 
HETATM   21  C   UNK N   1      36.308   9.829   9.902  0.00  0.00     0.042 C 
HETATM   22  N   UNK N   1      36.418  10.533   8.872  0.00  0.00    -0.256 N 
HETATM   23  C   UNK N   1      36.647  11.915   9.356  0.00  0.00     0.052 C 
HETATM   24  C   UNK N   1      36.253  13.048   8.754  0.00  0.00    -0.012 C 
HETATM   25  C   UNK N   1      36.528  14.416   9.253  0.00  0.00     0.052 C 
HETATM   26  C   UNK N   1      35.273  12.996   7.783  0.00  0.00     0.043 C 
HETATM   27  N   UNK N   1      35.084  11.995   7.081  0.00  0.00    -0.280 N 
HETATM   28  C   UNK N   1      34.421  12.452   5.899  0.00  0.00     0.081 C 
HETATM   29  C   UNK N   1      32.950  11.975   5.893  0.00  0.00     0.043 C 
HETATM   30  C   UNK N   1      34.430  14.042   5.907  0.00  0.00     0.002 C 
HETATM   31  C   UNK N   1      35.775  14.669   5.499  0.00  0.00     0.019 C 
HETATM   32  C   UNK N   1      34.348  14.134   7.381  0.00  0.00     0.049 C 
HETATM   33 Co   UNK N   1      35.819  10.125   6.982  0.00  0.00     0.000 Co
HETATM   34  N   UNK N   1      36.216   7.987   6.292  0.00  0.00    -0.242 N 
HETATM   35  C   UNK N   1      37.455   7.366   6.152  0.00  0.00     0.213 A 
HETATM   36  N   UNK N   1      37.381   6.091   5.560  0.00  0.00    -0.309 N 
HETATM   37  C   UNK N   1      38.437   5.095   5.158  0.00  0.00     0.261 C 
HETATM   38  O   UNK N   1      39.633   5.763   5.036  0.00  0.00    -0.353 OA
HETATM   39  C   UNK N   1      39.556   6.386   3.752  0.00  0.00     0.180 C 
HETATM   40  C   UNK N   1      38.510   5.661   2.805  0.00  0.00     0.198 C 
HETATM   41  O   UNK N   1      37.251   6.324   2.660  0.00  0.00    -0.279 OA
HETATM   42  P   UNK N   1      36.254   5.631   1.330  0.00  0.00     0.409 P 
HETATM   43  O   UNK N   1      36.585   6.341  -0.222  0.00  0.00    -0.624 OA
HETATM   44  O   UNK N   1      36.550   4.126   1.125  0.00  0.00    -0.624 OA
HETATM   45  O   UNK N   1      34.492   5.684   1.627  0.00  0.00    -0.283 OA
HETATM   46  C   UNK N   1      38.374   4.496   3.726  0.00  0.00     0.199 C 
HETATM   47  C   UNK N   1      36.115   5.864   5.314  0.00  0.00     0.067 A 
HETATM   48  C   UNK N   1      35.606   4.680   4.724  0.00  0.00     0.039 A 
HETATM   49  C   UNK N   1      34.264   4.531   4.439  0.00  0.00    -0.054 A 
HETATM   50  C   UNK N   1      33.772   3.271   3.780  0.00  0.00     0.049 C 
HETATM   51  C   UNK N   1      33.424   5.587   4.757  0.00  0.00    -0.054 A 
HETATM   52  C   UNK N   1      31.950   5.477   4.484  0.00  0.00     0.049 C 
HETATM   53  C   UNK N   1      33.991   6.780   5.328  0.00  0.00     0.041 A 
HETATM   54  C   UNK N   1      35.376   6.955   5.666  0.00  0.00     0.085 A 
HETATM   55  C   UNK N   1      36.541  12.018  10.862  0.00  0.00     0.018 C 
HETATM   56  C   UNK N   1      35.015  12.153  11.129  0.00  0.00     0.023 C 
HETATM   57  C   UNK N   1      36.903  10.567  11.120  0.00  0.00     0.053 C 
HETATM   58  C   UNK N   1      32.939   8.221   9.279  0.00  0.00     0.006 C 
HETATM   59  C   UNK N   1      32.972   7.125  10.366  0.00  0.00     0.022 C 
HETATM   60  C   UNK N   1      32.039   9.308   9.825  0.00  0.00     0.022 C 
HETATM   61  C   UNK N   1      32.513   7.866   7.824  0.00  0.00     0.052 C 
HETATM   62  H   UNK N   1      36.132   7.938   0.251  0.00  0.00     0.162 HD
ENDROOT
BRANCH  30  63
HETATM   63  C   UNK N   1      33.229  14.698   5.152  0.00  0.00     0.115 C 
BRANCH  63  64
HETATM   64  C   UNK N   1      33.426  16.099   4.620  0.00  0.00     0.216 C 
HETATM   65  N   UNK N   1      33.574  17.140   5.457  0.00  0.00    -0.370 N 
HETATM   66  H   UNK N   1      33.658  18.067   5.133  0.00  0.00     0.159 HD
HETATM   67  H   UNK N   1      33.598  16.972   6.427  0.00  0.00     0.159 HD
HETATM   68  O   UNK N   1      33.434  16.294   3.415  0.00  0.00    -0.274 OA
ENDBRANCH  63  64
ENDBRANCH  30  63
BRANCH  32  69
HETATM   69  C   UNK N   1      33.964  15.402   8.151  0.00  0.00     0.021 C 
BRANCH  69  70
HETATM   70  C   UNK N   1      32.737  15.229   9.017  0.00  0.00     0.103 C 
BRANCH  70  71
HETATM   71  C   UNK N   1      31.711  16.261   8.680  0.00  0.00     0.215 C 
HETATM   72  N   UNK N   1      30.825  16.656   9.614  0.00  0.00    -0.370 N 
HETATM   73  H   UNK N   1      31.012  16.509  10.569  0.00  0.00     0.159 HD
HETATM   74  H   UNK N   1      29.987  17.096   9.340  0.00  0.00     0.159 HD
HETATM   75  O   UNK N   1      31.652  16.722   7.552  0.00  0.00    -0.274 OA
ENDBRANCH  70  71
ENDBRANCH  69  70
ENDBRANCH  32  69
BRANCH  33  76
HETATM   76  C   UNK N   1      37.637  10.597   6.505  0.00  0.00     0.180 C 
HETATM   77  N   UNK N   1      38.671  11.076   6.306  0.00  0.00    -0.180 NA
ENDBRANCH  33  76
BRANCH  11  78
HETATM   78  C   UNK N   1      34.457  13.281   2.912  0.00  0.00     0.110 C 
BRANCH  78  79
HETATM   79  C   UNK N   1      35.347  13.881   1.868  0.00  0.00     0.215 C 
HETATM   80  N   UNK N   1      34.906  14.908   1.114  0.00  0.00    -0.370 N 
HETATM   81  H   UNK N   1      35.246  15.482   0.388  0.00  0.00     0.159 HD
HETATM   82  H   UNK N   1      33.984  15.154   1.356  0.00  0.00     0.159 HD
HETATM   83  O   UNK N   1      36.393  13.333   1.578  0.00  0.00    -0.274 OA
ENDBRANCH  78  79
ENDBRANCH  11  78
BRANCH  55  84
HETATM   84  C   UNK N   1      37.290  13.180  11.630  0.00  0.00     0.118 C 
BRANCH  84  85
HETATM   85  C   UNK N   1      36.576  13.733  12.897  0.00  0.00     0.216 C 
HETATM   86  N   UNK N   1      36.883  13.238  14.113  0.00  0.00    -0.370 N 
HETATM   87  H   UNK N   1      36.565  13.321  15.040  0.00  0.00     0.159 HD
HETATM   88  H   UNK N   1      37.643  12.615  14.056  0.00  0.00     0.159 HD
HETATM   89  O   UNK N   1      35.738  14.622  12.823  0.00  0.00    -0.274 OA
ENDBRANCH  84  85
ENDBRANCH  55  84
BRANCH  61  90
HETATM   90  C   UNK N   1      32.815   6.305   7.741  0.00  0.00     0.021 C 
BRANCH  90  91
HETATM   91  C   UNK N   1      31.693   5.211   7.928  0.00  0.00     0.103 C 
BRANCH  91  92
HETATM   92  C   UNK N   1      30.309   5.375   8.500  0.00  0.00     0.215 C 
HETATM   93  N   UNK N   1      29.422   6.182   7.880  0.00  0.00    -0.370 N 
HETATM   94  H   UNK N   1      29.116   6.924   7.310  0.00  0.00     0.159 HD
HETATM   95  H   UNK N   1      28.566   5.797   8.178  0.00  0.00     0.159 HD
HETATM   96  O   UNK N   1      30.039   4.915   9.597  0.00  0.00    -0.274 OA
ENDBRANCH  91  92
ENDBRANCH  90  91
ENDBRANCH  61  90
BRANCH  57  97
HETATM   97  C   UNK N   1      36.869  10.047  12.544  0.00  0.00     0.021 C 
BRANCH  97  98
HETATM   98  C   UNK N   1      38.084   9.224  12.904  0.00  0.00     0.103 C 
BRANCH  98  99
HETATM   99  C   UNK N   1      38.559   9.635  14.241  0.00  0.00     0.215 C 
HETATM  100  N   UNK N   1      39.261   8.768  14.995  0.00  0.00    -0.370 N 
HETATM  101  H   UNK N   1      39.628   9.053  15.863  0.00  0.00     0.159 HD
HETATM  102  H   UNK N   1      39.408   7.848  14.678  0.00  0.00     0.159 HD
HETATM  103  O   UNK N   1      38.317  10.754  14.660  0.00  0.00    -0.274 OA
ENDBRANCH  98  99
ENDBRANCH  97  98
ENDBRANCH  57  97
BRANCH  46 104
HETATM  104  O   UNK N   1      37.457   3.498   3.393  0.00  0.00    -0.388 OA
HETATM  105  H   UNK N   1      36.803   2.932   3.831  0.00  0.00     0.210 HD
ENDBRANCH  46 104
BRANCH  39 106
HETATM  106  C   UNK N   1      39.460   7.888   3.963  0.00  0.00     0.198 C 
BRANCH 106 107
HETATM  107  O   UNK N   1      39.129   8.494   2.738  0.00  0.00    -0.398 OA
HETATM  108  H   UNK N   1      38.508   9.224   2.593  0.00  0.00     0.209 HD
ENDBRANCH 106 107
ENDBRANCH  39 106
TORSDOF 19
ENDMDL
