MODEL 1
REMARK VINA RESULT:      -6.4      0.000      0.000
REMARK  13 active torsions:
REMARK  status: ('A' for Active; 'I' for Inactive)
REMARK    1  A    between atoms: O_2  and  C_24 
REMARK    2  A    between atoms: C_3  and  C_4 
REMARK    3  A    between atoms: C_4  and  C_6 
REMARK    4  A    between atoms: C_6  and  C_8 
REMARK    5  A    between atoms: C_7  and  C_8 
REMARK    6  A    between atoms: C_7  and  C_10 
REMARK    7  A    between atoms: C_10  and  C_13 
REMARK    8  A    between atoms: C_13  and  C_15 
REMARK    9  A    between atoms: C_15  and  C_16 
REMARK   10  A    between atoms: C_16  and  C_18 
REMARK   11  A    between atoms: C_18  and  C_21 
REMARK   12  A    between atoms: C_21  and  C_25 
REMARK   13  A    between atoms: C_25  and  C_26 
ROOT
HETATM    1  O   UNK N   1      27.990  23.260  -6.314  0.00  0.00    -0.339 OA
HETATM    2  C   UNK N   1      26.854  23.981  -5.942  0.00  0.00     0.064 C 
HETATM    3  C   UNK N   1      26.635  23.951  -4.415  0.00  0.00     0.043 C 
HETATM    4  C   UNK N   1      27.943  24.226  -3.692  0.00  0.00     0.045 C 
HETATM    5  C   UNK N   1      25.651  23.321  -6.589  0.00  0.00     0.046 C 
HETATM    6  C   UNK N   1      28.919  23.177  -4.106  0.00  0.00    -0.015 A 
HETATM    7  C   UNK N   1      28.905  22.745  -5.442  0.00  0.00     0.083 A 
HETATM    8  C   UNK N   1      29.828  22.623  -3.189  0.00  0.00    -0.019 A 
HETATM    9  C   UNK N   1      29.813  21.768  -5.872  0.00  0.00    -0.019 A 
HETATM   10  C   UNK N   1      30.722  21.204  -4.954  0.00  0.00    -0.020 A 
HETATM   11  C   UNK N   1      30.724  21.631  -3.615  0.00  0.00     0.078 A 
HETATM   12  C   UNK N   1      29.841  23.078  -1.764  0.00  0.00     0.052 C 
HETATM   13  C   UNK N   1      29.791  21.315  -7.297  0.00  0.00     0.052 C 
HETATM   14  C   UNK N   1      31.680  20.141  -5.391  0.00  0.00     0.052 C 
ENDROOT
BRANCH   2  15
HETATM   15  C   UNK N   1      26.989  25.415  -6.476  0.00  0.00     0.038 C 
BRANCH  15  16
HETATM   16  C   UNK N   1      25.678  26.078  -6.932  0.00  0.00     0.003 C 
BRANCH  16  17
HETATM   17  C   UNK N   1      25.192  27.162  -5.969  0.00  0.00     0.004 C 
BRANCH  17  18
HETATM   18  C   UNK N   1      26.293  27.571  -4.999  0.00  0.00    -0.019 C 
HETATM   19  C   UNK N   1      25.800  27.577  -3.561  0.00  0.00     0.010 C 
BRANCH  18  20
HETATM   20  C   UNK N   1      27.005  28.861  -5.415  0.00  0.00     0.004 C 
BRANCH  20  21
HETATM   21  C   UNK N   1      27.018  29.939  -4.338  0.00  0.00     0.001 C 
BRANCH  21  22
HETATM   22  C   UNK N   1      28.422  30.305  -3.898  0.00  0.00     0.004 C 
BRANCH  22  23
HETATM   23  C   UNK N   1      28.875  29.307  -2.843  0.00  0.00    -0.019 C 
HETATM   24  C   UNK N   1      29.139  30.016  -1.529  0.00  0.00     0.010 C 
BRANCH  23  25
HETATM   25  C   UNK N   1      30.131  28.588  -3.283  0.00  0.00     0.004 C 
BRANCH  25  26
HETATM   26  C   UNK N   1      29.791  27.167  -3.697  0.00  0.00     0.001 C 
BRANCH  26  27
HETATM   27  C   UNK N   1      31.015  26.278  -3.552  0.00  0.00     0.004 C 
BRANCH  27  28
HETATM   28  C   UNK N   1      31.680  26.007  -4.897  0.00  0.00    -0.023 C 
HETATM   29  C   UNK N   1      30.662  25.964  -6.024  0.00  0.00     0.009 C 
HETATM   30  C   UNK N   1      32.391  24.673  -4.834  0.00  0.00     0.009 C 
ENDBRANCH  27  28
ENDBRANCH  26  27
ENDBRANCH  25  26
ENDBRANCH  23  25
ENDBRANCH  22  23
ENDBRANCH  21  22
ENDBRANCH  20  21
ENDBRANCH  18  20
ENDBRANCH  17  18
ENDBRANCH  16  17
ENDBRANCH  15  16
ENDBRANCH   2  15
BRANCH  11  31
HETATM   31  O   UNK N   1      31.588  21.085  -2.736  0.00  0.00    -0.360 OA
HETATM   32  H   UNK N   1      31.313  20.382  -2.181  0.00  0.00     0.217 HD
ENDBRANCH  11  31
TORSDOF 13
ENDMDL
MODEL 2
REMARK VINA RESULT:      -5.9      2.303      5.735
REMARK  13 active torsions:
REMARK  status: ('A' for Active; 'I' for Inactive)
REMARK    1  A    between atoms: O_2  and  C_24 
REMARK    2  A    between atoms: C_3  and  C_4 
REMARK    3  A    between atoms: C_4  and  C_6 
REMARK    4  A    between atoms: C_6  and  C_8 
REMARK    5  A    between atoms: C_7  and  C_8 
REMARK    6  A    between atoms: C_7  and  C_10 
REMARK    7  A    between atoms: C_10  and  C_13 
REMARK    8  A    between atoms: C_13  and  C_15 
REMARK    9  A    between atoms: C_15  and  C_16 
REMARK   10  A    between atoms: C_16  and  C_18 
REMARK   11  A    between atoms: C_18  and  C_21 
REMARK   12  A    between atoms: C_21  and  C_25 
REMARK   13  A    between atoms: C_25  and  C_26 
ROOT
HETATM    1  O   UNK N   1      25.830  26.046  -7.874  0.00  0.00    -0.339 OA
HETATM    2  C   UNK N   1      26.262  25.689  -9.152  0.00  0.00     0.064 C 
HETATM    3  C   UNK N   1      27.622  26.333  -9.494  0.00  0.00     0.043 C 
HETATM    4  C   UNK N   1      28.584  26.179  -8.328  0.00  0.00     0.045 C 
HETATM    5  C   UNK N   1      25.246  26.209 -10.151  0.00  0.00     0.046 C 
HETATM    6  C   UNK N   1      27.969  26.842  -7.142  0.00  0.00    -0.015 A 
HETATM    7  C   UNK N   1      26.582  26.725  -6.959  0.00  0.00     0.083 A 
HETATM    8  C   UNK N   1      28.747  27.575  -6.230  0.00  0.00    -0.019 A 
HETATM    9  C   UNK N   1      25.967  27.326  -5.852  0.00  0.00    -0.019 A 
HETATM   10  C   UNK N   1      26.743  28.068  -4.938  0.00  0.00    -0.020 A 
HETATM   11  C   UNK N   1      28.129  28.193  -5.132  0.00  0.00     0.078 A 
HETATM   12  C   UNK N   1      30.224  27.705  -6.426  0.00  0.00     0.052 C 
HETATM   13  C   UNK N   1      24.490  27.195  -5.665  0.00  0.00     0.052 C 
HETATM   14  C   UNK N   1      26.099  28.738  -3.765  0.00  0.00     0.052 C 
ENDROOT
BRANCH   2  15
HETATM   15  C   UNK N   1      26.315  24.155  -9.238  0.00  0.00     0.038 C 
BRANCH  15  16
HETATM   16  C   UNK N   1      25.305  23.408  -8.350  0.00  0.00     0.003 C 
BRANCH  16  17
HETATM   17  C   UNK N   1      25.968  22.666  -7.188  0.00  0.00     0.004 C 
BRANCH  17  18
HETATM   18  C   UNK N   1      27.486  22.752  -7.276  0.00  0.00    -0.019 C 
HETATM   19  C   UNK N   1      28.102  21.416  -7.661  0.00  0.00     0.010 C 
BRANCH  18  20
HETATM   20  C   UNK N   1      28.119  23.392  -6.037  0.00  0.00     0.004 C 
BRANCH  20  21
HETATM   21  C   UNK N   1      27.109  23.894  -5.013  0.00  0.00     0.001 C 
BRANCH  21  22
HETATM   22  C   UNK N   1      27.770  24.568  -3.826  0.00  0.00     0.004 C 
BRANCH  22  23
HETATM   23  C   UNK N   1      29.086  23.861  -3.539  0.00  0.00    -0.019 C 
HETATM   24  C   UNK N   1      29.000  23.104  -2.228  0.00  0.00     0.010 C 
BRANCH  23  25
HETATM   25  C   UNK N   1      30.228  24.852  -3.468  0.00  0.00     0.004 C 
BRANCH  25  26
HETATM   26  C   UNK N   1      31.192  24.606  -4.615  0.00  0.00     0.001 C 
BRANCH  26  27
HETATM   27  C   UNK N   1      32.050  23.387  -4.318  0.00  0.00     0.004 C 
BRANCH  27  28
HETATM   28  C   UNK N   1      32.009  22.376  -5.458  0.00  0.00    -0.023 C 
HETATM   29  C   UNK N   1      31.677  23.041  -6.782  0.00  0.00     0.009 C 
HETATM   30  C   UNK N   1      30.949  21.339  -5.157  0.00  0.00     0.009 C 
ENDBRANCH  27  28
ENDBRANCH  26  27
ENDBRANCH  25  26
ENDBRANCH  23  25
ENDBRANCH  22  23
ENDBRANCH  21  22
ENDBRANCH  20  21
ENDBRANCH  18  20
ENDBRANCH  17  18
ENDBRANCH  16  17
ENDBRANCH  15  16
ENDBRANCH   2  15
BRANCH  11  31
HETATM   31  O   UNK N   1      28.869  28.909  -4.262  0.00  0.00    -0.360 OA
HETATM   32  H   UNK N   1      29.310  29.685  -4.548  0.00  0.00     0.217 HD
ENDBRANCH  11  31
TORSDOF 13
ENDMDL
MODEL 3
REMARK VINA RESULT:      -5.8     13.027     15.934
REMARK  13 active torsions:
REMARK  status: ('A' for Active; 'I' for Inactive)
REMARK    1  A    between atoms: O_2  and  C_24 
REMARK    2  A    between atoms: C_3  and  C_4 
REMARK    3  A    between atoms: C_4  and  C_6 
REMARK    4  A    between atoms: C_6  and  C_8 
REMARK    5  A    between atoms: C_7  and  C_8 
REMARK    6  A    between atoms: C_7  and  C_10 
REMARK    7  A    between atoms: C_10  and  C_13 
REMARK    8  A    between atoms: C_13  and  C_15 
REMARK    9  A    between atoms: C_15  and  C_16 
REMARK   10  A    between atoms: C_16  and  C_18 
REMARK   11  A    between atoms: C_18  and  C_21 
REMARK   12  A    between atoms: C_21  and  C_25 
REMARK   13  A    between atoms: C_25  and  C_26 
ROOT
HETATM    1  O   UNK N   1      24.273  13.883   7.537  0.00  0.00    -0.339 OA
HETATM    2  C   UNK N   1      24.619  14.382   6.280  0.00  0.00     0.064 C 
HETATM    3  C   UNK N   1      23.392  14.941   5.531  0.00  0.00     0.043 C 
HETATM    4  C   UNK N   1      22.564  15.813   6.459  0.00  0.00     0.045 C 
HETATM    5  C   UNK N   1      25.171  13.232   5.458  0.00  0.00     0.046 C 
HETATM    6  C   UNK N   1      22.139  14.971   7.614  0.00  0.00    -0.015 A 
HETATM    7  C   UNK N   1      23.049  14.030   8.122  0.00  0.00     0.083 A 
HETATM    8  C   UNK N   1      20.860  15.100   8.181  0.00  0.00    -0.019 A 
HETATM    9  C   UNK N   1      22.691  13.226   9.213  0.00  0.00    -0.019 A 
HETATM   10  C   UNK N   1      21.406  13.348   9.781  0.00  0.00    -0.020 A 
HETATM   11  C   UNK N   1      20.494  14.282   9.261  0.00  0.00     0.078 A 
HETATM   12  C   UNK N   1      19.887  16.099   7.638  0.00  0.00     0.052 C 
HETATM   13  C   UNK N   1      23.667  12.228   9.747  0.00  0.00     0.052 C 
HETATM   14  C   UNK N   1      20.998  12.479  10.928  0.00  0.00     0.052 C 
ENDROOT
BRANCH   2  15
HETATM   15  C   UNK N   1      25.716  15.443   6.460  0.00  0.00     0.038 C 
BRANCH  15  16
HETATM   16  C   UNK N   1      27.005  15.206   5.656  0.00  0.00     0.003 C 
BRANCH  16  17
HETATM   17  C   UNK N   1      27.301  16.328   4.659  0.00  0.00     0.004 C 
BRANCH  17  18
HETATM   18  C   UNK N   1      26.148  16.511   3.680  0.00  0.00    -0.019 C 
HETATM   19  C   UNK N   1      26.362  15.706   2.407  0.00  0.00     0.010 C 
BRANCH  18  20
HETATM   20  C   UNK N   1      25.805  17.983   3.431  0.00  0.00     0.004 C 
BRANCH  20  21
HETATM   21  C   UNK N   1      26.627  18.961   4.262  0.00  0.00     0.001 C 
BRANCH  21  22
HETATM   22  C   UNK N   1      25.775  19.760   5.230  0.00  0.00     0.004 C 
BRANCH  22  23
HETATM   23  C   UNK N   1      26.672  20.294   6.337  0.00  0.00    -0.019 C 
HETATM   24  C   UNK N   1      27.069  21.728   6.044  0.00  0.00     0.010 C 
BRANCH  23  25
HETATM   25  C   UNK N   1      27.920  19.449   6.477  0.00  0.00     0.004 C 
BRANCH  25  26
HETATM   26  C   UNK N   1      28.135  19.090   7.936  0.00  0.00     0.001 C 
BRANCH  26  27
HETATM   27  C   UNK N   1      28.335  17.590   8.076  0.00  0.00     0.004 C 
BRANCH  27  28
HETATM   28  C   UNK N   1      29.794  17.236   8.335  0.00  0.00    -0.023 C 
HETATM   29  C   UNK N   1      30.556  18.408   8.929  0.00  0.00     0.009 C 
HETATM   30  C   UNK N   1      30.446  16.849   7.024  0.00  0.00     0.009 C 
ENDBRANCH  27  28
ENDBRANCH  26  27
ENDBRANCH  25  26
ENDBRANCH  23  25
ENDBRANCH  22  23
ENDBRANCH  21  22
ENDBRANCH  20  21
ENDBRANCH  18  20
ENDBRANCH  17  18
ENDBRANCH  16  17
ENDBRANCH  15  16
ENDBRANCH   2  15
BRANCH  11  31
HETATM   31  O   UNK N   1      19.263  14.393   9.799  0.00  0.00    -0.360 OA
HETATM   32  H   UNK N   1      18.924  13.708  10.341  0.00  0.00     0.217 HD
ENDBRANCH  11  31
TORSDOF 13
ENDMDL
MODEL 4
REMARK VINA RESULT:      -5.8     12.234     15.059
REMARK  13 active torsions:
REMARK  status: ('A' for Active; 'I' for Inactive)
REMARK    1  A    between atoms: O_2  and  C_24 
REMARK    2  A    between atoms: C_3  and  C_4 
REMARK    3  A    between atoms: C_4  and  C_6 
REMARK    4  A    between atoms: C_6  and  C_8 
REMARK    5  A    between atoms: C_7  and  C_8 
REMARK    6  A    between atoms: C_7  and  C_10 
REMARK    7  A    between atoms: C_10  and  C_13 
REMARK    8  A    between atoms: C_13  and  C_15 
REMARK    9  A    between atoms: C_15  and  C_16 
REMARK   10  A    between atoms: C_16  and  C_18 
REMARK   11  A    between atoms: C_18  and  C_21 
REMARK   12  A    between atoms: C_21  and  C_25 
REMARK   13  A    between atoms: C_25  and  C_26 
ROOT
HETATM    1  O   UNK N   1      23.101  16.077   5.804  0.00  0.00    -0.339 OA
HETATM    2  C   UNK N   1      22.848  17.164   4.967  0.00  0.00     0.064 C 
HETATM    3  C   UNK N   1      21.414  17.702   5.149  0.00  0.00     0.043 C 
HETATM    4  C   UNK N   1      21.084  17.827   6.627  0.00  0.00     0.045 C 
HETATM    5  C   UNK N   1      22.978  16.688   3.532  0.00  0.00     0.046 C 
HETATM    6  C   UNK N   1      21.222  16.474   7.239  0.00  0.00    -0.015 A 
HETATM    7  C   UNK N   1      22.266  15.647   6.795  0.00  0.00     0.083 A 
HETATM    8  C   UNK N   1      20.330  16.025   8.227  0.00  0.00    -0.019 A 
HETATM    9  C   UNK N   1      22.435  14.371   7.351  0.00  0.00    -0.019 A 
HETATM   10  C   UNK N   1      21.538  13.914   8.339  0.00  0.00    -0.020 A 
HETATM   11  C   UNK N   1      20.487  14.741   8.770  0.00  0.00     0.078 A 
HETATM   12  C   UNK N   1      19.214  16.903   8.697  0.00  0.00     0.052 C 
HETATM   13  C   UNK N   1      23.550  13.498   6.873  0.00  0.00     0.052 C 
HETATM   14  C   UNK N   1      21.688  12.545   8.923  0.00  0.00     0.052 C 
ENDROOT
BRANCH   2  15
HETATM   15  C   UNK N   1      23.906  18.245   5.238  0.00  0.00     0.038 C 
BRANCH  15  16
HETATM   16  C   UNK N   1      24.765  18.648   4.026  0.00  0.00     0.003 C 
BRANCH  16  17
HETATM   17  C   UNK N   1      25.351  20.055   4.153  0.00  0.00     0.004 C 
BRANCH  17  18
HETATM   18  C   UNK N   1      26.506  20.083   5.145  0.00  0.00    -0.019 C 
HETATM   19  C   UNK N   1      26.488  21.347   5.991  0.00  0.00     0.010 C 
BRANCH  18  20
HETATM   20  C   UNK N   1      27.861  19.794   4.492  0.00  0.00     0.004 C 
BRANCH  20  21
HETATM   21  C   UNK N   1      28.544  18.533   5.009  0.00  0.00     0.001 C 
BRANCH  21  22
HETATM   22  C   UNK N   1      28.365  18.346   6.504  0.00  0.00     0.004 C 
BRANCH  22  23
HETATM   23  C   UNK N   1      28.250  16.858   6.795  0.00  0.00    -0.019 C 
HETATM   24  C   UNK N   1      29.390  16.105   6.136  0.00  0.00     0.010 C 
BRANCH  23  25
HETATM   25  C   UNK N   1      26.933  16.308   6.292  0.00  0.00     0.004 C 
BRANCH  25  26
HETATM   26  C   UNK N   1      27.185  15.096   5.413  0.00  0.00     0.001 C 
BRANCH  26  27
HETATM   27  C   UNK N   1      26.243  15.115   4.222  0.00  0.00     0.004 C 
BRANCH  27  28
HETATM   28  C   UNK N   1      26.860  15.826   3.023  0.00  0.00    -0.023 C 
HETATM   29  C   UNK N   1      26.054  15.589   1.758  0.00  0.00     0.009 C 
HETATM   30  C   UNK N   1      28.263  15.300   2.809  0.00  0.00     0.009 C 
ENDBRANCH  27  28
ENDBRANCH  26  27
ENDBRANCH  25  26
ENDBRANCH  23  25
ENDBRANCH  22  23
ENDBRANCH  21  22
ENDBRANCH  20  21
ENDBRANCH  18  20
ENDBRANCH  17  18
ENDBRANCH  16  17
ENDBRANCH  15  16
ENDBRANCH   2  15
BRANCH  11  31
HETATM   31  O   UNK N   1      19.625  14.299   9.708  0.00  0.00    -0.360 OA
HETATM   32  H   UNK N   1      19.928  14.120  10.577  0.00  0.00     0.217 HD
ENDBRANCH  11  31
TORSDOF 13
ENDMDL
MODEL 5
REMARK VINA RESULT:      -5.7      2.608      6.659
REMARK  13 active torsions:
REMARK  status: ('A' for Active; 'I' for Inactive)
REMARK    1  A    between atoms: O_2  and  C_24 
REMARK    2  A    between atoms: C_3  and  C_4 
REMARK    3  A    between atoms: C_4  and  C_6 
REMARK    4  A    between atoms: C_6  and  C_8 
REMARK    5  A    between atoms: C_7  and  C_8 
REMARK    6  A    between atoms: C_7  and  C_10 
REMARK    7  A    between atoms: C_10  and  C_13 
REMARK    8  A    between atoms: C_13  and  C_15 
REMARK    9  A    between atoms: C_15  and  C_16 
REMARK   10  A    between atoms: C_16  and  C_18 
REMARK   11  A    between atoms: C_18  and  C_21 
REMARK   12  A    between atoms: C_21  and  C_25 
REMARK   13  A    between atoms: C_25  and  C_26 
ROOT
HETATM    1  O   UNK N   1      27.341  27.782  -5.505  0.00  0.00    -0.339 OA
HETATM    2  C   UNK N   1      26.186  27.546  -4.757  0.00  0.00     0.064 C 
HETATM    3  C   UNK N   1      24.995  27.158  -5.656  0.00  0.00     0.043 C 
HETATM    4  C   UNK N   1      25.426  26.121  -6.681  0.00  0.00     0.045 C 
HETATM    5  C   UNK N   1      25.820  28.834  -4.044  0.00  0.00     0.046 C 
HETATM    6  C   UNK N   1      26.527  26.716  -7.491  0.00  0.00    -0.015 A 
HETATM    7  C   UNK N   1      27.469  27.528  -6.839  0.00  0.00     0.083 A 
HETATM    8  C   UNK N   1      26.625  26.483  -8.873  0.00  0.00    -0.019 A 
HETATM    9  C   UNK N   1      28.525  28.098  -7.565  0.00  0.00    -0.019 A 
HETATM   10  C   UNK N   1      28.622  27.872  -8.953  0.00  0.00    -0.020 A 
HETATM   11  C   UNK N   1      27.670  27.069  -9.603  0.00  0.00     0.078 A 
HETATM   12  C   UNK N   1      25.619  25.622  -9.570  0.00  0.00     0.052 C 
HETATM   13  C   UNK N   1      29.523  28.961  -6.862  0.00  0.00     0.052 C 
HETATM   14  C   UNK N   1      29.727  28.495  -9.747  0.00  0.00     0.052 C 
ENDROOT
BRANCH   2  15
HETATM   15  C   UNK N   1      26.495  26.462  -3.712  0.00  0.00     0.038 C 
BRANCH  15  16
HETATM   16  C   UNK N   1      27.832  25.724  -3.900  0.00  0.00     0.003 C 
BRANCH  16  17
HETATM   17  C   UNK N   1      27.755  24.245  -3.515  0.00  0.00     0.004 C 
BRANCH  17  18
HETATM   18  C   UNK N   1      29.143  23.669  -3.268  0.00  0.00    -0.019 C 
HETATM   19  C   UNK N   1      29.224  22.958  -1.926  0.00  0.00     0.010 C 
BRANCH  18  20
HETATM   20  C   UNK N   1      30.262  24.689  -3.496  0.00  0.00     0.004 C 
BRANCH  20  21
HETATM   21  C   UNK N   1      31.277  24.271  -4.553  0.00  0.00     0.001 C 
BRANCH  21  22
HETATM   22  C   UNK N   1      30.699  23.298  -5.562  0.00  0.00     0.004 C 
BRANCH  22  23
HETATM   23  C   UNK N   1      30.447  24.042  -6.864  0.00  0.00    -0.019 C 
HETATM   24  C   UNK N   1      31.096  25.412  -6.820  0.00  0.00     0.010 C 
BRANCH  23  25
HETATM   25  C   UNK N   1      28.964  24.201  -7.118  0.00  0.00     0.004 C 
BRANCH  25  26
HETATM   26  C   UNK N   1      28.251  22.892  -6.828  0.00  0.00     0.001 C 
BRANCH  26  27
HETATM   27  C   UNK N   1      27.394  22.494  -8.018  0.00  0.00     0.004 C 
BRANCH  27  28
HETATM   28  C   UNK N   1      25.910  22.488  -7.670  0.00  0.00    -0.023 C 
HETATM   29  C   UNK N   1      25.681  22.787  -6.198  0.00  0.00     0.009 C 
HETATM   30  C   UNK N   1      25.337  21.122  -7.981  0.00  0.00     0.009 C 
ENDBRANCH  27  28
ENDBRANCH  26  27
ENDBRANCH  25  26
ENDBRANCH  23  25
ENDBRANCH  22  23
ENDBRANCH  21  22
ENDBRANCH  20  21
ENDBRANCH  18  20
ENDBRANCH  17  18
ENDBRANCH  16  17
ENDBRANCH  15  16
ENDBRANCH   2  15
BRANCH  11  31
HETATM   31  O   UNK N   1      27.759  26.860 -10.932  0.00  0.00    -0.360 OA
HETATM   32  H   UNK N   1      27.283  26.159 -11.330  0.00  0.00     0.217 HD
ENDBRANCH  11  31
TORSDOF 13
ENDMDL
MODEL 6
REMARK VINA RESULT:      -5.7      1.628      4.641
REMARK  13 active torsions:
REMARK  status: ('A' for Active; 'I' for Inactive)
REMARK    1  A    between atoms: O_2  and  C_24 
REMARK    2  A    between atoms: C_3  and  C_4 
REMARK    3  A    between atoms: C_4  and  C_6 
REMARK    4  A    between atoms: C_6  and  C_8 
REMARK    5  A    between atoms: C_7  and  C_8 
REMARK    6  A    between atoms: C_7  and  C_10 
REMARK    7  A    between atoms: C_10  and  C_13 
REMARK    8  A    between atoms: C_13  and  C_15 
REMARK    9  A    between atoms: C_15  and  C_16 
REMARK   10  A    between atoms: C_16  and  C_18 
REMARK   11  A    between atoms: C_18  and  C_21 
REMARK   12  A    between atoms: C_21  and  C_25 
REMARK   13  A    between atoms: C_25  and  C_26 
ROOT
HETATM    1  O   UNK N   1      30.295  25.757  -3.840  0.00  0.00    -0.339 OA
HETATM    2  C   UNK N   1      30.399  27.088  -4.246  0.00  0.00     0.064 C 
HETATM    3  C   UNK N   1      31.755  27.373  -4.924  0.00  0.00     0.043 C 
HETATM    4  C   UNK N   1      32.083  26.276  -5.924  0.00  0.00     0.045 C 
HETATM    5  C   UNK N   1      30.313  27.961  -3.009  0.00  0.00     0.046 C 
HETATM    6  C   UNK N   1      32.125  24.983  -5.182  0.00  0.00    -0.015 A 
HETATM    7  C   UNK N   1      31.189  24.775  -4.156  0.00  0.00     0.083 A 
HETATM    8  C   UNK N   1      33.077  23.997  -5.487  0.00  0.00    -0.019 A 
HETATM    9  C   UNK N   1      31.189  23.569  -3.441  0.00  0.00    -0.019 A 
HETATM   10  C   UNK N   1      32.148  22.579  -3.740  0.00  0.00    -0.020 A 
HETATM   11  C   UNK N   1      33.091  22.798  -4.759  0.00  0.00     0.078 A 
HETATM   12  C   UNK N   1      34.078  24.220  -6.576  0.00  0.00     0.052 C 
HETATM   13  C   UNK N   1      30.189  23.355  -2.351  0.00  0.00     0.052 C 
HETATM   14  C   UNK N   1      32.180  21.297  -2.968  0.00  0.00     0.052 C 
ENDROOT
BRANCH   2  15
HETATM   15  C   UNK N   1      29.215  27.408  -5.173  0.00  0.00     0.038 C 
BRANCH  15  16
HETATM   16  C   UNK N   1      28.109  28.281  -4.554  0.00  0.00     0.003 C 
BRANCH  16  17
HETATM   17  C   UNK N   1      26.916  28.483  -5.490  0.00  0.00     0.004 C 
BRANCH  17  18
HETATM   18  C   UNK N   1      25.611  28.087  -4.811  0.00  0.00    -0.019 C 
HETATM   19  C   UNK N   1      25.823  27.752  -3.342  0.00  0.00     0.010 C 
BRANCH  18  20
HETATM   20  C   UNK N   1      24.838  27.016  -5.584  0.00  0.00     0.004 C 
BRANCH  20  21
HETATM   21  C   UNK N   1      25.722  25.956  -6.230  0.00  0.00     0.001 C 
BRANCH  21  22
HETATM   22  C   UNK N   1      25.429  24.561  -5.713  0.00  0.00     0.004 C 
BRANCH  22  23
HETATM   23  C   UNK N   1      26.723  23.955  -5.193  0.00  0.00    -0.019 C 
HETATM   24  C   UNK N   1      27.000  24.439  -3.783  0.00  0.00     0.010 C 
BRANCH  23  25
HETATM   25  C   UNK N   1      27.889  24.324  -6.085  0.00  0.00     0.004 C 
BRANCH  25  26
HETATM   26  C   UNK N   1      27.876  23.457  -7.331  0.00  0.00     0.001 C 
BRANCH  26  27
HETATM   27  C   UNK N   1      28.354  22.055  -6.992  0.00  0.00     0.004 C 
BRANCH  27  28
HETATM   28  C   UNK N   1      29.821  22.042  -6.581  0.00  0.00    -0.023 C 
HETATM   29  C   UNK N   1      30.732  22.368  -7.752  0.00  0.00     0.009 C 
HETATM   30  C   UNK N   1      30.174  20.664  -6.062  0.00  0.00     0.009 C 
ENDBRANCH  27  28
ENDBRANCH  26  27
ENDBRANCH  25  26
ENDBRANCH  23  25
ENDBRANCH  22  23
ENDBRANCH  21  22
ENDBRANCH  20  21
ENDBRANCH  18  20
ENDBRANCH  17  18
ENDBRANCH  16  17
ENDBRANCH  15  16
ENDBRANCH   2  15
BRANCH  11  31
HETATM   31  O   UNK N   1      34.012  21.854  -5.038  0.00  0.00    -0.360 OA
HETATM   32  H   UNK N   1      34.219  21.649  -5.928  0.00  0.00     0.217 HD
ENDBRANCH  11  31
TORSDOF 13
ENDMDL
MODEL 7
REMARK VINA RESULT:      -5.6     19.240     23.092
REMARK  13 active torsions:
REMARK  status: ('A' for Active; 'I' for Inactive)
REMARK    1  A    between atoms: O_2  and  C_24 
REMARK    2  A    between atoms: C_3  and  C_4 
REMARK    3  A    between atoms: C_4  and  C_6 
REMARK    4  A    between atoms: C_6  and  C_8 
REMARK    5  A    between atoms: C_7  and  C_8 
REMARK    6  A    between atoms: C_7  and  C_10 
REMARK    7  A    between atoms: C_10  and  C_13 
REMARK    8  A    between atoms: C_13  and  C_15 
REMARK    9  A    between atoms: C_15  and  C_16 
REMARK   10  A    between atoms: C_16  and  C_18 
REMARK   11  A    between atoms: C_18  and  C_21 
REMARK   12  A    between atoms: C_21  and  C_25 
REMARK   13  A    between atoms: C_25  and  C_26 
ROOT
HETATM    1  O   UNK N   1      35.649  10.749  15.499  0.00  0.00    -0.339 OA
HETATM    2  C   UNK N   1      35.532  11.399  14.270  0.00  0.00     0.064 C 
HETATM    3  C   UNK N   1      35.030  12.849  14.437  0.00  0.00     0.043 C 
HETATM    4  C   UNK N   1      35.787  13.540  15.559  0.00  0.00     0.045 C 
HETATM    5  C   UNK N   1      34.502  10.652  13.443  0.00  0.00     0.046 C 
HETATM    6  C   UNK N   1      35.563  12.756  16.808  0.00  0.00    -0.015 A 
HETATM    7  C   UNK N   1      35.520  11.355  16.715  0.00  0.00     0.083 A 
HETATM    8  C   UNK N   1      35.388  13.392  18.048  0.00  0.00    -0.019 A 
HETATM    9  C   UNK N   1      35.321  10.582  17.867  0.00  0.00    -0.019 A 
HETATM   10  C   UNK N   1      35.138  11.217  19.113  0.00  0.00    -0.020 A 
HETATM   11  C   UNK N   1      35.168  12.619  19.198  0.00  0.00     0.078 A 
HETATM   12  C   UNK N   1      35.427  14.884  18.147  0.00  0.00     0.052 C 
HETATM   13  C   UNK N   1      35.278   9.092  17.759  0.00  0.00     0.052 C 
HETATM   14  C   UNK N   1      34.897  10.408  20.348  0.00  0.00     0.052 C 
ENDROOT
BRANCH   2  15
HETATM   15  C   UNK N   1      36.891  11.341  13.555  0.00  0.00     0.038 C 
BRANCH  15  16
HETATM   16  C   UNK N   1      36.841  11.503  12.025  0.00  0.00     0.003 C 
BRANCH  16  17
HETATM   17  C   UNK N   1      37.681  12.679  11.523  0.00  0.00     0.004 C 
BRANCH  17  18
HETATM   18  C   UNK N   1      36.824  13.682  10.762  0.00  0.00    -0.019 C 
HETATM   19  C   UNK N   1      37.548  14.223   9.539  0.00  0.00     0.010 C 
BRANCH  18  20
HETATM   20  C   UNK N   1      36.235  14.769  11.665  0.00  0.00     0.004 C 
BRANCH  20  21
HETATM   21  C   UNK N   1      35.186  15.640  10.984  0.00  0.00     0.001 C 
BRANCH  21  22
HETATM   22  C   UNK N   1      33.932  14.867  10.624  0.00  0.00     0.004 C 
BRANCH  22  23
HETATM   23  C   UNK N   1      33.485  15.291   9.233  0.00  0.00    -0.019 C 
HETATM   24  C   UNK N   1      34.154  14.428   8.181  0.00  0.00     0.010 C 
BRANCH  23  25
HETATM   25  C   UNK N   1      33.823  16.743   8.976  0.00  0.00     0.004 C 
BRANCH  25  26
HETATM   26  C   UNK N   1      32.912  17.298   7.895  0.00  0.00     0.001 C 
BRANCH  26  27
HETATM   27  C   UNK N   1      31.909  18.262   8.507  0.00  0.00     0.004 C 
BRANCH  27  28
HETATM   28  C   UNK N   1      30.581  17.580   8.810  0.00  0.00    -0.023 C 
HETATM   29  C   UNK N   1      29.869  17.155   7.537  0.00  0.00     0.009 C 
HETATM   30  C   UNK N   1      29.692  18.546   9.563  0.00  0.00     0.009 C 
ENDBRANCH  27  28
ENDBRANCH  26  27
ENDBRANCH  25  26
ENDBRANCH  23  25
ENDBRANCH  22  23
ENDBRANCH  21  22
ENDBRANCH  20  21
ENDBRANCH  18  20
ENDBRANCH  17  18
ENDBRANCH  16  17
ENDBRANCH  15  16
ENDBRANCH   2  15
BRANCH  11  31
HETATM   31  O   UNK N   1      34.986  13.225  20.388  0.00  0.00    -0.360 OA
HETATM   32  H   UNK N   1      35.469  13.999  20.601  0.00  0.00     0.217 HD
ENDBRANCH  11  31
TORSDOF 13
ENDMDL
MODEL 8
REMARK VINA RESULT:      -5.6      2.054      5.911
REMARK  13 active torsions:
REMARK  status: ('A' for Active; 'I' for Inactive)
REMARK    1  A    between atoms: O_2  and  C_24 
REMARK    2  A    between atoms: C_3  and  C_4 
REMARK    3  A    between atoms: C_4  and  C_6 
REMARK    4  A    between atoms: C_6  and  C_8 
REMARK    5  A    between atoms: C_7  and  C_8 
REMARK    6  A    between atoms: C_7  and  C_10 
REMARK    7  A    between atoms: C_10  and  C_13 
REMARK    8  A    between atoms: C_13  and  C_15 
REMARK    9  A    between atoms: C_15  and  C_16 
REMARK   10  A    between atoms: C_16  and  C_18 
REMARK   11  A    between atoms: C_18  and  C_21 
REMARK   12  A    between atoms: C_21  and  C_25 
REMARK   13  A    between atoms: C_25  and  C_26 
ROOT
HETATM    1  O   UNK N   1      27.700  29.121  -4.819  0.00  0.00    -0.339 OA
HETATM    2  C   UNK N   1      26.988  29.305  -3.633  0.00  0.00     0.064 C 
HETATM    3  C   UNK N   1      25.806  28.320  -3.518  0.00  0.00     0.043 C 
HETATM    4  C   UNK N   1      26.255  26.916  -3.890  0.00  0.00     0.045 C 
HETATM    5  C   UNK N   1      26.412  30.709  -3.647  0.00  0.00     0.046 C 
HETATM    6  C   UNK N   1      26.773  26.961  -5.288  0.00  0.00    -0.015 A 
HETATM    7  C   UNK N   1      27.506  28.088  -5.690  0.00  0.00     0.083 A 
HETATM    8  C   UNK N   1      26.530  25.911  -6.190  0.00  0.00    -0.019 A 
HETATM    9  C   UNK N   1      28.017  28.163  -6.994  0.00  0.00    -0.019 A 
HETATM   10  C   UNK N   1      27.771  27.115  -7.904  0.00  0.00    -0.020 A 
HETATM   11  C   UNK N   1      27.025  25.995  -7.500  0.00  0.00     0.078 A 
HETATM   12  C   UNK N   1      25.744  24.712  -5.764  0.00  0.00     0.052 C 
HETATM   13  C   UNK N   1      28.798  29.368  -7.413  0.00  0.00     0.052 C 
HETATM   14  C   UNK N   1      28.286  27.192  -9.306  0.00  0.00     0.052 C 
ENDROOT
BRANCH   2  15
HETATM   15  C   UNK N   1      27.963  29.172  -2.452  0.00  0.00     0.038 C 
BRANCH  15  16
HETATM   16  C   UNK N   1      28.710  30.460  -2.064  0.00  0.00     0.003 C 
BRANCH  16  17
HETATM   17  C   UNK N   1      30.101  30.555  -2.694  0.00  0.00     0.004 C 
BRANCH  17  18
HETATM   18  C   UNK N   1      30.791  29.197  -2.711  0.00  0.00    -0.019 C 
HETATM   19  C   UNK N   1      31.732  29.032  -1.528  0.00  0.00     0.010 C 
BRANCH  18  20
HETATM   20  C   UNK N   1      31.433  28.872  -4.063  0.00  0.00     0.004 C 
BRANCH  20  21
HETATM   21  C   UNK N   1      30.932  27.578  -4.693  0.00  0.00     0.001 C 
BRANCH  21  22
HETATM   22  C   UNK N   1      30.182  26.703  -3.707  0.00  0.00     0.004 C 
BRANCH  22  23
HETATM   23  C   UNK N   1      30.222  25.267  -4.206  0.00  0.00    -0.019 C 
HETATM   24  C   UNK N   1      30.188  25.237  -5.722  0.00  0.00     0.010 C 
BRANCH  23  25
HETATM   25  C   UNK N   1      29.051  24.475  -3.666  0.00  0.00     0.004 C 
BRANCH  25  26
HETATM   26  C   UNK N   1      29.331  22.988  -3.800  0.00  0.00     0.001 C 
BRANCH  26  27
HETATM   27  C   UNK N   1      30.396  22.570  -2.800  0.00  0.00     0.004 C 
BRANCH  27  28
HETATM   28  C   UNK N   1      31.138  21.319  -3.254  0.00  0.00    -0.023 C 
HETATM   29  C   UNK N   1      32.639  21.464  -3.074  0.00  0.00     0.009 C 
HETATM   30  C   UNK N   1      30.847  21.079  -4.720  0.00  0.00     0.009 C 
ENDBRANCH  27  28
ENDBRANCH  26  27
ENDBRANCH  25  26
ENDBRANCH  23  25
ENDBRANCH  22  23
ENDBRANCH  21  22
ENDBRANCH  20  21
ENDBRANCH  18  20
ENDBRANCH  17  18
ENDBRANCH  16  17
ENDBRANCH  15  16
ENDBRANCH   2  15
BRANCH  11  31
HETATM   31  O   UNK N   1      26.783  24.997  -8.373  0.00  0.00    -0.360 OA
HETATM   32  H   UNK N   1      25.926  24.621  -8.432  0.00  0.00     0.217 HD
ENDBRANCH  11  31
TORSDOF 13
ENDMDL
MODEL 9
REMARK VINA RESULT:      -5.6      2.549      6.629
REMARK  13 active torsions:
REMARK  status: ('A' for Active; 'I' for Inactive)
REMARK    1  A    between atoms: O_2  and  C_24 
REMARK    2  A    between atoms: C_3  and  C_4 
REMARK    3  A    between atoms: C_4  and  C_6 
REMARK    4  A    between atoms: C_6  and  C_8 
REMARK    5  A    between atoms: C_7  and  C_8 
REMARK    6  A    between atoms: C_7  and  C_10 
REMARK    7  A    between atoms: C_10  and  C_13 
REMARK    8  A    between atoms: C_13  and  C_15 
REMARK    9  A    between atoms: C_15  and  C_16 
REMARK   10  A    between atoms: C_16  and  C_18 
REMARK   11  A    between atoms: C_18  and  C_21 
REMARK   12  A    between atoms: C_21  and  C_25 
REMARK   13  A    between atoms: C_25  and  C_26 
ROOT
HETATM    1  O   UNK N   1      25.940  26.044  -8.419  0.00  0.00    -0.339 OA
HETATM    2  C   UNK N   1      26.175  25.892  -9.786  0.00  0.00     0.064 C 
HETATM    3  C   UNK N   1      27.153  26.960 -10.318  0.00  0.00     0.043 C 
HETATM    4  C   UNK N   1      28.343  27.094  -9.383  0.00  0.00     0.045 C 
HETATM    5  C   UNK N   1      24.855  26.080 -10.510  0.00  0.00     0.046 C 
HETATM    6  C   UNK N   1      27.824  27.477  -8.039  0.00  0.00    -0.015 A 
HETATM    7  C   UNK N   1      26.619  26.902  -7.603  0.00  0.00     0.083 A 
HETATM    8  C   UNK N   1      28.509  28.394  -7.225  0.00  0.00    -0.019 A 
HETATM    9  C   UNK N   1      26.102  27.229  -6.342  0.00  0.00    -0.019 A 
HETATM   10  C   UNK N   1      26.783  28.155  -5.525  0.00  0.00    -0.020 A 
HETATM   11  C   UNK N   1      27.982  28.737  -5.971  0.00  0.00     0.078 A 
HETATM   12  C   UNK N   1      29.789  29.012  -7.690  0.00  0.00     0.052 C 
HETATM   13  C   UNK N   1      24.819  26.612  -5.886  0.00  0.00     0.052 C 
HETATM   14  C   UNK N   1      26.231  28.536  -4.187  0.00  0.00     0.052 C 
ENDROOT
BRANCH   2  15
HETATM   15  C   UNK N   1      26.688  24.466 -10.038  0.00  0.00     0.038 C 
BRANCH  15  16
HETATM   16  C   UNK N   1      26.183  23.397  -9.052  0.00  0.00     0.003 C 
BRANCH  16  17
HETATM   17  C   UNK N   1      27.279  22.422  -8.618  0.00  0.00     0.004 C 
BRANCH  17  18
HETATM   18  C   UNK N   1      27.295  22.252  -7.105  0.00  0.00    -0.019 C 
HETATM   19  C   UNK N   1      26.266  23.144  -6.429  0.00  0.00     0.010 C 
BRANCH  18  20
HETATM   20  C   UNK N   1      28.700  22.365  -6.507  0.00  0.00     0.004 C 
BRANCH  20  21
HETATM   21  C   UNK N   1      29.556  21.118  -6.691  0.00  0.00     0.001 C 
BRANCH  21  22
HETATM   22  C   UNK N   1      30.442  20.839  -5.493  0.00  0.00     0.004 C 
BRANCH  22  23
HETATM   23  C   UNK N   1      30.758  22.159  -4.806  0.00  0.00    -0.019 C 
HETATM   24  C   UNK N   1      32.178  22.588  -5.122  0.00  0.00     0.010 C 
BRANCH  23  25
HETATM   25  C   UNK N   1      30.595  22.040  -3.306  0.00  0.00     0.004 C 
BRANCH  25  26
HETATM   26  C   UNK N   1      30.166  23.377  -2.729  0.00  0.00     0.001 C 
BRANCH  26  27
HETATM   27  C   UNK N   1      28.650  23.463  -2.693  0.00  0.00     0.004 C 
BRANCH  27  28
HETATM   28  C   UNK N   1      28.111  24.405  -3.763  0.00  0.00    -0.023 C 
HETATM   29  C   UNK N   1      29.091  25.525  -4.065  0.00  0.00     0.009 C 
HETATM   30  C   UNK N   1      26.814  25.014  -3.273  0.00  0.00     0.009 C 
ENDBRANCH  27  28
ENDBRANCH  26  27
ENDBRANCH  25  26
ENDBRANCH  23  25
ENDBRANCH  22  23
ENDBRANCH  21  22
ENDBRANCH  20  21
ENDBRANCH  18  20
ENDBRANCH  17  18
ENDBRANCH  16  17
ENDBRANCH  15  16
ENDBRANCH   2  15
BRANCH  11  31
HETATM   31  O   UNK N   1      28.628  29.628  -5.193  0.00  0.00    -0.360 OA
HETATM   32  H   UNK N   1      29.398  30.056  -5.509  0.00  0.00     0.217 HD
ENDBRANCH  11  31
TORSDOF 13
ENDMDL
