MODEL 1
REMARK VINA RESULT:      -6.7      0.000      0.000
REMARK  9 active torsions:
REMARK  status: ('A' for Active; 'I' for Inactive)
REMARK    1  A    between atoms: P_1  and  O_5 
REMARK    2  A    between atoms: P_1  and  O_6 
REMARK    3  A    between atoms: P_1  and  O_7 
REMARK    4  A    between atoms: C_17  and  O_3 
REMARK    5  A    between atoms: C_18  and  O_4 
REMARK    6  A    between atoms: O_5  and  C_21 
REMARK    7  A    between atoms: C_19  and  N_9 
REMARK    8  A    between atoms: N_16  and  C_25 
REMARK    9  A    between atoms: C_20  and  C_21 
ROOT
HETATM    1  O   UNK N   1      32.833  15.288   8.169  0.00  0.00    -0.353 OA
HETATM    2  C   UNK N   1      33.945  16.733   6.658  0.00  0.00     0.198 C 
HETATM    3  C   UNK N   1      34.910  15.738   7.191  0.00  0.00     0.182 C 
HETATM    4  C   UNK N   1      32.877  16.633   7.734  0.00  0.00     0.262 C 
HETATM    5  C   UNK N   1      33.919  14.665   7.532  0.00  0.00     0.180 C 
ENDROOT
BRANCH   4   6
HETATM    6  N   UNK N   1      31.559  17.069   7.264  0.00  0.00    -0.297 N 
HETATM    7  C   UNK N   1      30.566  17.614   7.976  0.00  0.00     0.142 A 
HETATM    8  N   UNK N   1      30.559  17.930   9.293  0.00  0.00    -0.336 N 
HETATM    9  C   UNK N   1      29.496  17.802   7.179  0.00  0.00     0.122 A 
HETATM   10  C   UNK N   1      29.414  18.468   9.818  0.00  0.00     0.183 A 
ATOM     11  HN  UNK N   1      31.381  17.774   9.875  1.00  0.00     0.168 HD
HETATM   12  N   UNK N   1      28.307  18.660   9.025  0.00  0.00    -0.337 N 
HETATM   13  C   UNK N   1      28.326  18.330   7.700  0.00  0.00     0.131 A 
ATOM     14  HN  UNK N   1      27.460  19.054   9.433  1.00  0.00     0.168 HD
HETATM   15  N   UNK N   1      29.777  17.392   5.929  0.00  0.00    -0.346 N 
HETATM   16  C   UNK N   1      31.062  16.941   6.005  0.00  0.00     0.188 A 
ATOM     17  HN  UNK N   1      29.168  17.415   5.111  1.00  0.00     0.167 HD
BRANCH  13  18
HETATM   18  N   UNK N   1      27.182  18.510   6.896  0.00  0.00    -0.383 N 
HETATM   19  H   UNK N   1      26.514  17.794   6.791  0.00  0.00     0.157 HD
HETATM   20  H   UNK N   1      27.049  19.367   6.431  0.00  0.00     0.157 HD
ENDBRANCH  13  18
ENDBRANCH   4   6
BRANCH   2  21
HETATM   21  O   UNK N   1      34.516  18.003   6.613  0.00  0.00    -0.388 OA
HETATM   22  H   UNK N   1      34.203  18.676   5.987  0.00  0.00     0.210 HD
ENDBRANCH   2  21
BRANCH   5  23
HETATM   23  C   UNK N   1      34.515  13.580   8.398  0.00  0.00     0.215 C 
BRANCH  23  24
HETATM   24  O   UNK N   1      33.798  13.569   9.596  0.00  0.00    -0.294 OA
BRANCH  24  25
HETATM   25  P   UNK N   1      34.938  13.944  10.849  0.00  0.00     0.390 P 
HETATM   26  O   UNK N   1      34.761  12.414  11.049  0.00  0.00    -0.632 OA
BRANCH  25  27
HETATM   27  O   UNK N   1      33.427  14.759  11.106  0.00  0.00    -0.307 OA
HETATM   28  H   UNK N   1      32.720  14.415  11.675  0.00  0.00     0.222 HD
ENDBRANCH  25  27
BRANCH  25  29
HETATM   29  O   UNK N   1      34.440  13.826  12.507  0.00  0.00    -0.307 OA
HETATM   30  H   UNK N   1      34.450  14.475  13.229  0.00  0.00     0.222 HD
ENDBRANCH  25  29
ENDBRANCH  24  25
ENDBRANCH  23  24
ENDBRANCH   5  23
BRANCH   3  31
HETATM   31  O   UNK N   1      35.799  15.311   6.205  0.00  0.00    -0.390 OA
HETATM   32  H   UNK N   1      36.282  14.520   5.918  0.00  0.00     0.210 HD
ENDBRANCH   3  31
TORSDOF 9
ENDMDL
MODEL 2
REMARK VINA RESULT:      -6.6      3.354      5.007
REMARK  9 active torsions:
REMARK  status: ('A' for Active; 'I' for Inactive)
REMARK    1  A    between atoms: P_1  and  O_5 
REMARK    2  A    between atoms: P_1  and  O_6 
REMARK    3  A    between atoms: P_1  and  O_7 
REMARK    4  A    between atoms: C_17  and  O_3 
REMARK    5  A    between atoms: C_18  and  O_4 
REMARK    6  A    between atoms: O_5  and  C_21 
REMARK    7  A    between atoms: C_19  and  N_9 
REMARK    8  A    between atoms: N_16  and  C_25 
REMARK    9  A    between atoms: C_20  and  C_21 
ROOT
HETATM    1  O   UNK N   1      34.172  14.079  12.000  0.00  0.00    -0.353 OA
HETATM    2  C   UNK N   1      36.179  14.789  10.963  0.00  0.00     0.198 C 
HETATM    3  C   UNK N   1      36.498  14.106  12.242  0.00  0.00     0.182 C 
HETATM    4  C   UNK N   1      34.723  15.128  11.228  0.00  0.00     0.262 C 
HETATM    5  C   UNK N   1      35.264  13.258  12.328  0.00  0.00     0.180 C 
ENDROOT
BRANCH   4   6
HETATM    6  N   UNK N   1      33.954  15.323   9.995  0.00  0.00    -0.297 N 
HETATM    7  C   UNK N   1      33.979  16.370   9.162  0.00  0.00     0.142 A 
HETATM    8  N   UNK N   1      34.751  17.480   9.238  0.00  0.00    -0.336 N 
HETATM    9  C   UNK N   1      33.068  16.186   8.186  0.00  0.00     0.122 A 
HETATM   10  C   UNK N   1      34.593  18.440   8.275  0.00  0.00     0.183 A 
ATOM     11  HN  UNK N   1      35.430  17.597   9.990  1.00  0.00     0.168 HD
HETATM   12  N   UNK N   1      33.663  18.277   7.275  0.00  0.00    -0.337 N 
HETATM   13  C   UNK N   1      32.886  17.155   7.214  0.00  0.00     0.131 A 
ATOM     14  HN  UNK N   1      33.552  19.005   6.570  1.00  0.00     0.168 HD
HETATM   15  N   UNK N   1      32.441  15.009   8.361  0.00  0.00    -0.346 N 
HETATM   16  C   UNK N   1      33.006  14.491   9.488  0.00  0.00     0.188 A 
ATOM     17  HN  UNK N   1      31.710  14.598   7.781  1.00  0.00     0.167 HD
BRANCH  13  18
HETATM   18  N   UNK N   1      31.920  17.003   6.199  0.00  0.00    -0.383 N 
HETATM   19  H   UNK N   1      32.123  17.233   5.263  0.00  0.00     0.157 HD
HETATM   20  H   UNK N   1      31.027  16.660   6.429  0.00  0.00     0.157 HD
ENDBRANCH  13  18
ENDBRANCH   4   6
BRANCH   2  21
HETATM   21  O   UNK N   1      36.956  15.934  10.803  0.00  0.00    -0.388 OA
HETATM   22  H   UNK N   1      37.485  16.292  11.535  0.00  0.00     0.210 HD
ENDBRANCH   2  21
BRANCH   5  23
HETATM   23  C   UNK N   1      35.088  12.627  13.689  0.00  0.00     0.215 C 
BRANCH  23  24
HETATM   24  O   UNK N   1      35.833  13.384  14.595  0.00  0.00    -0.294 OA
BRANCH  24  25
HETATM   25  P   UNK N   1      35.528  12.707  16.163  0.00  0.00     0.390 P 
HETATM   26  O   UNK N   1      34.085  13.024  15.682  0.00  0.00    -0.632 OA
BRANCH  25  27
HETATM   27  O   UNK N   1      36.455  14.171  16.276  0.00  0.00    -0.307 OA
HETATM   28  H   UNK N   1      36.928  14.567  15.527  0.00  0.00     0.222 HD
ENDBRANCH  25  27
BRANCH  25  29
HETATM   29  O   UNK N   1      34.919  13.735  17.421  0.00  0.00    -0.307 OA
HETATM   30  H   UNK N   1      35.284  13.974  18.288  0.00  0.00     0.222 HD
ENDBRANCH  25  29
ENDBRANCH  24  25
ENDBRANCH  23  24
ENDBRANCH   5  23
BRANCH   3  31
HETATM   31  O   UNK N   1      37.646  13.321  12.129  0.00  0.00    -0.390 OA
HETATM   32  H   UNK N   1      38.417  13.036  12.644  0.00  0.00     0.210 HD
ENDBRANCH   3  31
TORSDOF 9
ENDMDL
MODEL 3
REMARK VINA RESULT:      -6.5      2.645      3.686
REMARK  9 active torsions:
REMARK  status: ('A' for Active; 'I' for Inactive)
REMARK    1  A    between atoms: P_1  and  O_5 
REMARK    2  A    between atoms: P_1  and  O_6 
REMARK    3  A    between atoms: P_1  and  O_7 
REMARK    4  A    between atoms: C_17  and  O_3 
REMARK    5  A    between atoms: C_18  and  O_4 
REMARK    6  A    between atoms: O_5  and  C_21 
REMARK    7  A    between atoms: C_19  and  N_9 
REMARK    8  A    between atoms: N_16  and  C_25 
REMARK    9  A    between atoms: C_20  and  C_21 
ROOT
HETATM    1  O   UNK N   1      34.382  13.850  10.505  0.00  0.00    -0.353 OA
HETATM    2  C   UNK N   1      34.976  16.065   9.914  0.00  0.00     0.198 C 
HETATM    3  C   UNK N   1      35.861  15.592  11.009  0.00  0.00     0.182 C 
HETATM    4  C   UNK N   1      33.830  15.084  10.089  0.00  0.00     0.262 C 
HETATM    5  C   UNK N   1      35.741  14.122  10.739  0.00  0.00     0.180 C 
ENDROOT
BRANCH   4   6
HETATM    6  N   UNK N   1      33.042  14.912   8.865  0.00  0.00    -0.297 N 
HETATM    7  C   UNK N   1      32.129  15.742   8.347  0.00  0.00     0.142 A 
HETATM    8  N   UNK N   1      31.747  16.957   8.806  0.00  0.00    -0.336 N 
HETATM    9  C   UNK N   1      31.584  15.178   7.251  0.00  0.00     0.122 A 
HETATM   10  C   UNK N   1      30.773  17.628   8.118  0.00  0.00     0.183 A 
ATOM     11  HN  UNK N   1      32.174  17.361   9.640  1.00  0.00     0.168 HD
HETATM   12  N   UNK N   1      30.196  17.067   7.003  0.00  0.00    -0.337 N 
HETATM   13  C   UNK N   1      30.586  15.838   6.553  0.00  0.00     0.131 A 
ATOM     14  HN  UNK N   1      29.465  17.576   6.505  1.00  0.00     0.168 HD
HETATM   15  N   UNK N   1      32.139  13.973   7.031  0.00  0.00    -0.346 N 
HETATM   16  C   UNK N   1      33.041  13.829   8.044  0.00  0.00     0.188 A 
ATOM     17  HN  UNK N   1      31.934  13.317   6.278  1.00  0.00     0.167 HD
BRANCH  13  18
HETATM   18  N   UNK N   1      29.976  15.258   5.422  0.00  0.00    -0.383 N 
HETATM   19  H   UNK N   1      30.468  15.151   4.575  0.00  0.00     0.157 HD
HETATM   20  H   UNK N   1      29.042  14.955   5.479  0.00  0.00     0.157 HD
ENDBRANCH  13  18
ENDBRANCH   4   6
BRANCH   2  21
HETATM   21  O   UNK N   1      34.571  17.380  10.136  0.00  0.00    -0.388 OA
HETATM   22  H   UNK N   1      33.783  17.583  10.665  0.00  0.00     0.210 HD
ENDBRANCH   2  21
BRANCH   5  23
HETATM   23  C   UNK N   1      36.283  13.278  11.869  0.00  0.00     0.215 C 
BRANCH  23  24
HETATM   24  O   UNK N   1      36.417  14.114  12.979  0.00  0.00    -0.294 OA
BRANCH  24  25
HETATM   25  P   UNK N   1      36.395  13.080  14.372  0.00  0.00     0.390 P 
HETATM   26  O   UNK N   1      34.879  13.361  14.179  0.00  0.00    -0.632 OA
BRANCH  25  27
HETATM   27  O   UNK N   1      37.240  14.561  14.698  0.00  0.00    -0.307 OA
HETATM   28  H   UNK N   1      38.080  14.605  15.182  0.00  0.00     0.222 HD
ENDBRANCH  25  27
BRANCH  25  29
HETATM   29  O   UNK N   1      35.926  13.741  15.907  0.00  0.00    -0.307 OA
HETATM   30  H   UNK N   1      36.370  13.740  16.769  0.00  0.00     0.222 HD
ENDBRANCH  25  29
ENDBRANCH  24  25
ENDBRANCH  23  24
ENDBRANCH   5  23
BRANCH   3  31
HETATM   31  O   UNK N   1      37.172  16.034  10.833  0.00  0.00    -0.390 OA
HETATM   32  H   UNK N   1      37.730  16.498  10.190  0.00  0.00     0.210 HD
ENDBRANCH   3  31
TORSDOF 9
ENDMDL
MODEL 4
REMARK VINA RESULT:      -6.4      5.158      7.579
REMARK  9 active torsions:
REMARK  status: ('A' for Active; 'I' for Inactive)
REMARK    1  A    between atoms: P_1  and  O_5 
REMARK    2  A    between atoms: P_1  and  O_6 
REMARK    3  A    between atoms: P_1  and  O_7 
REMARK    4  A    between atoms: C_17  and  O_3 
REMARK    5  A    between atoms: C_18  and  O_4 
REMARK    6  A    between atoms: O_5  and  C_21 
REMARK    7  A    between atoms: C_19  and  N_9 
REMARK    8  A    between atoms: N_16  and  C_25 
REMARK    9  A    between atoms: C_20  and  C_21 
ROOT
HETATM    1  O   UNK N   1      34.148  14.299  10.120  0.00  0.00    -0.353 OA
HETATM    2  C   UNK N   1      35.809  15.825  10.839  0.00  0.00     0.198 C 
HETATM    3  C   UNK N   1      35.215  16.306   9.566  0.00  0.00     0.182 C 
HETATM    4  C   UNK N   1      35.410  14.362  10.754  0.00  0.00     0.262 C 
HETATM    5  C   UNK N   1      33.891  15.613   9.692  0.00  0.00     0.180 C 
ENDROOT
BRANCH   4   6
HETATM    6  N   UNK N   1      35.363  13.712  12.067  0.00  0.00    -0.297 N 
HETATM    7  C   UNK N   1      34.884  12.500  12.372  0.00  0.00     0.142 A 
HETATM    8  N   UNK N   1      34.368  11.570  11.535  0.00  0.00    -0.336 N 
HETATM    9  C   UNK N   1      34.963  12.312  13.705  0.00  0.00     0.122 A 
HETATM   10  C   UNK N   1      33.918  10.396  12.076  0.00  0.00     0.183 A 
ATOM     11  HN  UNK N   1      34.316  11.739  10.530  1.00  0.00     0.168 HD
HETATM   12  N   UNK N   1      33.980  10.186  13.434  0.00  0.00    -0.337 N 
HETATM   13  C   UNK N   1      34.497  11.136  14.269  0.00  0.00     0.131 A 
ATOM     14  HN  UNK N   1      33.633   9.310  13.823  1.00  0.00     0.168 HD
HETATM   15  N   UNK N   1      35.504  13.395  14.289  0.00  0.00    -0.346 N 
HETATM   16  C   UNK N   1      35.745  14.250  13.255  0.00  0.00     0.188 A 
ATOM     17  HN  UNK N   1      35.693  13.542  15.281  1.00  0.00     0.167 HD
BRANCH  13  18
HETATM   18  N   UNK N   1      34.540  10.924  15.661  0.00  0.00    -0.383 N 
HETATM   19  H   UNK N   1      35.103  11.482  16.246  0.00  0.00     0.157 HD
HETATM   20  H   UNK N   1      33.997  10.205  16.058  0.00  0.00     0.157 HD
ENDBRANCH  13  18
ENDBRANCH   4   6
BRANCH   2  21
HETATM   21  O   UNK N   1      37.194  15.985  10.832  0.00  0.00    -0.388 OA
HETATM   22  H   UNK N   1      37.610  16.771  10.443  0.00  0.00     0.210 HD
ENDBRANCH   2  21
BRANCH   5  23
HETATM   23  C   UNK N   1      33.105  15.626   8.402  0.00  0.00     0.215 C 
BRANCH  23  24
HETATM   24  O   UNK N   1      33.914  16.222   7.432  0.00  0.00    -0.294 OA
BRANCH  24  25
HETATM   25  P   UNK N   1      32.875  17.248   6.495  0.00  0.00     0.390 P 
HETATM   26  O   UNK N   1      32.950  15.987   5.592  0.00  0.00    -0.632 OA
BRANCH  25  27
HETATM   27  O   UNK N   1      34.454  17.946   6.679  0.00  0.00    -0.307 OA
HETATM   28  H   UNK N   1      34.883  18.087   7.538  0.00  0.00     0.222 HD
ENDBRANCH  25  27
BRANCH  25  29
HETATM   29  O   UNK N   1      33.454  17.887   4.989  0.00  0.00    -0.307 OA
HETATM   30  H   UNK N   1      34.010  17.496   4.297  0.00  0.00     0.222 HD
ENDBRANCH  25  29
ENDBRANCH  24  25
ENDBRANCH  23  24
ENDBRANCH   5  23
BRANCH   3  31
HETATM   31  O   UNK N   1      35.062  17.692   9.565  0.00  0.00    -0.390 OA
HETATM   32  H   UNK N   1      34.397  18.377   9.391  0.00  0.00     0.210 HD
ENDBRANCH   3  31
TORSDOF 9
ENDMDL
MODEL 5
REMARK VINA RESULT:      -6.3      8.923     11.281
REMARK  9 active torsions:
REMARK  status: ('A' for Active; 'I' for Inactive)
REMARK    1  A    between atoms: P_1  and  O_5 
REMARK    2  A    between atoms: P_1  and  O_6 
REMARK    3  A    between atoms: P_1  and  O_7 
REMARK    4  A    between atoms: C_17  and  O_3 
REMARK    5  A    between atoms: C_18  and  O_4 
REMARK    6  A    between atoms: O_5  and  C_21 
REMARK    7  A    between atoms: C_19  and  N_9 
REMARK    8  A    between atoms: N_16  and  C_25 
REMARK    9  A    between atoms: C_20  and  C_21 
ROOT
HETATM    1  O   UNK N   1      23.353  18.491   4.107  0.00  0.00    -0.353 OA
HETATM    2  C   UNK N   1      22.801  20.300   2.682  0.00  0.00     0.198 C 
HETATM    3  C   UNK N   1      24.121  20.554   3.313  0.00  0.00     0.182 C 
HETATM    4  C   UNK N   1      22.261  19.270   3.658  0.00  0.00     0.262 C 
HETATM    5  C   UNK N   1      24.491  19.125   3.579  0.00  0.00     0.180 C 
ENDROOT
BRANCH   4   6
HETATM    6  N   UNK N   1      21.227  18.417   3.065  0.00  0.00    -0.297 N 
HETATM    7  C   UNK N   1      21.277  17.101   2.827  0.00  0.00     0.142 A 
HETATM    8  N   UNK N   1      22.278  16.237   3.117  0.00  0.00    -0.336 N 
HETATM    9  C   UNK N   1      20.145  16.717   2.205  0.00  0.00     0.122 A 
HETATM   10  C   UNK N   1      22.117  14.924   2.763  0.00  0.00     0.183 A 
ATOM     11  HN  UNK N   1      23.127  16.555   3.585  1.00  0.00     0.168 HD
HETATM   12  N   UNK N   1      20.974  14.511   2.118  0.00  0.00    -0.337 N 
HETATM   13  C   UNK N   1      19.975  15.395   1.826  0.00  0.00     0.131 A 
ATOM     14  HN  UNK N   1      20.873  13.532   1.854  1.00  0.00     0.168 HD
HETATM   15  N   UNK N   1      19.333  17.775   2.035  0.00  0.00    -0.346 N 
HETATM   16  C   UNK N   1      20.024  18.819   2.576  0.00  0.00     0.188 A 
ATOM     17  HN  UNK N   1      18.410  17.793   1.601  1.00  0.00     0.167 HD
BRANCH  13  18
HETATM   18  N   UNK N   1      18.814  14.971   1.147  0.00  0.00    -0.383 N 
HETATM   19  H   UNK N   1      18.011  15.539   1.105  0.00  0.00     0.157 HD
HETATM   20  H   UNK N   1      18.806  14.091   0.708  0.00  0.00     0.157 HD
ENDBRANCH  13  18
ENDBRANCH   4   6
BRANCH   2  21
HETATM   21  O   UNK N   1      22.026  21.458   2.670  0.00  0.00    -0.388 OA
HETATM   22  H   UNK N   1      21.215  21.529   3.198  0.00  0.00     0.210 HD
ENDBRANCH   2  21
BRANCH   5  23
HETATM   23  C   UNK N   1      25.673  18.996   4.511  0.00  0.00     0.215 C 
BRANCH  23  24
HETATM   24  O   UNK N   1      25.706  20.149   5.297  0.00  0.00    -0.294 OA
BRANCH  24  25
HETATM   25  P   UNK N   1      27.270  20.181   6.048  0.00  0.00     0.390 P 
HETATM   26  O   UNK N   1      27.077  18.658   5.815  0.00  0.00    -0.632 OA
BRANCH  25  27
HETATM   27  O   UNK N   1      26.043  20.782   7.119  0.00  0.00    -0.307 OA
HETATM   28  H   UNK N   1      25.364  20.222   7.527  0.00  0.00     0.222 HD
ENDBRANCH  25  27
BRANCH  25  29
HETATM   29  O   UNK N   1      27.455  19.521   7.642  0.00  0.00    -0.307 OA
HETATM   30  H   UNK N   1      27.249  19.886   8.517  0.00  0.00     0.222 HD
ENDBRANCH  25  29
ENDBRANCH  24  25
ENDBRANCH  23  24
ENDBRANCH   5  23
BRANCH   3  31
HETATM   31  O   UNK N   1      25.010  21.149   2.418  0.00  0.00    -0.390 OA
HETATM   32  H   UNK N   1      25.492  20.959   1.598  0.00  0.00     0.210 HD
ENDBRANCH   3  31
TORSDOF 9
ENDMDL
MODEL 6
REMARK VINA RESULT:      -6.1      3.700      5.322
REMARK  9 active torsions:
REMARK  status: ('A' for Active; 'I' for Inactive)
REMARK    1  A    between atoms: P_1  and  O_5 
REMARK    2  A    between atoms: P_1  and  O_6 
REMARK    3  A    between atoms: P_1  and  O_7 
REMARK    4  A    between atoms: C_17  and  O_3 
REMARK    5  A    between atoms: C_18  and  O_4 
REMARK    6  A    between atoms: O_5  and  C_21 
REMARK    7  A    between atoms: C_19  and  N_9 
REMARK    8  A    between atoms: N_16  and  C_25 
REMARK    9  A    between atoms: C_20  and  C_21 
ROOT
HETATM    1  O   UNK N   1      34.213  14.365  11.832  0.00  0.00    -0.353 OA
HETATM    2  C   UNK N   1      36.324  14.894  10.898  0.00  0.00     0.198 C 
HETATM    3  C   UNK N   1      36.517  14.205  12.199  0.00  0.00     0.182 C 
HETATM    4  C   UNK N   1      34.889  15.355  11.081  0.00  0.00     0.262 C 
HETATM    5  C   UNK N   1      35.215  13.463  12.226  0.00  0.00     0.180 C 
ENDROOT
BRANCH   4   6
HETATM    6  N   UNK N   1      34.205  15.595   9.807  0.00  0.00    -0.297 N 
HETATM    7  C   UNK N   1      33.720  14.693   8.946  0.00  0.00     0.142 A 
HETATM    8  N   UNK N   1      33.708  13.344   9.068  0.00  0.00    -0.336 N 
HETATM    9  C   UNK N   1      33.232  15.327   7.862  0.00  0.00     0.122 A 
HETATM   10  C   UNK N   1      33.170  12.611   8.045  0.00  0.00     0.183 A 
ATOM     11  HN  UNK N   1      34.088  12.889   9.898  1.00  0.00     0.168 HD
HETATM   12  N   UNK N   1      32.675  13.237   6.925  0.00  0.00    -0.337 N 
HETATM   13  C   UNK N   1      32.699  14.598   6.812  0.00  0.00     0.131 A 
ATOM     14  HN  UNK N   1      32.285  12.676   6.167  1.00  0.00     0.168 HD
HETATM   15  N   UNK N   1      33.382  16.656   8.002  0.00  0.00    -0.346 N 
HETATM   16  C   UNK N   1      33.987  16.800   9.216  0.00  0.00     0.188 A 
ATOM     17  HN  UNK N   1      33.104  17.390   7.350  1.00  0.00     0.167 HD
BRANCH  13  18
HETATM   18  N   UNK N   1      32.209  15.233   5.653  0.00  0.00    -0.383 N 
HETATM   19  H   UNK N   1      32.623  15.080   4.772  0.00  0.00     0.157 HD
HETATM   20  H   UNK N   1      31.440  15.843   5.725  0.00  0.00     0.157 HD
ENDBRANCH  13  18
ENDBRANCH   4   6
BRANCH   2  21
HETATM   21  O   UNK N   1      37.201  15.970  10.771  0.00  0.00    -0.388 OA
HETATM   22  H   UNK N   1      36.917  16.878  10.960  0.00  0.00     0.210 HD
ENDBRANCH   2  21
BRANCH   5  23
HETATM   23  C   UNK N   1      34.915  12.867  13.581  0.00  0.00     0.215 C 
BRANCH  23  24
HETATM   24  O   UNK N   1      35.733  13.516  14.508  0.00  0.00    -0.294 OA
BRANCH  24  25
HETATM   25  P   UNK N   1      35.509  12.691  16.018  0.00  0.00     0.390 P 
HETATM   26  O   UNK N   1      34.042  13.032  15.638  0.00  0.00    -0.632 OA
BRANCH  25  27
HETATM   27  O   UNK N   1      36.427  14.150  16.225  0.00  0.00    -0.307 OA
HETATM   28  H   UNK N   1      36.927  14.577  15.511  0.00  0.00     0.222 HD
ENDBRANCH  25  27
BRANCH  25  29
HETATM   29  O   UNK N   1      34.953  13.587  17.395  0.00  0.00    -0.307 OA
HETATM   30  H   UNK N   1      34.075  13.931  17.626  0.00  0.00     0.222 HD
ENDBRANCH  25  29
ENDBRANCH  24  25
ENDBRANCH  23  24
ENDBRANCH   5  23
BRANCH   3  31
HETATM   31  O   UNK N   1      37.600  13.327  12.156  0.00  0.00    -0.390 OA
HETATM   32  H   UNK N   1      38.511  13.270  11.827  0.00  0.00     0.210 HD
ENDBRANCH   3  31
TORSDOF 9
ENDMDL
MODEL 7
REMARK VINA RESULT:      -6.1      4.365      6.648
REMARK  9 active torsions:
REMARK  status: ('A' for Active; 'I' for Inactive)
REMARK    1  A    between atoms: P_1  and  O_5 
REMARK    2  A    between atoms: P_1  and  O_6 
REMARK    3  A    between atoms: P_1  and  O_7 
REMARK    4  A    between atoms: C_17  and  O_3 
REMARK    5  A    between atoms: C_18  and  O_4 
REMARK    6  A    between atoms: O_5  and  C_21 
REMARK    7  A    between atoms: C_19  and  N_9 
REMARK    8  A    between atoms: N_16  and  C_25 
REMARK    9  A    between atoms: C_20  and  C_21 
ROOT
HETATM    1  O   UNK N   1      32.666  16.293   8.967  0.00  0.00    -0.353 OA
HETATM    2  C   UNK N   1      34.548  16.441   7.539  0.00  0.00     0.198 C 
HETATM    3  C   UNK N   1      33.334  16.874   6.802  0.00  0.00     0.182 C 
HETATM    4  C   UNK N   1      33.885  15.650   8.652  0.00  0.00     0.262 C 
HETATM    5  C   UNK N   1      32.520  17.292   7.990  0.00  0.00     0.180 C 
ENDROOT
BRANCH   4   6
HETATM    6  N   UNK N   1      34.731  15.533   9.843  0.00  0.00    -0.297 N 
HETATM    7  C   UNK N   1      34.928  14.457  10.615  0.00  0.00     0.142 A 
HETATM    8  N   UNK N   1      34.426  13.210  10.454  0.00  0.00    -0.336 N 
HETATM    9  C   UNK N   1      35.722  14.790  11.652  0.00  0.00     0.122 A 
HETATM   10  C   UNK N   1      34.751  12.261  11.385  0.00  0.00     0.183 A 
ATOM     11  HN  UNK N   1      33.824  12.985   9.662  1.00  0.00     0.168 HD
HETATM   12  N   UNK N   1      35.551  12.581  12.456  0.00  0.00    -0.337 N 
HETATM   13  C   UNK N   1      36.046  13.845  12.610  0.00  0.00     0.131 A 
ATOM     14  HN  UNK N   1      35.777  11.865  13.146  1.00  0.00     0.168 HD
HETATM   15  N   UNK N   1      36.064  16.088  11.568  0.00  0.00    -0.346 N 
HETATM   16  C   UNK N   1      35.439  16.528  10.439  0.00  0.00     0.188 A 
ATOM     17  HN  UNK N   1      36.658  16.621  12.204  1.00  0.00     0.167 HD
BRANCH  13  18
HETATM   18  N   UNK N   1      36.850  14.173  13.721  0.00  0.00    -0.383 N 
HETATM   19  H   UNK N   1      36.501  14.109  14.640  0.00  0.00     0.157 HD
HETATM   20  H   UNK N   1      37.775  14.473  13.576  0.00  0.00     0.157 HD
ENDBRANCH  13  18
ENDBRANCH   4   6
BRANCH   2  21
HETATM   21  O   UNK N   1      35.353  15.633   6.738  0.00  0.00    -0.388 OA
HETATM   22  H   UNK N   1      35.424  14.678   6.894  0.00  0.00     0.210 HD
ENDBRANCH   2  21
BRANCH   5  23
HETATM   23  C   UNK N   1      31.067  17.517   7.647  0.00  0.00     0.215 C 
BRANCH  23  24
HETATM   24  O   UNK N   1      30.307  16.919   8.655  0.00  0.00    -0.294 OA
BRANCH  24  25
HETATM   25  P   UNK N   1      29.378  18.191   9.383  0.00  0.00     0.390 P 
HETATM   26  O   UNK N   1      29.110  17.017  10.365  0.00  0.00    -0.632 OA
BRANCH  25  27
HETATM   27  O   UNK N   1      28.778  17.796   7.802  0.00  0.00    -0.307 OA
HETATM   28  H   UNK N   1      27.897  18.047   7.484  0.00  0.00     0.222 HD
ENDBRANCH  25  27
BRANCH  25  29
HETATM   29  O   UNK N   1      27.647  18.077   9.384  0.00  0.00    -0.307 OA
HETATM   30  H   UNK N   1      26.962  18.693   9.690  0.00  0.00     0.222 HD
ENDBRANCH  25  29
ENDBRANCH  24  25
ENDBRANCH  23  24
ENDBRANCH   5  23
BRANCH   3  31
HETATM   31  O   UNK N   1      33.603  17.958   5.965  0.00  0.00    -0.390 OA
HETATM   32  H   UNK N   1      33.386  18.897   5.856  0.00  0.00     0.210 HD
ENDBRANCH   3  31
TORSDOF 9
ENDMDL
MODEL 8
REMARK VINA RESULT:      -6.1      3.238      5.122
REMARK  9 active torsions:
REMARK  status: ('A' for Active; 'I' for Inactive)
REMARK    1  A    between atoms: P_1  and  O_5 
REMARK    2  A    between atoms: P_1  and  O_6 
REMARK    3  A    between atoms: P_1  and  O_7 
REMARK    4  A    between atoms: C_17  and  O_3 
REMARK    5  A    between atoms: C_18  and  O_4 
REMARK    6  A    between atoms: O_5  and  C_21 
REMARK    7  A    between atoms: C_19  and  N_9 
REMARK    8  A    between atoms: N_16  and  C_25 
REMARK    9  A    between atoms: C_20  and  C_21 
ROOT
HETATM    1  O   UNK N   1      29.325  17.261   6.427  0.00  0.00    -0.353 OA
HETATM    2  C   UNK N   1      28.501  18.357   8.357  0.00  0.00     0.198 C 
HETATM    3  C   UNK N   1      29.635  17.478   8.735  0.00  0.00     0.182 C 
HETATM    4  C   UNK N   1      28.130  17.716   7.031  0.00  0.00     0.262 C 
HETATM    5  C   UNK N   1      30.320  17.452   7.401  0.00  0.00     0.180 C 
ENDROOT
BRANCH   4   6
HETATM    6  N   UNK N   1      27.416  18.634   6.139  0.00  0.00    -0.297 N 
HETATM    7  C   UNK N   1      26.284  18.414   5.460  0.00  0.00     0.142 A 
HETATM    8  N   UNK N   1      25.507  17.305   5.470  0.00  0.00    -0.336 N 
HETATM    9  C   UNK N   1      26.002  19.491   4.701  0.00  0.00     0.122 A 
HETATM   10  C   UNK N   1      24.392  17.295   4.675  0.00  0.00     0.183 A 
ATOM     11  HN  UNK N   1      25.744  16.502   6.052  1.00  0.00     0.168 HD
HETATM   12  N   UNK N   1      24.090  18.379   3.884  0.00  0.00    -0.337 N 
HETATM   13  C   UNK N   1      24.886  19.489   3.880  0.00  0.00     0.131 A 
ATOM     14  HN  UNK N   1      23.260  18.353   3.292  1.00  0.00     0.168 HD
HETATM   15  N   UNK N   1      26.942  20.436   4.879  0.00  0.00    -0.346 N 
HETATM   16  C   UNK N   1      27.809  19.883   5.775  0.00  0.00     0.188 A 
ATOM     17  HN  UNK N   1      26.994  21.357   4.443  1.00  0.00     0.167 HD
BRANCH  13  18
HETATM   18  N   UNK N   1      24.584  20.589   3.052  0.00  0.00    -0.383 N 
HETATM   19  H   UNK N   1      24.489  20.484   2.078  0.00  0.00     0.157 HD
HETATM   20  H   UNK N   1      24.466  21.479   3.455  0.00  0.00     0.157 HD
ENDBRANCH  13  18
ENDBRANCH   4   6
BRANCH   2  21
HETATM   21  O   UNK N   1      27.466  18.260   9.286  0.00  0.00    -0.388 OA
HETATM   22  H   UNK N   1      26.989  19.047   9.595  0.00  0.00     0.210 HD
ENDBRANCH   2  21
BRANCH   5  23
HETATM   23  C   UNK N   1      31.384  16.384   7.316  0.00  0.00     0.215 C 
BRANCH  23  24
HETATM   24  O   UNK N   1      31.315  15.637   8.494  0.00  0.00    -0.294 OA
BRANCH  24  25
HETATM   25  P   UNK N   1      32.924  15.066   8.803  0.00  0.00     0.390 P 
HETATM   26  O   UNK N   1      32.324  13.870   8.014  0.00  0.00    -0.632 OA
BRANCH  25  27
HETATM   27  O   UNK N   1      32.045  15.309  10.280  0.00  0.00    -0.307 OA
HETATM   28  H   UNK N   1      31.762  14.586  10.862  0.00  0.00     0.222 HD
ENDBRANCH  25  27
BRANCH  25  29
HETATM   29  O   UNK N   1      33.152  13.733   9.890  0.00  0.00    -0.307 OA
HETATM   30  H   UNK N   1      32.629  12.929  10.040  0.00  0.00     0.222 HD
ENDBRANCH  25  29
ENDBRANCH  24  25
ENDBRANCH  23  24
ENDBRANCH   5  23
BRANCH   3  31
HETATM   31  O   UNK N   1      30.441  18.072   9.707  0.00  0.00    -0.390 OA
HETATM   32  H   UNK N   1      30.912  17.860  10.528  0.00  0.00     0.210 HD
ENDBRANCH   3  31
TORSDOF 9
ENDMDL
MODEL 9
REMARK VINA RESULT:      -6.1      8.624     10.996
REMARK  9 active torsions:
REMARK  status: ('A' for Active; 'I' for Inactive)
REMARK    1  A    between atoms: P_1  and  O_5 
REMARK    2  A    between atoms: P_1  and  O_6 
REMARK    3  A    between atoms: P_1  and  O_7 
REMARK    4  A    between atoms: C_17  and  O_3 
REMARK    5  A    between atoms: C_18  and  O_4 
REMARK    6  A    between atoms: O_5  and  C_21 
REMARK    7  A    between atoms: C_19  and  N_9 
REMARK    8  A    between atoms: N_16  and  C_25 
REMARK    9  A    between atoms: C_20  and  C_21 
ROOT
HETATM    1  O   UNK N   1      24.551  18.372   4.026  0.00  0.00    -0.353 OA
HETATM    2  C   UNK N   1      25.397  20.469   3.323  0.00  0.00     0.198 C 
HETATM    3  C   UNK N   1      23.984  20.336   2.888  0.00  0.00     0.182 C 
HETATM    4  C   UNK N   1      25.721  19.002   3.543  0.00  0.00     0.262 C 
HETATM    5  C   UNK N   1      23.547  19.352   3.931  0.00  0.00     0.180 C 
ENDROOT
BRANCH   4   6
HETATM    6  N   UNK N   1      26.837  18.802   4.471  0.00  0.00    -0.297 N 
HETATM    7  C   UNK N   1      27.846  17.927   4.375  0.00  0.00     0.142 A 
HETATM    8  N   UNK N   1      28.096  17.047   3.377  0.00  0.00    -0.336 N 
HETATM    9  C   UNK N   1      28.621  18.017   5.474  0.00  0.00     0.122 A 
HETATM   10  C   UNK N   1      29.187  16.229   3.501  0.00  0.00     0.183 A 
ATOM     11  HN  UNK N   1      27.492  16.996   2.558  1.00  0.00     0.168 HD
HETATM   12  N   UNK N   1      29.987  16.297   4.618  0.00  0.00    -0.337 N 
HETATM   13  C   UNK N   1      29.718  17.185   5.620  0.00  0.00     0.131 A 
ATOM     14  HN  UNK N   1      30.790  15.675   4.699  1.00  0.00     0.168 HD
HETATM   15  N   UNK N   1      28.136  18.961   6.301  0.00  0.00    -0.346 N 
HETATM   16  C   UNK N   1      27.030  19.434   5.658  0.00  0.00     0.188 A 
ATOM     17  HN  UNK N   1      28.511  19.256   7.202  1.00  0.00     0.167 HD
BRANCH  13  18
HETATM   18  N   UNK N   1      30.529  17.237   6.772  0.00  0.00    -0.383 N 
HETATM   19  H   UNK N   1      30.293  16.734   7.586  0.00  0.00     0.157 HD
HETATM   20  H   UNK N   1      31.345  17.786   6.764  0.00  0.00     0.157 HD
ENDBRANCH  13  18
ENDBRANCH   4   6
BRANCH   2  21
HETATM   21  O   UNK N   1      26.178  21.025   2.311  0.00  0.00    -0.388 OA
HETATM   22  H   UNK N   1      25.796  21.265   1.452  0.00  0.00     0.210 HD
ENDBRANCH   2  21
BRANCH   5  23
HETATM   23  C   UNK N   1      22.205  18.734   3.620  0.00  0.00     0.215 C 
BRANCH  23  24
HETATM   24  O   UNK N   1      21.227  19.606   4.103  0.00  0.00    -0.294 OA
BRANCH  24  25
HETATM   25  P   UNK N   1      19.942  19.591   2.937  0.00  0.00     0.390 P 
HETATM   26  O   UNK N   1      20.974  18.646   2.263  0.00  0.00    -0.632 OA
BRANCH  25  27
HETATM   27  O   UNK N   1      20.617  21.182   3.114  0.00  0.00    -0.307 OA
HETATM   28  H   UNK N   1      20.591  21.857   2.418  0.00  0.00     0.222 HD
ENDBRANCH  25  27
BRANCH  25  29
HETATM   29  O   UNK N   1      20.197  20.337   1.391  0.00  0.00    -0.307 OA
HETATM   30  H   UNK N   1      20.708  20.052   0.617  0.00  0.00     0.222 HD
ENDBRANCH  25  29
ENDBRANCH  24  25
ENDBRANCH  23  24
ENDBRANCH   5  23
BRANCH   3  31
HETATM   31  O   UNK N   1      23.296  21.543   3.010  0.00  0.00    -0.390 OA
HETATM   32  H   UNK N   1      23.417  22.496   2.873  0.00  0.00     0.210 HD
ENDBRANCH   3  31
TORSDOF 9
ENDMDL
