MODEL 1
REMARK VINA RESULT:      -3.8      0.000      0.000
REMARK  5 active torsions:
REMARK  status: ('A' for Active; 'I' for Inactive)
REMARK    1  A    between atoms: C_2  and  C_1 
REMARK    2  A    between atoms: O_4  and  C_1 
REMARK    3  A    between atoms: C_3  and  C_2 
REMARK    4  A    between atoms: C_2  and  N_6 
REMARK    5  A    between atoms: S_7  and  C_3 
ROOT
HETATM    1  C   UNK N   1      33.968  17.236   8.957  0.00  0.00     0.182 C 
ENDROOT
BRANCH   1   2
HETATM    2  C   UNK N   1      34.583  18.261   8.038  0.00  0.00     0.163 C 
HETATM    3  O   UNK N   1      34.437  18.191   6.828  0.00  0.00    -0.648 OA
BRANCH   2   4
HETATM    4  O   UNK N   1      35.307  19.271   8.558  0.00  0.00    -0.775 OA
HETATM    5  H   UNK N   1      36.241  19.205   8.601  0.00  0.00     0.167 HD
ENDBRANCH   2   4
ENDBRANCH   1   2
BRANCH   1   6
HETATM    6  C   UNK N   1      32.718  16.373   8.746  0.00  0.00     0.106 C 
BRANCH   6   7
HETATM    7  S   UNK N   1      31.184  17.274   8.364  0.00  0.00    -0.180 SA
HETATM    8  H   UNK N   1      30.719  18.220   9.223  0.00  0.00     0.101 HD
ENDBRANCH   6   7
ENDBRANCH   1   6
BRANCH   1   9
HETATM    9  N   UNK N   1      34.649  17.030  10.222  0.00  0.00    -0.417 N 
HETATM   10  H   UNK N   1      35.521  16.501  10.252  0.00  0.00     0.150 HD
HETATM   11  H   UNK N   1      34.255  17.414  11.082  0.00  0.00     0.150 HD
ENDBRANCH   1   9
TORSDOF 5
ENDMDL
MODEL 2
REMARK VINA RESULT:      -3.7      2.246      2.580
REMARK  5 active torsions:
REMARK  status: ('A' for Active; 'I' for Inactive)
REMARK    1  A    between atoms: C_2  and  C_1 
REMARK    2  A    between atoms: O_4  and  C_1 
REMARK    3  A    between atoms: C_3  and  C_2 
REMARK    4  A    between atoms: C_2  and  N_6 
REMARK    5  A    between atoms: S_7  and  C_3 
ROOT
HETATM    1  C   UNK N   1      33.810  17.183   8.852  0.00  0.00     0.182 C 
ENDROOT
BRANCH   1   2
HETATM    2  C   UNK N   1      34.518  18.197   7.990  0.00  0.00     0.163 C 
HETATM    3  O   UNK N   1      35.184  19.091   8.486  0.00  0.00    -0.648 OA
BRANCH   2   4
HETATM    4  O   UNK N   1      34.415  18.117   6.649  0.00  0.00    -0.775 OA
HETATM    5  H   UNK N   1      35.164  18.280   6.110  0.00  0.00     0.167 HD
ENDBRANCH   2   4
ENDBRANCH   1   2
BRANCH   1   6
HETATM    6  C   UNK N   1      34.386  15.969   9.591  0.00  0.00     0.106 C 
BRANCH   6   7
HETATM    7  S   UNK N   1      35.478  16.337  10.998  0.00  0.00    -0.180 SA
HETATM    8  H   UNK N   1      36.496  17.228  10.854  0.00  0.00     0.101 HD
ENDBRANCH   6   7
ENDBRANCH   1   6
BRANCH   1   9
HETATM    9  N   UNK N   1      32.380  17.376   9.012  0.00  0.00    -0.417 N 
HETATM   10  H   UNK N   1      31.998  17.631   9.924  0.00  0.00     0.150 HD
HETATM   11  H   UNK N   1      31.756  17.258   8.213  0.00  0.00     0.150 HD
ENDBRANCH   1   9
TORSDOF 5
ENDMDL
MODEL 3
REMARK VINA RESULT:      -3.6     12.359     12.790
REMARK  5 active torsions:
REMARK  status: ('A' for Active; 'I' for Inactive)
REMARK    1  A    between atoms: C_2  and  C_1 
REMARK    2  A    between atoms: O_4  and  C_1 
REMARK    3  A    between atoms: C_3  and  C_2 
REMARK    4  A    between atoms: C_2  and  N_6 
REMARK    5  A    between atoms: S_7  and  C_3 
ROOT
HETATM    1  C   UNK N   1      22.531  12.344  11.319  0.00  0.00     0.182 C 
ENDROOT
BRANCH   1   2
HETATM    2  C   UNK N   1      23.715  12.152  12.233  0.00  0.00     0.163 C 
HETATM    3  O   UNK N   1      23.564  11.973  13.430  0.00  0.00    -0.648 OA
BRANCH   2   4
HETATM    4  O   UNK N   1      24.961  12.178  11.721  0.00  0.00    -0.775 OA
HETATM    5  H   UNK N   1      25.242  12.910  11.209  0.00  0.00     0.167 HD
ENDBRANCH   2   4
ENDBRANCH   1   2
BRANCH   1   6
HETATM    6  C   UNK N   1      22.456  13.069   9.970  0.00  0.00     0.106 C 
BRANCH   6   7
HETATM    7  S   UNK N   1      20.932  14.011   9.655  0.00  0.00    -0.180 SA
HETATM    8  H   UNK N   1      20.191  13.754   8.543  0.00  0.00     0.101 HD
ENDBRANCH   6   7
ENDBRANCH   1   6
BRANCH   1   9
HETATM    9  N   UNK N   1      21.280  11.764  11.774  0.00  0.00    -0.417 N 
HETATM   10  H   UNK N   1      21.149  10.752  11.751  0.00  0.00     0.150 HD
HETATM   11  H   UNK N   1      20.532  12.368  12.116  0.00  0.00     0.150 HD
ENDBRANCH   1   9
TORSDOF 5
ENDMDL
MODEL 4
REMARK VINA RESULT:      -3.5     14.406     14.927
REMARK  5 active torsions:
REMARK  status: ('A' for Active; 'I' for Inactive)
REMARK    1  A    between atoms: C_2  and  C_1 
REMARK    2  A    between atoms: O_4  and  C_1 
REMARK    3  A    between atoms: C_3  and  C_2 
REMARK    4  A    between atoms: C_2  and  N_6 
REMARK    5  A    between atoms: S_7  and  C_3 
ROOT
HETATM    1  C   UNK N   1      20.295  19.015   2.259  0.00  0.00     0.182 C 
ENDROOT
BRANCH   1   2
HETATM    2  C   UNK N   1      20.781  20.167   1.416  0.00  0.00     0.163 C 
HETATM    3  O   UNK N   1      21.278  21.156   1.928  0.00  0.00    -0.648 OA
BRANCH   2   4
HETATM    4  O   UNK N   1      20.665  20.104   0.075  0.00  0.00    -0.775 OA
HETATM    5  H   UNK N   1      19.829  19.945  -0.317  0.00  0.00     0.167 HD
ENDBRANCH   2   4
ENDBRANCH   1   2
BRANCH   1   6
HETATM    6  C   UNK N   1      21.107  18.006   3.080  0.00  0.00     0.106 C 
BRANCH   6   7
HETATM    7  S   UNK N   1      21.445  18.472   4.806  0.00  0.00    -0.180 SA
HETATM    8  H   UNK N   1      21.314  19.768   5.198  0.00  0.00     0.101 HD
ENDBRANCH   6   7
ENDBRANCH   1   6
BRANCH   1   9
HETATM    9  N   UNK N   1      18.856  18.827   2.305  0.00  0.00    -0.417 N 
HETATM   10  H   UNK N   1      18.465  17.884   2.305  0.00  0.00     0.150 HD
HETATM   11  H   UNK N   1      18.237  19.636   2.337  0.00  0.00     0.150 HD
ENDBRANCH   1   9
TORSDOF 5
ENDMDL
MODEL 5
REMARK VINA RESULT:      -3.5     14.370     14.790
REMARK  5 active torsions:
REMARK  status: ('A' for Active; 'I' for Inactive)
REMARK    1  A    between atoms: C_2  and  C_1 
REMARK    2  A    between atoms: O_4  and  C_1 
REMARK    3  A    between atoms: C_3  and  C_2 
REMARK    4  A    between atoms: C_2  and  N_6 
REMARK    5  A    between atoms: S_7  and  C_3 
ROOT
HETATM    1  C   UNK N   1      20.696  19.985   1.595  0.00  0.00     0.182 C 
ENDROOT
BRANCH   1   2
HETATM    2  C   UNK N   1      21.156  20.819   2.765  0.00  0.00     0.163 C 
HETATM    3  O   UNK N   1      22.282  21.287   2.800  0.00  0.00    -0.648 OA
BRANCH   2   4
HETATM    4  O   UNK N   1      20.312  21.050   3.789  0.00  0.00    -0.775 OA
HETATM    5  H   UNK N   1      20.418  21.814   4.321  0.00  0.00     0.167 HD
ENDBRANCH   2   4
ENDBRANCH   1   2
BRANCH   1   6
HETATM    6  C   UNK N   1      20.393  18.483   1.536  0.00  0.00     0.106 C 
BRANCH   6   7
HETATM    7  S   UNK N   1      20.880  17.514   2.997  0.00  0.00    -0.180 SA
HETATM    8  H   UNK N   1      20.367  16.270   3.189  0.00  0.00     0.101 HD
ENDBRANCH   6   7
ENDBRANCH   1   6
BRANCH   1   9
HETATM    9  N   UNK N   1      20.511  20.698   0.344  0.00  0.00    -0.417 N 
HETATM   10  H   UNK N   1      21.308  21.144  -0.112  0.00  0.00     0.150 HD
HETATM   11  H   UNK N   1      19.584  20.754  -0.079  0.00  0.00     0.150 HD
ENDBRANCH   1   9
TORSDOF 5
ENDMDL
MODEL 6
REMARK VINA RESULT:      -3.2     12.310     12.369
REMARK  5 active torsions:
REMARK  status: ('A' for Active; 'I' for Inactive)
REMARK    1  A    between atoms: C_2  and  C_1 
REMARK    2  A    between atoms: O_4  and  C_1 
REMARK    3  A    between atoms: C_3  and  C_2 
REMARK    4  A    between atoms: C_2  and  N_6 
REMARK    5  A    between atoms: S_7  and  C_3 
ROOT
HETATM    1  C   UNK N   1      44.512  22.070   3.340  0.00  0.00     0.182 C 
ENDROOT
BRANCH   1   2
HETATM    2  C   UNK N   1      43.540  23.222   3.401  0.00  0.00     0.163 C 
HETATM    3  O   UNK N   1      42.749  23.427   2.495  0.00  0.00    -0.648 OA
BRANCH   2   4
HETATM    4  O   UNK N   1      43.543  24.039   4.472  0.00  0.00    -0.775 OA
HETATM    5  H   UNK N   1      42.765  24.148   4.982  0.00  0.00     0.167 HD
ENDBRANCH   2   4
ENDBRANCH   1   2
BRANCH   1   6
HETATM    6  C   UNK N   1      44.422  20.769   2.535  0.00  0.00     0.106 C 
BRANCH   6   7
HETATM    7  S   UNK N   1      42.988  19.708   2.892  0.00  0.00    -0.180 SA
HETATM    8  H   UNK N   1      42.103  20.065   3.862  0.00  0.00     0.101 HD
ENDBRANCH   6   7
ENDBRANCH   1   6
BRANCH   1   9
HETATM    9  N   UNK N   1      45.705  22.205   4.157  0.00  0.00    -0.417 N 
HETATM   10  H   UNK N   1      45.874  21.554   4.925  0.00  0.00     0.150 HD
HETATM   11  H   UNK N   1      46.374  22.951   3.964  0.00  0.00     0.150 HD
ENDBRANCH   1   9
TORSDOF 5
ENDMDL
MODEL 7
REMARK VINA RESULT:      -3.2      3.002      3.282
REMARK  5 active torsions:
REMARK  status: ('A' for Active; 'I' for Inactive)
REMARK    1  A    between atoms: C_2  and  C_1 
REMARK    2  A    between atoms: O_4  and  C_1 
REMARK    3  A    between atoms: C_3  and  C_2 
REMARK    4  A    between atoms: C_2  and  N_6 
REMARK    5  A    between atoms: S_7  and  C_3 
ROOT
HETATM    1  C   UNK N   1      34.669  15.405   9.992  0.00  0.00     0.182 C 
ENDROOT
BRANCH   1   2
HETATM    2  C   UNK N   1      35.696  16.424  10.421  0.00  0.00     0.163 C 
HETATM    3  O   UNK N   1      35.463  17.619  10.354  0.00  0.00    -0.648 OA
BRANCH   2   4
HETATM    4  O   UNK N   1      36.890  16.008  10.886  0.00  0.00    -0.775 OA
HETATM    5  H   UNK N   1      37.467  15.524  10.330  0.00  0.00     0.167 HD
ENDBRANCH   2   4
ENDBRANCH   1   2
BRANCH   1   6
HETATM    6  C   UNK N   1      34.552  14.650   8.663  0.00  0.00     0.106 C 
BRANCH   6   7
HETATM    7  S   UNK N   1      34.665  15.664   7.157  0.00  0.00    -0.180 SA
HETATM    8  H   UNK N   1      34.863  17.006   7.254  0.00  0.00     0.101 HD
ENDBRANCH   6   7
ENDBRANCH   1   6
BRANCH   1   9
HETATM    9  N   UNK N   1      33.643  15.090  10.970  0.00  0.00    -0.417 N 
HETATM   10  H   UNK N   1      33.258  15.828  11.561  0.00  0.00     0.150 HD
HETATM   11  H   UNK N   1      33.307  14.132  11.066  0.00  0.00     0.150 HD
ENDBRANCH   1   9
TORSDOF 5
ENDMDL
MODEL 8
REMARK VINA RESULT:      -3.2     12.142     12.504
REMARK  5 active torsions:
REMARK  status: ('A' for Active; 'I' for Inactive)
REMARK    1  A    between atoms: C_2  and  C_1 
REMARK    2  A    between atoms: O_4  and  C_1 
REMARK    3  A    between atoms: C_3  and  C_2 
REMARK    4  A    between atoms: C_2  and  N_6 
REMARK    5  A    between atoms: S_7  and  C_3 
ROOT
HETATM    1  C   UNK N   1      43.558  22.736   3.470  0.00  0.00     0.182 C 
ENDROOT
BRANCH   1   2
HETATM    2  C   UNK N   1      44.696  21.800   3.790  0.00  0.00     0.163 C 
HETATM    3  O   UNK N   1      44.580  20.594   3.643  0.00  0.00    -0.648 OA
BRANCH   2   4
HETATM    4  O   UNK N   1      45.860  22.300   4.247  0.00  0.00    -0.775 OA
HETATM    5  H   UNK N   1      46.208  23.089   3.881  0.00  0.00     0.167 HD
ENDBRANCH   2   4
ENDBRANCH   1   2
BRANCH   1   6
HETATM    6  C   UNK N   1      42.379  22.535   2.510  0.00  0.00     0.106 C 
BRANCH   6   7
HETATM    7  S   UNK N   1      42.813  22.125   0.791  0.00  0.00    -0.180 SA
HETATM    8  H   UNK N   1      43.275  20.884   0.484  0.00  0.00     0.101 HD
ENDBRANCH   6   7
ENDBRANCH   1   6
BRANCH   1   9
HETATM    9  N   UNK N   1      43.573  24.011   4.165  0.00  0.00    -0.417 N 
HETATM   10  H   UNK N   1      43.634  24.036   5.183  0.00  0.00     0.150 HD
HETATM   11  H   UNK N   1      43.521  24.881   3.635  0.00  0.00     0.150 HD
ENDBRANCH   1   9
TORSDOF 5
ENDMDL
MODEL 9
REMARK VINA RESULT:      -3.1     12.887     13.511
REMARK  5 active torsions:
REMARK  status: ('A' for Active; 'I' for Inactive)
REMARK    1  A    between atoms: C_2  and  C_1 
REMARK    2  A    between atoms: O_4  and  C_1 
REMARK    3  A    between atoms: C_3  and  C_2 
REMARK    4  A    between atoms: C_2  and  N_6 
REMARK    5  A    between atoms: S_7  and  C_3 
ROOT
HETATM    1  C   UNK N   1      21.542  12.373  10.591  0.00  0.00     0.182 C 
ENDROOT
BRANCH   1   2
HETATM    2  C   UNK N   1      20.893  13.595   9.991  0.00  0.00     0.163 C 
HETATM    3  O   UNK N   1      21.565  14.502   9.528  0.00  0.00    -0.648 OA
BRANCH   2   4
HETATM    4  O   UNK N   1      19.549  13.688   9.965  0.00  0.00    -0.775 OA
HETATM    5  H   UNK N   1      19.040  13.339  10.670  0.00  0.00     0.167 HD
ENDBRANCH   2   4
ENDBRANCH   1   2
BRANCH   1   6
HETATM    6  C   UNK N   1      22.762  11.585  10.100  0.00  0.00     0.106 C 
BRANCH   6   7
HETATM    7  S   UNK N   1      24.383  12.344  10.425  0.00  0.00    -0.180 SA
HETATM    8  H   UNK N   1      24.798  13.406   9.683  0.00  0.00     0.101 HD
ENDBRANCH   6   7
ENDBRANCH   1   6
BRANCH   1   9
HETATM    9  N   UNK N   1      20.931  11.864  11.806  0.00  0.00    -0.417 N 
HETATM   10  H   UNK N   1      19.917  11.893  11.919  0.00  0.00     0.150 HD
HETATM   11  H   UNK N   1      21.516  11.476  12.547  0.00  0.00     0.150 HD
ENDBRANCH   1   9
TORSDOF 5
ENDMDL
