MODEL 1
REMARK VINA RESULT:      -5.3      0.000      0.000
REMARK  10 active torsions:
REMARK  status: ('A' for Active; 'I' for Inactive)
REMARK    1  A    between atoms: C_2  and  C_1 
REMARK    2  A    between atoms: C_2  and  N_12 
REMARK    3  A    between atoms: C_3  and  C_2 
REMARK    4  A    between atoms: C_3  and  O_7 
REMARK    5  A    between atoms: C_4  and  C_3 
REMARK    6  A    between atoms: C_4  and  O_8 
REMARK    7  A    between atoms: C_5  and  C_4 
REMARK    8  A    between atoms: C_5  and  O_9 
REMARK    9  A    between atoms: C_10  and  C_5 
REMARK   10  A    between atoms: C_10  and  O_11 
REMARK       I    between atoms: N_12  and  C_13 
ROOT
HETATM    1  C   UNK N   1      20.425  17.641   3.578  0.00  0.00     0.178 C 
ENDROOT
BRANCH   1   2
HETATM    2  C   UNK N   1      21.204  18.086   4.836  0.00  0.00     0.177 C 
BRANCH   2   3
HETATM    3  C   UNK N   1      22.689  18.124   4.565  0.00  0.00     0.258 C 
HETATM    4  O   UNK N   1      23.180  19.063   3.958  0.00  0.00    -0.305 OA
ENDBRANCH   2   3
BRANCH   2   5
HETATM    5  N   UNK N   1      20.896  17.218   5.958  0.00  0.00    -0.348 N 
HETATM    6  C   UNK N   1      20.662  17.665   7.219  0.00  0.00     0.214 C 
HETATM    7  O   UNK N   1      20.767  18.849   7.497  0.00  0.00    -0.274 OA
HETATM    8  C   UNK N   1      20.264  16.694   8.276  0.00  0.00     0.117 C 
HETATM    9  H   UNK N   1      20.853  16.248   5.794  0.00  0.00     0.163 HD
ENDBRANCH   2   5
ENDBRANCH   1   2
BRANCH   1  10
HETATM   10  O   UNK N   1      21.280  16.914   2.743  0.00  0.00    -0.390 OA
HETATM   11  H   UNK N   1      22.236  17.059   2.663  0.00  0.00     0.210 HD
ENDBRANCH   1  10
BRANCH   1  12
HETATM   12  C   UNK N   1      19.847  18.839   2.806  0.00  0.00     0.180 C 
BRANCH  12  13
HETATM   13  O   UNK N   1      18.524  18.574   2.438  0.00  0.00    -0.390 OA
HETATM   14  H   UNK N   1      18.108  18.498   1.565  0.00  0.00     0.210 HD
ENDBRANCH  12  13
BRANCH  12  15
HETATM   15  C   UNK N   1      20.677  19.203   1.567  0.00  0.00     0.173 C 
BRANCH  15  16
HETATM   16  O   UNK N   1      20.250  18.499   0.438  0.00  0.00    -0.391 OA
HETATM   17  H   UNK N   1      19.661  18.058  -0.194  0.00  0.00     0.210 HD
ENDBRANCH  15  16
BRANCH  15  18
HETATM   18  C   UNK N   1      20.689  20.703   1.294  0.00  0.00     0.198 C 
BRANCH  18  19
HETATM   19  O   UNK N   1      20.745  20.964  -0.077  0.00  0.00    -0.398 OA
HETATM   20  H   UNK N   1      20.263  20.564  -0.818  0.00  0.00     0.209 HD
ENDBRANCH  18  19
ENDBRANCH  15  18
ENDBRANCH  12  15
ENDBRANCH   1  12
TORSDOF 10
ENDMDL
MODEL 2
REMARK VINA RESULT:      -5.2     12.403     14.837
REMARK  10 active torsions:
REMARK  status: ('A' for Active; 'I' for Inactive)
REMARK    1  A    between atoms: C_2  and  C_1 
REMARK    2  A    between atoms: C_2  and  N_12 
REMARK    3  A    between atoms: C_3  and  C_2 
REMARK    4  A    between atoms: C_3  and  O_7 
REMARK    5  A    between atoms: C_4  and  C_3 
REMARK    6  A    between atoms: C_4  and  O_8 
REMARK    7  A    between atoms: C_5  and  C_4 
REMARK    8  A    between atoms: C_5  and  O_9 
REMARK    9  A    between atoms: C_10  and  C_5 
REMARK   10  A    between atoms: C_10  and  O_11 
REMARK       I    between atoms: N_12  and  C_13 
ROOT
HETATM    1  C   UNK N   1      33.222  15.332   9.117  0.00  0.00     0.178 C 
ENDROOT
BRANCH   1   2
HETATM    2  C   UNK N   1      33.007  16.675   8.385  0.00  0.00     0.177 C 
BRANCH   2   3
HETATM    3  C   UNK N   1      34.315  17.410   8.212  0.00  0.00     0.258 C 
HETATM    4  O   UNK N   1      34.548  18.017   7.179  0.00  0.00    -0.305 OA
ENDBRANCH   2   3
BRANCH   2   5
HETATM    5  N   UNK N   1      32.035  17.490   9.092  0.00  0.00    -0.348 N 
HETATM    6  C   UNK N   1      30.831  17.850   8.578  0.00  0.00     0.214 C 
HETATM    7  O   UNK N   1      30.521  17.554   7.435  0.00  0.00    -0.274 OA
HETATM    8  C   UNK N   1      29.871  18.610   9.426  0.00  0.00     0.117 C 
HETATM    9  H   UNK N   1      32.263  17.799   9.999  0.00  0.00     0.163 HD
ENDBRANCH   2   5
ENDBRANCH   1   2
BRANCH   1  10
HETATM   10  O   UNK N   1      32.273  15.209  10.137  0.00  0.00    -0.390 OA
HETATM   11  H   UNK N   1      31.718  14.427  10.288  0.00  0.00     0.210 HD
ENDBRANCH   1  10
BRANCH   1  12
HETATM   12  C   UNK N   1      34.635  15.223   9.712  0.00  0.00     0.180 C 
BRANCH  12  13
HETATM   13  O   UNK N   1      35.271  14.077   9.223  0.00  0.00    -0.390 OA
HETATM   14  H   UNK N   1      35.084  13.135   9.363  0.00  0.00     0.210 HD
ENDBRANCH  12  13
BRANCH  12  15
HETATM   15  C   UNK N   1      34.633  15.210  11.247  0.00  0.00     0.173 C 
BRANCH  15  16
HETATM   16  O   UNK N   1      34.195  13.983  11.750  0.00  0.00    -0.391 OA
HETATM   17  H   UNK N   1      34.220  13.084  12.115  0.00  0.00     0.210 HD
ENDBRANCH  15  16
BRANCH  15  18
HETATM   18  C   UNK N   1      35.991  15.580  11.835  0.00  0.00     0.198 C 
BRANCH  18  19
HETATM   19  O   UNK N   1      36.838  16.102  10.856  0.00  0.00    -0.398 OA
HETATM   20  H   UNK N   1      37.776  15.932  10.674  0.00  0.00     0.209 HD
ENDBRANCH  18  19
ENDBRANCH  15  18
ENDBRANCH  12  15
ENDBRANCH   1  12
TORSDOF 10
ENDMDL
MODEL 3
REMARK VINA RESULT:      -5.1     12.656     15.156
REMARK  10 active torsions:
REMARK  status: ('A' for Active; 'I' for Inactive)
REMARK    1  A    between atoms: C_2  and  C_1 
REMARK    2  A    between atoms: C_2  and  N_12 
REMARK    3  A    between atoms: C_3  and  C_2 
REMARK    4  A    between atoms: C_3  and  O_7 
REMARK    5  A    between atoms: C_4  and  C_3 
REMARK    6  A    between atoms: C_4  and  O_8 
REMARK    7  A    between atoms: C_5  and  C_4 
REMARK    8  A    between atoms: C_5  and  O_9 
REMARK    9  A    between atoms: C_10  and  C_5 
REMARK   10  A    between atoms: C_10  and  O_11 
REMARK       I    between atoms: N_12  and  C_13 
ROOT
HETATM    1  C   UNK N   1      34.478  16.771   9.629  0.00  0.00     0.178 C 
ENDROOT
BRANCH   1   2
HETATM    2  C   UNK N   1      33.547  17.108   8.444  0.00  0.00     0.177 C 
BRANCH   2   3
HETATM    3  C   UNK N   1      34.208  18.085   7.501  0.00  0.00     0.258 C 
HETATM    4  O   UNK N   1      34.264  17.846   6.306  0.00  0.00    -0.305 OA
ENDBRANCH   2   3
BRANCH   2   5
HETATM    5  N   UNK N   1      32.276  17.618   8.925  0.00  0.00    -0.348 N 
HETATM    6  C   UNK N   1      31.071  17.256   8.413  0.00  0.00     0.214 C 
HETATM    7  O   UNK N   1      30.996  16.510   7.450  0.00  0.00    -0.274 OA
HETATM    8  C   UNK N   1      29.824  17.770   9.045  0.00  0.00     0.117 C 
HETATM    9  H   UNK N   1      32.289  18.266   9.667  0.00  0.00     0.163 HD
ENDBRANCH   2   5
ENDBRANCH   1   2
BRANCH   1  10
HETATM   10  O   UNK N   1      35.383  17.821   9.816  0.00  0.00    -0.390 OA
HETATM   11  H   UNK N   1      36.183  17.775  10.362  0.00  0.00     0.210 HD
ENDBRANCH   1  10
BRANCH   1  12
HETATM   12  C   UNK N   1      35.251  15.461   9.397  0.00  0.00     0.180 C 
BRANCH  12  13
HETATM   13  O   UNK N   1      34.362  14.441   9.046  0.00  0.00    -0.390 OA
HETATM   14  H   UNK N   1      34.267  13.534   9.378  0.00  0.00     0.210 HD
ENDBRANCH  12  13
BRANCH  12  15
HETATM   15  C   UNK N   1      36.082  15.039  10.617  0.00  0.00     0.173 C 
BRANCH  15  16
HETATM   16  O   UNK N   1      37.183  15.879  10.804  0.00  0.00    -0.391 OA
HETATM   17  H   UNK N   1      37.737  16.593  11.157  0.00  0.00     0.210 HD
ENDBRANCH  15  16
BRANCH  15  18
HETATM   18  C   UNK N   1      35.247  14.952  11.890  0.00  0.00     0.198 C 
BRANCH  18  19
HETATM   19  O   UNK N   1      34.276  13.954  11.788  0.00  0.00    -0.398 OA
HETATM   20  H   UNK N   1      34.064  13.349  11.059  0.00  0.00     0.209 HD
ENDBRANCH  18  19
ENDBRANCH  15  18
ENDBRANCH  12  15
ENDBRANCH   1  12
TORSDOF 10
ENDMDL
MODEL 4
REMARK VINA RESULT:      -5.0     14.722     16.743
REMARK  10 active torsions:
REMARK  status: ('A' for Active; 'I' for Inactive)
REMARK    1  A    between atoms: C_2  and  C_1 
REMARK    2  A    between atoms: C_2  and  N_12 
REMARK    3  A    between atoms: C_3  and  C_2 
REMARK    4  A    between atoms: C_3  and  O_7 
REMARK    5  A    between atoms: C_4  and  C_3 
REMARK    6  A    between atoms: C_4  and  O_8 
REMARK    7  A    between atoms: C_5  and  C_4 
REMARK    8  A    between atoms: C_5  and  O_9 
REMARK    9  A    between atoms: C_10  and  C_5 
REMARK   10  A    between atoms: C_10  and  O_11 
REMARK       I    between atoms: N_12  and  C_13 
ROOT
HETATM    1  C   UNK N   1      34.700  15.447  11.258  0.00  0.00     0.178 C 
ENDROOT
BRANCH   1   2
HETATM    2  C   UNK N   1      35.613  14.245  11.588  0.00  0.00     0.177 C 
BRANCH   2   3
HETATM    3  C   UNK N   1      35.721  14.044  13.081  0.00  0.00     0.258 C 
HETATM    4  O   UNK N   1      34.808  13.520  13.699  0.00  0.00    -0.305 OA
ENDBRANCH   2   3
BRANCH   2   5
HETATM    5  N   UNK N   1      36.922  14.421  10.985  0.00  0.00    -0.348 N 
HETATM    6  C   UNK N   1      37.666  13.403  10.479  0.00  0.00     0.214 C 
HETATM    7  O   UNK N   1      37.291  12.245  10.567  0.00  0.00    -0.274 OA
HETATM    8  C   UNK N   1      38.956  13.708   9.799  0.00  0.00     0.117 C 
HETATM    9  H   UNK N   1      37.293  15.333  10.940  0.00  0.00     0.163 HD
ENDBRANCH   2   5
ENDBRANCH   1   2
BRANCH   1  10
HETATM   10  O   UNK N   1      33.380  15.001  11.139  0.00  0.00    -0.390 OA
HETATM   11  H   UNK N   1      32.840  14.661  11.870  0.00  0.00     0.210 HD
ENDBRANCH   1  10
BRANCH   1  12
HETATM   12  C   UNK N   1      35.126  16.150   9.958  0.00  0.00     0.180 C 
BRANCH  12  13
HETATM   13  O   UNK N   1      35.630  17.422  10.249  0.00  0.00    -0.390 OA
HETATM   14  H   UNK N   1      35.570  17.965  11.051  0.00  0.00     0.210 HD
ENDBRANCH  12  13
BRANCH  12  15
HETATM   15  C   UNK N   1      33.982  16.257   8.940  0.00  0.00     0.173 C 
BRANCH  15  16
HETATM   16  O   UNK N   1      33.012  17.175   9.351  0.00  0.00    -0.391 OA
HETATM   17  H   UNK N   1      32.582  17.888   9.849  0.00  0.00     0.210 HD
ENDBRANCH  15  16
BRANCH  15  18
HETATM   18  C   UNK N   1      34.479  16.591   7.538  0.00  0.00     0.198 C 
BRANCH  18  19
HETATM   19  O   UNK N   1      34.640  17.968   7.375  0.00  0.00    -0.398 OA
HETATM   20  H   UNK N   1      34.678  18.511   6.571  0.00  0.00     0.209 HD
ENDBRANCH  18  19
ENDBRANCH  15  18
ENDBRANCH  12  15
ENDBRANCH   1  12
TORSDOF 10
ENDMDL
MODEL 5
REMARK VINA RESULT:      -4.9     11.889     14.360
REMARK  10 active torsions:
REMARK  status: ('A' for Active; 'I' for Inactive)
REMARK    1  A    between atoms: C_2  and  C_1 
REMARK    2  A    between atoms: C_2  and  N_12 
REMARK    3  A    between atoms: C_3  and  C_2 
REMARK    4  A    between atoms: C_3  and  O_7 
REMARK    5  A    between atoms: C_4  and  C_3 
REMARK    6  A    between atoms: C_4  and  O_8 
REMARK    7  A    between atoms: C_5  and  C_4 
REMARK    8  A    between atoms: C_5  and  O_9 
REMARK    9  A    between atoms: C_10  and  C_5 
REMARK   10  A    between atoms: C_10  and  O_11 
REMARK       I    between atoms: N_12  and  C_13 
ROOT
HETATM    1  C   UNK N   1      34.075  17.532   8.786  0.00  0.00     0.178 C 
ENDROOT
BRANCH   1   2
HETATM    2  C   UNK N   1      32.970  17.293   7.733  0.00  0.00     0.177 C 
BRANCH   2   3
HETATM    3  C   UNK N   1      33.459  17.647   6.349  0.00  0.00     0.258 C 
HETATM    4  O   UNK N   1      34.364  17.011   5.834  0.00  0.00    -0.305 OA
ENDBRANCH   2   3
BRANCH   2   5
HETATM    5  N   UNK N   1      31.772  18.039   8.075  0.00  0.00    -0.348 N 
HETATM    6  C   UNK N   1      30.773  17.551   8.855  0.00  0.00     0.214 C 
HETATM    7  O   UNK N   1      30.800  16.402   9.267  0.00  0.00    -0.274 OA
HETATM    8  C   UNK N   1      29.632  18.436   9.219  0.00  0.00     0.117 C 
HETATM    9  H   UNK N   1      31.679  18.953   7.720  0.00  0.00     0.163 HD
ENDBRANCH   2   5
ENDBRANCH   1   2
BRANCH   1  10
HETATM   10  O   UNK N   1      34.895  18.582   8.360  0.00  0.00    -0.390 OA
HETATM   11  H   UNK N   1      34.608  19.501   8.246  0.00  0.00     0.210 HD
ENDBRANCH   1  10
BRANCH   1  12
HETATM   12  C   UNK N   1      34.928  16.274   9.018  0.00  0.00     0.180 C 
BRANCH  12  13
HETATM   13  O   UNK N   1      34.310  15.165   8.430  0.00  0.00    -0.390 OA
HETATM   14  H   UNK N   1      34.644  14.509   7.799  0.00  0.00     0.210 HD
ENDBRANCH  12  13
BRANCH  12  15
HETATM   15  C   UNK N   1      35.192  16.002  10.506  0.00  0.00     0.173 C 
BRANCH  15  16
HETATM   16  O   UNK N   1      34.990  17.147  11.281  0.00  0.00    -0.391 OA
HETATM   17  H   UNK N   1      34.536  17.875  11.733  0.00  0.00     0.210 HD
ENDBRANCH  15  16
BRANCH  15  18
HETATM   18  C   UNK N   1      34.368  14.837  11.041  0.00  0.00     0.198 C 
BRANCH  18  19
HETATM   19  O   UNK N   1      33.003  15.129  11.010  0.00  0.00    -0.398 OA
HETATM   20  H   UNK N   1      32.446  15.475  10.294  0.00  0.00     0.209 HD
ENDBRANCH  18  19
ENDBRANCH  15  18
ENDBRANCH  12  15
ENDBRANCH   1  12
TORSDOF 10
ENDMDL
MODEL 6
REMARK VINA RESULT:      -4.9     13.156     15.529
REMARK  10 active torsions:
REMARK  status: ('A' for Active; 'I' for Inactive)
REMARK    1  A    between atoms: C_2  and  C_1 
REMARK    2  A    between atoms: C_2  and  N_12 
REMARK    3  A    between atoms: C_3  and  C_2 
REMARK    4  A    between atoms: C_3  and  O_7 
REMARK    5  A    between atoms: C_4  and  C_3 
REMARK    6  A    between atoms: C_4  and  O_8 
REMARK    7  A    between atoms: C_5  and  C_4 
REMARK    8  A    between atoms: C_5  and  O_9 
REMARK    9  A    between atoms: C_10  and  C_5 
REMARK   10  A    between atoms: C_10  and  O_11 
REMARK       I    between atoms: N_12  and  C_13 
ROOT
HETATM    1  C   UNK N   1      34.965  16.642  10.020  0.00  0.00     0.178 C 
ENDROOT
BRANCH   1   2
HETATM    2  C   UNK N   1      34.588  16.900   8.545  0.00  0.00     0.177 C 
BRANCH   2   3
HETATM    3  C   UNK N   1      34.332  18.368   8.303  0.00  0.00     0.258 C 
HETATM    4  O   UNK N   1      35.256  19.166   8.326  0.00  0.00    -0.305 OA
ENDBRANCH   2   3
BRANCH   2   5
HETATM    5  N   UNK N   1      33.440  16.097   8.166  0.00  0.00    -0.348 N 
HETATM    6  C   UNK N   1      33.223  15.629   6.909  0.00  0.00     0.214 C 
HETATM    7  O   UNK N   1      33.971  15.924   5.991  0.00  0.00    -0.274 OA
HETATM    8  C   UNK N   1      32.060  14.736   6.652  0.00  0.00     0.117 C 
HETATM    9  H   UNK N   1      32.778  15.878   8.863  0.00  0.00     0.163 HD
ENDBRANCH   2   5
ENDBRANCH   1   2
BRANCH   1  10
HETATM   10  O   UNK N   1      35.881  17.614  10.437  0.00  0.00    -0.390 OA
HETATM   11  H   UNK N   1      35.962  18.502  10.054  0.00  0.00     0.210 HD
ENDBRANCH   1  10
BRANCH   1  12
HETATM   12  C   UNK N   1      35.572  15.243  10.221  0.00  0.00     0.180 C 
BRANCH  12  13
HETATM   13  O   UNK N   1      35.924  14.695   8.984  0.00  0.00    -0.390 OA
HETATM   14  H   UNK N   1      36.122  15.116   8.132  0.00  0.00     0.210 HD
ENDBRANCH  12  13
BRANCH  12  15
HETATM   15  C   UNK N   1      34.632  14.291  10.972  0.00  0.00     0.173 C 
BRANCH  15  16
HETATM   16  O   UNK N   1      33.402  14.893  11.247  0.00  0.00    -0.391 OA
HETATM   17  H   UNK N   1      32.443  15.032  11.292  0.00  0.00     0.210 HD
ENDBRANCH  15  16
BRANCH  15  18
HETATM   18  C   UNK N   1      34.433  12.969  10.238  0.00  0.00     0.198 C 
BRANCH  18  19
HETATM   19  O   UNK N   1      33.351  13.041   9.358  0.00  0.00    -0.398 OA
HETATM   20  H   UNK N   1      32.779  13.787   9.117  0.00  0.00     0.209 HD
ENDBRANCH  18  19
ENDBRANCH  15  18
ENDBRANCH  12  15
ENDBRANCH   1  12
TORSDOF 10
ENDMDL
MODEL 7
REMARK VINA RESULT:      -4.9     12.082     14.683
REMARK  10 active torsions:
REMARK  status: ('A' for Active; 'I' for Inactive)
REMARK    1  A    between atoms: C_2  and  C_1 
REMARK    2  A    between atoms: C_2  and  N_12 
REMARK    3  A    between atoms: C_3  and  C_2 
REMARK    4  A    between atoms: C_3  and  O_7 
REMARK    5  A    between atoms: C_4  and  C_3 
REMARK    6  A    between atoms: C_4  and  O_8 
REMARK    7  A    between atoms: C_5  and  C_4 
REMARK    8  A    between atoms: C_5  and  O_9 
REMARK    9  A    between atoms: C_10  and  C_5 
REMARK   10  A    between atoms: C_10  and  O_11 
REMARK       I    between atoms: N_12  and  C_13 
ROOT
HETATM    1  C   UNK N   1      32.748  15.788   9.096  0.00  0.00     0.178 C 
ENDROOT
BRANCH   1   2
HETATM    2  C   UNK N   1      32.269  17.125   8.488  0.00  0.00     0.177 C 
BRANCH   2   3
HETATM    3  C   UNK N   1      30.867  17.451   8.942  0.00  0.00     0.258 C 
HETATM    4  O   UNK N   1      29.905  17.024   8.324  0.00  0.00    -0.305 OA
ENDBRANCH   2   3
BRANCH   2   5
HETATM    5  N   UNK N   1      32.358  17.086   7.040  0.00  0.00    -0.348 N 
HETATM    6  C   UNK N   1      33.448  17.490   6.336  0.00  0.00     0.214 C 
HETATM    7  O   UNK N   1      34.412  17.983   6.898  0.00  0.00    -0.274 OA
HETATM    8  C   UNK N   1      33.467  17.319   4.857  0.00  0.00     0.117 C 
HETATM    9  H   UNK N   1      31.582  16.746   6.537  0.00  0.00     0.163 HD
ENDBRANCH   2   5
ENDBRANCH   1   2
BRANCH   1  10
HETATM   10  O   UNK N   1      31.760  15.293   9.952  0.00  0.00    -0.390 OA
HETATM   11  H   UNK N   1      31.870  15.153  10.906  0.00  0.00     0.210 HD
ENDBRANCH   1  10
BRANCH   1  12
HETATM   12  C   UNK N   1      34.067  15.950   9.870  0.00  0.00     0.180 C 
BRANCH  12  13
HETATM   13  O   UNK N   1      34.489  17.282   9.818  0.00  0.00    -0.390 OA
HETATM   14  H   UNK N   1      34.529  17.966  10.505  0.00  0.00     0.210 HD
ENDBRANCH  12  13
BRANCH  12  15
HETATM   15  C   UNK N   1      35.177  15.025   9.352  0.00  0.00     0.173 C 
BRANCH  15  16
HETATM   16  O   UNK N   1      35.627  15.419   8.089  0.00  0.00    -0.391 OA
HETATM   17  H   UNK N   1      35.718  15.460   7.124  0.00  0.00     0.210 HD
ENDBRANCH  15  16
BRANCH  15  18
HETATM   18  C   UNK N   1      36.343  14.910  10.327  0.00  0.00     0.198 C 
BRANCH  18  19
HETATM   19  O   UNK N   1      36.785  16.170  10.734  0.00  0.00    -0.398 OA
HETATM   20  H   UNK N   1      37.615  16.444  11.157  0.00  0.00     0.209 HD
ENDBRANCH  18  19
ENDBRANCH  15  18
ENDBRANCH  12  15
ENDBRANCH   1  12
TORSDOF 10
ENDMDL
MODEL 8
REMARK VINA RESULT:      -4.8     14.754     16.567
REMARK  10 active torsions:
REMARK  status: ('A' for Active; 'I' for Inactive)
REMARK    1  A    between atoms: C_2  and  C_1 
REMARK    2  A    between atoms: C_2  and  N_12 
REMARK    3  A    between atoms: C_3  and  C_2 
REMARK    4  A    between atoms: C_3  and  O_7 
REMARK    5  A    between atoms: C_4  and  C_3 
REMARK    6  A    between atoms: C_4  and  O_8 
REMARK    7  A    between atoms: C_5  and  C_4 
REMARK    8  A    between atoms: C_5  and  O_9 
REMARK    9  A    between atoms: C_10  and  C_5 
REMARK   10  A    between atoms: C_10  and  O_11 
REMARK       I    between atoms: N_12  and  C_13 
ROOT
HETATM    1  C   UNK N   1      34.822  15.668  11.332  0.00  0.00     0.178 C 
ENDROOT
BRANCH   1   2
HETATM    2  C   UNK N   1      35.928  14.722  11.849  0.00  0.00     0.177 C 
BRANCH   2   3
HETATM    3  C   UNK N   1      36.579  13.979  10.706  0.00  0.00     0.258 C 
HETATM    4  O   UNK N   1      37.701  13.516  10.832  0.00  0.00    -0.305 OA
ENDBRANCH   2   3
BRANCH   2   5
HETATM    5  N   UNK N   1      35.390  13.803  12.835  0.00  0.00    -0.348 N 
HETATM    6  C   UNK N   1      35.801  13.756  14.130  0.00  0.00     0.214 C 
HETATM    7  O   UNK N   1      36.716  14.459  14.526  0.00  0.00    -0.274 OA
HETATM    8  C   UNK N   1      35.115  12.837  15.080  0.00  0.00     0.117 C 
HETATM    9  H   UNK N   1      34.686  13.176  12.549  0.00  0.00     0.163 HD
ENDBRANCH   2   5
ENDBRANCH   1   2
BRANCH   1  10
HETATM   10  O   UNK N   1      33.635  14.946  11.179  0.00  0.00    -0.390 OA
HETATM   11  H   UNK N   1      32.813  15.116  11.667  0.00  0.00     0.210 HD
ENDBRANCH   1  10
BRANCH   1  12
HETATM   12  C   UNK N   1      35.205  16.321   9.993  0.00  0.00     0.180 C 
BRANCH  12  13
HETATM   13  O   UNK N   1      35.616  17.640  10.206  0.00  0.00    -0.390 OA
HETATM   14  H   UNK N   1      35.148  18.482  10.086  0.00  0.00     0.210 HD
ENDBRANCH  12  13
BRANCH  12  15
HETATM   15  C   UNK N   1      34.063  16.284   8.967  0.00  0.00     0.173 C 
BRANCH  15  16
HETATM   16  O   UNK N   1      33.008  17.118   9.343  0.00  0.00    -0.391 OA
HETATM   17  H   UNK N   1      32.157  17.584   9.314  0.00  0.00     0.210 HD
ENDBRANCH  15  16
BRANCH  15  18
HETATM   18  C   UNK N   1      34.536  16.615   7.556  0.00  0.00     0.198 C 
BRANCH  18  19
HETATM   19  O   UNK N   1      34.617  17.995   7.363  0.00  0.00    -0.398 OA
HETATM   20  H   UNK N   1      35.355  18.550   7.065  0.00  0.00     0.209 HD
ENDBRANCH  18  19
ENDBRANCH  15  18
ENDBRANCH  12  15
ENDBRANCH   1  12
TORSDOF 10
ENDMDL
MODEL 9
REMARK VINA RESULT:      -4.8     14.137     16.617
REMARK  10 active torsions:
REMARK  status: ('A' for Active; 'I' for Inactive)
REMARK    1  A    between atoms: C_2  and  C_1 
REMARK    2  A    between atoms: C_2  and  N_12 
REMARK    3  A    between atoms: C_3  and  C_2 
REMARK    4  A    between atoms: C_3  and  O_7 
REMARK    5  A    between atoms: C_4  and  C_3 
REMARK    6  A    between atoms: C_4  and  O_8 
REMARK    7  A    between atoms: C_5  and  C_4 
REMARK    8  A    between atoms: C_5  and  O_9 
REMARK    9  A    between atoms: C_10  and  C_5 
REMARK   10  A    between atoms: C_10  and  O_11 
REMARK       I    between atoms: N_12  and  C_13 
ROOT
HETATM    1  C   UNK N   1      33.931  14.575  10.092  0.00  0.00     0.178 C 
ENDROOT
BRANCH   1   2
HETATM    2  C   UNK N   1      34.757  15.698   9.428  0.00  0.00     0.177 C 
BRANCH   2   3
HETATM    3  C   UNK N   1      35.382  16.595  10.469  0.00  0.00     0.258 C 
HETATM    4  O   UNK N   1      36.569  16.493  10.737  0.00  0.00    -0.305 OA
ENDBRANCH   2   3
BRANCH   2   5
HETATM    5  N   UNK N   1      33.932  16.458   8.506  0.00  0.00    -0.348 N 
HETATM    6  C   UNK N   1      34.180  16.559   7.174  0.00  0.00     0.214 C 
HETATM    7  O   UNK N   1      35.176  16.055   6.680  0.00  0.00    -0.274 OA
HETATM    8  C   UNK N   1      33.216  17.288   6.304  0.00  0.00     0.117 C 
HETATM    9  H   UNK N   1      33.146  16.929   8.868  0.00  0.00     0.163 HD
ENDBRANCH   2   5
ENDBRANCH   1   2
BRANCH   1  10
HETATM   10  O   UNK N   1      33.216  15.107  11.170  0.00  0.00    -0.390 OA
HETATM   11  H   UNK N   1      32.658  14.594  11.775  0.00  0.00     0.210 HD
ENDBRANCH   1  10
BRANCH   1  12
HETATM   12  C   UNK N   1      34.822  13.422  10.585  0.00  0.00     0.180 C 
BRANCH  12  13
HETATM   13  O   UNK N   1      34.178  12.199  10.372  0.00  0.00    -0.390 OA
HETATM   14  H   UNK N   1      34.034  11.443  10.962  0.00  0.00     0.210 HD
ENDBRANCH  12  13
BRANCH  12  15
HETATM   15  C   UNK N   1      35.211  13.563  12.063  0.00  0.00     0.173 C 
BRANCH  15  16
HETATM   16  O   UNK N   1      34.340  12.853  12.893  0.00  0.00    -0.391 OA
HETATM   17  H   UNK N   1      33.546  12.386  13.198  0.00  0.00     0.210 HD
ENDBRANCH  15  16
BRANCH  15  18
HETATM   18  C   UNK N   1      36.657  13.157  12.327  0.00  0.00     0.198 C 
BRANCH  18  19
HETATM   19  O   UNK N   1      37.534  13.848  11.488  0.00  0.00    -0.398 OA
HETATM   20  H   UNK N   1      37.360  14.423  10.726  0.00  0.00     0.209 HD
ENDBRANCH  18  19
ENDBRANCH  15  18
ENDBRANCH  12  15
ENDBRANCH   1  12
TORSDOF 10
ENDMDL
