MODEL 1
REMARK VINA RESULT:      -7.3      0.000      0.000
REMARK  6 active torsions:
REMARK  status: ('A' for Active; 'I' for Inactive)
REMARK    1  A    between atoms: C_2  and  C_15 
REMARK    2  A    between atoms: C_8  and  C_7 
REMARK    3  A    between atoms: O_16  and  C_7 
REMARK    4  A    between atoms: C_10  and  C_9 
REMARK    5  A    between atoms: C_12  and  C_11 
REMARK    6  A    between atoms: C_14  and  C_13 
ROOT
HETATM    1  C   UNK N   1      35.051  13.361  11.903  0.00  0.00     0.007 C 
HETATM    2  C   UNK N   1      35.589  13.699  13.090  0.00  0.00    -0.062 C 
HETATM    3  C   UNK N   1      36.313  14.997  13.263  0.00  0.00     0.048 C 
ENDROOT
BRANCH   2   4
HETATM    4  C   UNK N   1      35.507  12.808  14.263  0.00  0.00     0.007 C 
HETATM    5  C   UNK N   1      35.530  13.245  15.526  0.00  0.00     0.009 C 
BRANCH   5   6
HETATM    6  C   UNK N   1      35.393  12.329  16.700  0.00  0.00    -0.048 C 
HETATM    7  C   UNK N   1      35.368  10.802  16.503  0.00  0.00    -0.020 C 
HETATM    8  C   UNK N   1      34.288  10.408  15.508  0.00  0.00     0.020 C 
HETATM    9  C   UNK N   1      36.713  10.333  15.972  0.00  0.00     0.020 C 
HETATM   10  C   UNK N   1      35.050  10.031  17.787  0.00  0.00     0.014 C 
HETATM   11  C   UNK N   1      35.761  10.632  18.978  0.00  0.00     0.005 C 
HETATM   12  C   UNK N   1      35.211  12.033  19.188  0.00  0.00     0.034 C 
HETATM   13  C   UNK N   1      35.307  12.878  17.944  0.00  0.00    -0.077 C 
HETATM   14  C   UNK N   1      35.325  14.363  18.134  0.00  0.00     0.044 C 
ENDBRANCH   5   6
ENDBRANCH   2   4
BRANCH   1  15
HETATM   15  C   UNK N   1      35.172  14.255  10.741  0.00  0.00     0.001 C 
HETATM   16  C   UNK N   1      34.162  15.005  10.301  0.00  0.00     0.006 C 
BRANCH  16  17
HETATM   17  C   UNK N   1      34.351  15.888   9.131  0.00  0.00    -0.064 C 
HETATM   18  C   UNK N   1      34.291  17.214   9.296  0.00  0.00     0.005 C 
HETATM   19  C   UNK N   1      34.652  15.297   7.781  0.00  0.00     0.048 C 
BRANCH  18  20
HETATM   20  C   UNK N   1      34.514  18.169   8.163  0.00  0.00     0.192 C 
BRANCH  20  21
HETATM   21  O   UNK N   1      35.338  19.214   8.577  0.00  0.00    -0.397 OA
HETATM   22  H   UNK N   1      35.928  19.167   9.346  0.00  0.00     0.209 HD
ENDBRANCH  20  21
ENDBRANCH  18  20
ENDBRANCH  16  17
ENDBRANCH   1  15
TORSDOF 6
ENDMDL
MODEL 2
REMARK VINA RESULT:      -7.2      9.967     14.120
REMARK  6 active torsions:
REMARK  status: ('A' for Active; 'I' for Inactive)
REMARK    1  A    between atoms: C_2  and  C_15 
REMARK    2  A    between atoms: C_8  and  C_7 
REMARK    3  A    between atoms: O_16  and  C_7 
REMARK    4  A    between atoms: C_10  and  C_9 
REMARK    5  A    between atoms: C_12  and  C_11 
REMARK    6  A    between atoms: C_14  and  C_13 
ROOT
HETATM    1  C   UNK N   1      25.127  18.984   4.487  0.00  0.00     0.007 C 
HETATM    2  C   UNK N   1      26.336  19.510   4.212  0.00  0.00    -0.062 C 
HETATM    3  C   UNK N   1      26.490  20.578   3.175  0.00  0.00     0.048 C 
ENDROOT
BRANCH   2   4
HETATM    4  C   UNK N   1      27.557  19.054   4.903  0.00  0.00     0.007 C 
HETATM    5  C   UNK N   1      27.581  18.032   5.763  0.00  0.00     0.009 C 
BRANCH   5   6
HETATM    6  C   UNK N   1      28.839  17.552   6.413  0.00  0.00    -0.048 C 
HETATM    7  C   UNK N   1      29.802  16.615   5.660  0.00  0.00    -0.020 C 
HETATM    8  C   UNK N   1      29.067  15.383   5.159  0.00  0.00     0.020 C 
HETATM    9  C   UNK N   1      30.396  17.345   4.466  0.00  0.00     0.020 C 
HETATM   10  C   UNK N   1      30.944  16.091   6.534  0.00  0.00     0.014 C 
HETATM   11  C   UNK N   1      31.489  17.176   7.434  0.00  0.00     0.005 C 
HETATM   12  C   UNK N   1      30.383  17.580   8.395  0.00  0.00     0.034 C 
HETATM   13  C   UNK N   1      29.119  17.976   7.678  0.00  0.00    -0.077 C 
HETATM   14  C   UNK N   1      28.178  18.882   8.412  0.00  0.00     0.044 C 
ENDBRANCH   5   6
ENDBRANCH   2   4
BRANCH   1  15
HETATM   15  C   UNK N   1      23.928  19.436   3.763  0.00  0.00     0.001 C 
HETATM   16  C   UNK N   1      22.763  18.793   3.827  0.00  0.00     0.006 C 
BRANCH  16  17
HETATM   17  C   UNK N   1      21.594  19.304   3.082  0.00  0.00    -0.064 C 
HETATM   18  C   UNK N   1      21.753  20.330   2.238  0.00  0.00     0.005 C 
HETATM   19  C   UNK N   1      20.251  18.644   3.241  0.00  0.00     0.048 C 
BRANCH  18  20
HETATM   20  C   UNK N   1      20.621  20.871   1.419  0.00  0.00     0.192 C 
BRANCH  20  21
HETATM   21  O   UNK N   1      20.931  20.786   0.064  0.00  0.00    -0.397 OA
HETATM   22  H   UNK N   1      21.542  20.133  -0.312  0.00  0.00     0.209 HD
ENDBRANCH  20  21
ENDBRANCH  18  20
ENDBRANCH  16  17
ENDBRANCH   1  15
TORSDOF 6
ENDMDL
MODEL 3
REMARK VINA RESULT:      -7.2      9.009     12.560
REMARK  6 active torsions:
REMARK  status: ('A' for Active; 'I' for Inactive)
REMARK    1  A    between atoms: C_2  and  C_15 
REMARK    2  A    between atoms: C_8  and  C_7 
REMARK    3  A    between atoms: O_16  and  C_7 
REMARK    4  A    between atoms: C_10  and  C_9 
REMARK    5  A    between atoms: C_12  and  C_11 
REMARK    6  A    between atoms: C_14  and  C_13 
ROOT
HETATM    1  C   UNK N   1      27.539  18.779   4.178  0.00  0.00     0.007 C 
HETATM    2  C   UNK N   1      28.024  17.931   5.105  0.00  0.00    -0.062 C 
HETATM    3  C   UNK N   1      27.144  16.895   5.732  0.00  0.00     0.048 C 
ENDROOT
BRANCH   2   4
HETATM    4  C   UNK N   1      29.428  17.991   5.555  0.00  0.00     0.007 C 
HETATM    5  C   UNK N   1      30.006  17.044   6.299  0.00  0.00     0.009 C 
BRANCH   5   6
HETATM    6  C   UNK N   1      31.445  17.099   6.702  0.00  0.00    -0.048 C 
HETATM    7  C   UNK N   1      32.545  16.601   5.745  0.00  0.00    -0.020 C 
HETATM    8  C   UNK N   1      32.264  15.174   5.303  0.00  0.00     0.020 C 
HETATM    9  C   UNK N   1      32.592  17.490   4.513  0.00  0.00     0.020 C 
HETATM   10  C   UNK N   1      33.935  16.571   6.384  0.00  0.00     0.014 C 
HETATM   11  C   UNK N   1      34.171  17.793   7.242  0.00  0.00     0.005 C 
HETATM   12  C   UNK N   1      33.183  17.747   8.396  0.00  0.00     0.034 C 
HETATM   13  C   UNK N   1      31.758  17.613   7.924  0.00  0.00    -0.077 C 
HETATM   14  C   UNK N   1      30.687  18.091   8.856  0.00  0.00     0.044 C 
ENDBRANCH   5   6
ENDBRANCH   2   4
BRANCH   1  15
HETATM   15  C   UNK N   1      26.127  18.717   3.767  0.00  0.00     0.001 C 
HETATM   16  C   UNK N   1      25.238  19.649   4.105  0.00  0.00     0.006 C 
BRANCH  16  17
HETATM   17  C   UNK N   1      23.835  19.532   3.654  0.00  0.00    -0.064 C 
HETATM   18  C   UNK N   1      23.293  20.522   2.936  0.00  0.00     0.005 C 
HETATM   19  C   UNK N   1      23.045  18.290   3.964  0.00  0.00     0.048 C 
BRANCH  18  20
HETATM   20  C   UNK N   1      21.892  20.452   2.411  0.00  0.00     0.192 C 
BRANCH  20  21
HETATM   21  O   UNK N   1      21.255  21.678   2.591  0.00  0.00    -0.397 OA
HETATM   22  H   UNK N   1      20.446  21.942   2.126  0.00  0.00     0.209 HD
ENDBRANCH  20  21
ENDBRANCH  18  20
ENDBRANCH  16  17
ENDBRANCH   1  15
TORSDOF 6
ENDMDL
MODEL 4
REMARK VINA RESULT:      -7.0     10.140     14.362
REMARK  6 active torsions:
REMARK  status: ('A' for Active; 'I' for Inactive)
REMARK    1  A    between atoms: C_2  and  C_15 
REMARK    2  A    between atoms: C_8  and  C_7 
REMARK    3  A    between atoms: O_16  and  C_7 
REMARK    4  A    between atoms: C_10  and  C_9 
REMARK    5  A    between atoms: C_12  and  C_11 
REMARK    6  A    between atoms: C_14  and  C_13 
ROOT
HETATM    1  C   UNK N   1      24.978  18.992   4.337  0.00  0.00     0.007 C 
HETATM    2  C   UNK N   1      26.155  19.620   4.156  0.00  0.00    -0.062 C 
HETATM    3  C   UNK N   1      26.303  20.690   3.120  0.00  0.00     0.048 C 
ENDROOT
BRANCH   2   4
HETATM    4  C   UNK N   1      27.348  19.278   4.953  0.00  0.00     0.007 C 
HETATM    5  C   UNK N   1      27.549  18.077   5.504  0.00  0.00     0.009 C 
BRANCH   5   6
HETATM    6  C   UNK N   1      28.790  17.735   6.265  0.00  0.00    -0.048 C 
HETATM    7  C   UNK N   1      28.844  17.913   7.794  0.00  0.00    -0.020 C 
HETATM    8  C   UNK N   1      28.466  19.333   8.182  0.00  0.00     0.020 C 
HETATM    9  C   UNK N   1      27.868  16.952   8.455  0.00  0.00     0.020 C 
HETATM   10  C   UNK N   1      30.238  17.679   8.382  0.00  0.00     0.014 C 
HETATM   11  C   UNK N   1      30.917  16.497   7.730  0.00  0.00     0.005 C 
HETATM   12  C   UNK N   1      31.136  16.837   6.265  0.00  0.00     0.034 C 
HETATM   13  C   UNK N   1      29.860  17.249   5.577  0.00  0.00    -0.077 C 
HETATM   14  C   UNK N   1      29.809  17.083   4.089  0.00  0.00     0.044 C 
ENDBRANCH   5   6
ENDBRANCH   2   4
BRANCH   1  15
HETATM   15  C   UNK N   1      23.809  19.332   3.509  0.00  0.00     0.001 C 
HETATM   16  C   UNK N   1      22.557  19.115   3.908  0.00  0.00     0.006 C 
BRANCH  16  17
HETATM   17  C   UNK N   1      21.426  19.486   3.032  0.00  0.00    -0.064 C 
HETATM   18  C   UNK N   1      21.551  20.536   2.212  0.00  0.00     0.005 C 
HETATM   19  C   UNK N   1      20.168  18.662   3.034  0.00  0.00     0.048 C 
BRANCH  18  20
HETATM   20  C   UNK N   1      20.462  20.944   1.267  0.00  0.00     0.192 C 
BRANCH  20  21
HETATM   21  O   UNK N   1      20.763  20.510  -0.022  0.00  0.00    -0.397 OA
HETATM   22  H   UNK N   1      20.106  20.164  -0.645  0.00  0.00     0.209 HD
ENDBRANCH  20  21
ENDBRANCH  18  20
ENDBRANCH  16  17
ENDBRANCH   1  15
TORSDOF 6
ENDMDL
MODEL 5
REMARK VINA RESULT:      -6.7      8.684     12.618
REMARK  6 active torsions:
REMARK  status: ('A' for Active; 'I' for Inactive)
REMARK    1  A    between atoms: C_2  and  C_15 
REMARK    2  A    between atoms: C_8  and  C_7 
REMARK    3  A    between atoms: O_16  and  C_7 
REMARK    4  A    between atoms: C_10  and  C_9 
REMARK    5  A    between atoms: C_12  and  C_11 
REMARK    6  A    between atoms: C_14  and  C_13 
ROOT
HETATM    1  C   UNK N   1      27.549  19.300   4.504  0.00  0.00     0.007 C 
HETATM    2  C   UNK N   1      28.319  18.201   4.620  0.00  0.00    -0.062 C 
HETATM    3  C   UNK N   1      27.849  16.877   4.103  0.00  0.00     0.048 C 
ENDROOT
BRANCH   2   4
HETATM    4  C   UNK N   1      29.643  18.245   5.269  0.00  0.00     0.007 C 
HETATM    5  C   UNK N   1      30.231  17.178   5.820  0.00  0.00     0.009 C 
BRANCH   5   6
HETATM    6  C   UNK N   1      31.596  17.232   6.427  0.00  0.00    -0.048 C 
HETATM    7  C   UNK N   1      31.773  17.204   7.957  0.00  0.00    -0.020 C 
HETATM    8  C   UNK N   1      30.955  18.304   8.612  0.00  0.00     0.020 C 
HETATM    9  C   UNK N   1      31.307  15.862   8.501  0.00  0.00     0.020 C 
HETATM   10  C   UNK N   1      33.219  17.439   8.404  0.00  0.00     0.014 C 
HETATM   11  C   UNK N   1      34.195  16.707   7.512  0.00  0.00     0.005 C 
HETATM   12  C   UNK N   1      34.088  17.305   6.119  0.00  0.00     0.034 C 
HETATM   13  C   UNK N   1      32.674  17.291   5.597  0.00  0.00    -0.077 C 
HETATM   14  C   UNK N   1      32.500  17.327   4.110  0.00  0.00     0.044 C 
ENDBRANCH   5   6
ENDBRANCH   2   4
BRANCH   1  15
HETATM   15  C   UNK N   1      26.220  19.225   3.878  0.00  0.00     0.001 C 
HETATM   16  C   UNK N   1      25.092  19.433   4.555  0.00  0.00     0.006 C 
BRANCH  16  17
HETATM   17  C   UNK N   1      23.787  19.349   3.865  0.00  0.00    -0.064 C 
HETATM   18  C   UNK N   1      23.365  20.388   3.135  0.00  0.00     0.005 C 
HETATM   19  C   UNK N   1      22.969  18.090   3.950  0.00  0.00     0.048 C 
BRANCH  18  20
HETATM   20  C   UNK N   1      22.074  20.356   2.376  0.00  0.00     0.192 C 
BRANCH  20  21
HETATM   21  O   UNK N   1      21.369  21.539   2.588  0.00  0.00    -0.397 OA
HETATM   22  H   UNK N   1      20.450  21.574   2.895  0.00  0.00     0.209 HD
ENDBRANCH  20  21
ENDBRANCH  18  20
ENDBRANCH  16  17
ENDBRANCH   1  15
TORSDOF 6
ENDMDL
MODEL 6
REMARK VINA RESULT:      -6.7      4.175     10.031
REMARK  6 active torsions:
REMARK  status: ('A' for Active; 'I' for Inactive)
REMARK    1  A    between atoms: C_2  and  C_15 
REMARK    2  A    between atoms: C_8  and  C_7 
REMARK    3  A    between atoms: O_16  and  C_7 
REMARK    4  A    between atoms: C_10  and  C_9 
REMARK    5  A    between atoms: C_12  and  C_11 
REMARK    6  A    between atoms: C_14  and  C_13 
ROOT
HETATM    1  C   UNK N   1      33.597  15.136   9.539  0.00  0.00     0.007 C 
HETATM    2  C   UNK N   1      33.694  16.406   9.102  0.00  0.00    -0.062 C 
HETATM    3  C   UNK N   1      34.906  17.231   9.406  0.00  0.00     0.048 C 
ENDROOT
BRANCH   2   4
HETATM    4  C   UNK N   1      32.617  17.045   8.323  0.00  0.00     0.007 C 
HETATM    5  C   UNK N   1      31.346  16.630   8.341  0.00  0.00     0.009 C 
BRANCH   5   6
HETATM    6  C   UNK N   1      30.260  17.323   7.584  0.00  0.00    -0.048 C 
HETATM    7  C   UNK N   1      30.046  17.039   6.085  0.00  0.00    -0.020 C 
HETATM    8  C   UNK N   1      31.334  17.260   5.309  0.00  0.00     0.020 C 
HETATM    9  C   UNK N   1      29.606  15.596   5.896  0.00  0.00     0.020 C 
HETATM   10  C   UNK N   1      29.008  17.959   5.436  0.00  0.00     0.014 C 
HETATM   11  C   UNK N   1      27.820  18.173   6.346  0.00  0.00     0.005 C 
HETATM   12  C   UNK N   1      28.310  18.907   7.583  0.00  0.00     0.034 C 
HETATM   13  C   UNK N   1      29.457  18.196   8.254  0.00  0.00    -0.077 C 
HETATM   14  C   UNK N   1      29.670  18.477   9.709  0.00  0.00     0.044 C 
ENDBRANCH   5   6
ENDBRANCH   2   4
BRANCH   1  15
HETATM   15  C   UNK N   1      34.674  14.531  10.338  0.00  0.00     0.001 C 
HETATM   16  C   UNK N   1      34.662  14.519  11.670  0.00  0.00     0.006 C 
BRANCH  16  17
HETATM   17  C   UNK N   1      35.772  13.888  12.415  0.00  0.00    -0.064 C 
HETATM   18  C   UNK N   1      35.695  13.794  13.748  0.00  0.00     0.005 C 
HETATM   19  C   UNK N   1      36.951  13.321  11.673  0.00  0.00     0.048 C 
BRANCH  18  20
HETATM   20  C   UNK N   1      36.763  13.130  14.562  0.00  0.00     0.192 C 
BRANCH  20  21
HETATM   21  O   UNK N   1      37.502  14.090  15.250  0.00  0.00    -0.397 OA
HETATM   22  H   UNK N   1      38.226  14.601  14.856  0.00  0.00     0.209 HD
ENDBRANCH  20  21
ENDBRANCH  18  20
ENDBRANCH  16  17
ENDBRANCH   1  15
TORSDOF 6
ENDMDL
MODEL 7
REMARK VINA RESULT:      -6.7      4.024      6.700
REMARK  6 active torsions:
REMARK  status: ('A' for Active; 'I' for Inactive)
REMARK    1  A    between atoms: C_2  and  C_15 
REMARK    2  A    between atoms: C_8  and  C_7 
REMARK    3  A    between atoms: O_16  and  C_7 
REMARK    4  A    between atoms: C_10  and  C_9 
REMARK    5  A    between atoms: C_12  and  C_11 
REMARK    6  A    between atoms: C_14  and  C_13 
ROOT
HETATM    1  C   UNK N   1      35.198  11.019  18.228  0.00  0.00     0.007 C 
HETATM    2  C   UNK N   1      34.872   9.713  18.247  0.00  0.00    -0.062 C 
HETATM    3  C   UNK N   1      35.012   8.868  17.020  0.00  0.00     0.048 C 
ENDROOT
BRANCH   2   4
HETATM    4  C   UNK N   1      34.351   9.060  19.464  0.00  0.00     0.007 C 
HETATM    5  C   UNK N   1      33.052   9.003  19.773  0.00  0.00     0.009 C 
BRANCH   5   6
HETATM    6  C   UNK N   1      32.541   8.292  20.985  0.00  0.00    -0.048 C 
HETATM    7  C   UNK N   1      32.210   6.788  20.929  0.00  0.00    -0.020 C 
HETATM    8  C   UNK N   1      31.234   6.497  19.801  0.00  0.00     0.020 C 
HETATM    9  C   UNK N   1      33.483   5.994  20.687  0.00  0.00     0.020 C 
HETATM   10  C   UNK N   1      31.540   6.268  22.203  0.00  0.00     0.014 C 
HETATM   11  C   UNK N   1      32.177   6.861  23.439  0.00  0.00     0.005 C 
HETATM   12  C   UNK N   1      31.924   8.359  23.419  0.00  0.00     0.034 C 
HETATM   13  C   UNK N   1      32.391   9.001  22.138  0.00  0.00    -0.077 C 
HETATM   14  C   UNK N   1      32.707  10.464  22.190  0.00  0.00     0.044 C 
ENDBRANCH   5   6
ENDBRANCH   2   4
BRANCH   1  15
HETATM   15  C   UNK N   1      35.689  11.653  16.993  0.00  0.00     0.001 C 
HETATM   16  C   UNK N   1      35.086  12.701  16.434  0.00  0.00     0.006 C 
BRANCH  16  17
HETATM   17  C   UNK N   1      35.634  13.296  15.197  0.00  0.00    -0.064 C 
HETATM   18  C   UNK N   1      35.035  13.042  14.027  0.00  0.00     0.005 C 
HETATM   19  C   UNK N   1      36.824  14.213  15.264  0.00  0.00     0.048 C 
BRANCH  18  20
HETATM   20  C   UNK N   1      35.511  13.644  12.741  0.00  0.00     0.192 C 
BRANCH  20  21
HETATM   21  O   UNK N   1      34.423  14.087  11.992  0.00  0.00    -0.397 OA
HETATM   22  H   UNK N   1      34.477  14.777  11.313  0.00  0.00     0.209 HD
ENDBRANCH  20  21
ENDBRANCH  18  20
ENDBRANCH  16  17
ENDBRANCH   1  15
TORSDOF 6
ENDMDL
MODEL 8
REMARK VINA RESULT:      -6.7     18.998     22.959
REMARK  6 active torsions:
REMARK  status: ('A' for Active; 'I' for Inactive)
REMARK    1  A    between atoms: C_2  and  C_15 
REMARK    2  A    between atoms: C_8  and  C_7 
REMARK    3  A    between atoms: O_16  and  C_7 
REMARK    4  A    between atoms: C_10  and  C_9 
REMARK    5  A    between atoms: C_12  and  C_11 
REMARK    6  A    between atoms: C_14  and  C_13 
ROOT
HETATM    1  C   UNK N   1      30.777  23.415  -4.232  0.00  0.00     0.007 C 
HETATM    2  C   UNK N   1      29.769  23.607  -3.362  0.00  0.00    -0.062 C 
HETATM    3  C   UNK N   1      29.750  22.904  -2.040  0.00  0.00     0.048 C 
ENDROOT
BRANCH   2   4
HETATM    4  C   UNK N   1      28.636  24.500  -3.670  0.00  0.00     0.007 C 
HETATM    5  C   UNK N   1      28.627  25.354  -4.699  0.00  0.00     0.009 C 
BRANCH   5   6
HETATM    6  C   UNK N   1      27.448  26.214  -5.024  0.00  0.00    -0.048 C 
HETATM    7  C   UNK N   1      26.275  25.654  -5.851  0.00  0.00    -0.020 C 
HETATM    8  C   UNK N   1      26.775  25.073  -7.164  0.00  0.00     0.020 C 
HETATM    9  C   UNK N   1      25.577  24.553  -5.068  0.00  0.00     0.020 C 
HETATM   10  C   UNK N   1      25.242  26.716  -6.234  0.00  0.00     0.014 C 
HETATM   11  C   UNK N   1      24.978  27.663  -5.085  0.00  0.00     0.005 C 
HETATM   12  C   UNK N   1      26.266  28.419  -4.803  0.00  0.00     0.034 C 
HETATM   13  C   UNK N   1      27.431  27.494  -4.560  0.00  0.00    -0.077 C 
HETATM   14  C   UNK N   1      28.575  28.040  -3.763  0.00  0.00     0.044 C 
ENDBRANCH   5   6
ENDBRANCH   2   4
BRANCH   1  15
HETATM   15  C   UNK N   1      31.882  22.496  -3.912  0.00  0.00     0.001 C 
HETATM   16  C   UNK N   1      31.963  21.265  -4.414  0.00  0.00     0.006 C 
BRANCH  16  17
HETATM   17  C   UNK N   1      33.103  20.394  -4.058  0.00  0.00    -0.064 C 
HETATM   18  C   UNK N   1      33.123  19.130  -4.496  0.00  0.00     0.005 C 
HETATM   19  C   UNK N   1      34.246  20.942  -3.249  0.00  0.00     0.048 C 
BRANCH  18  20
HETATM   20  C   UNK N   1      34.265  18.204  -4.209  0.00  0.00     0.192 C 
BRANCH  20  21
HETATM   21  O   UNK N   1      33.887  17.265  -3.252  0.00  0.00    -0.397 OA
HETATM   22  H   UNK N   1      34.102  16.321  -3.304  0.00  0.00     0.209 HD
ENDBRANCH  20  21
ENDBRANCH  18  20
ENDBRANCH  16  17
ENDBRANCH   1  15
TORSDOF 6
ENDMDL
MODEL 9
REMARK VINA RESULT:      -6.7      3.784      6.674
REMARK  6 active torsions:
REMARK  status: ('A' for Active; 'I' for Inactive)
REMARK    1  A    between atoms: C_2  and  C_15 
REMARK    2  A    between atoms: C_8  and  C_7 
REMARK    3  A    between atoms: O_16  and  C_7 
REMARK    4  A    between atoms: C_10  and  C_9 
REMARK    5  A    between atoms: C_12  and  C_11 
REMARK    6  A    between atoms: C_14  and  C_13 
ROOT
HETATM    1  C   UNK N   1      35.329  10.473  17.345  0.00  0.00     0.007 C 
HETATM    2  C   UNK N   1      35.082  10.707  18.647  0.00  0.00    -0.062 C 
HETATM    3  C   UNK N   1      35.406  12.032  19.263  0.00  0.00     0.048 C 
ENDROOT
BRANCH   2   4
HETATM    4  C   UNK N   1      34.498   9.676  19.526  0.00  0.00     0.007 C 
HETATM    5  C   UNK N   1      33.633   8.749  19.103  0.00  0.00     0.009 C 
BRANCH   5   6
HETATM    6  C   UNK N   1      33.092   7.681  19.998  0.00  0.00    -0.048 C 
HETATM    7  C   UNK N   1      31.851   7.945  20.872  0.00  0.00    -0.020 C 
HETATM    8  C   UNK N   1      32.057   9.181  21.733  0.00  0.00     0.020 C 
HETATM    9  C   UNK N   1      30.639   8.169  19.983  0.00  0.00     0.020 C 
HETATM   10  C   UNK N   1      31.543   6.806  21.847  0.00  0.00     0.014 C 
HETATM   11  C   UNK N   1      31.739   5.457  21.194  0.00  0.00     0.005 C 
HETATM   12  C   UNK N   1      33.212   5.319  20.847  0.00  0.00     0.034 C 
HETATM   13  C   UNK N   1      33.712   6.468  20.009  0.00  0.00    -0.077 C 
HETATM   14  C   UNK N   1      34.923   6.214  19.165  0.00  0.00     0.044 C 
ENDBRANCH   5   6
ENDBRANCH   2   4
BRANCH   1  15
HETATM   15  C   UNK N   1      35.938  11.509  16.496  0.00  0.00     0.001 C 
HETATM   16  C   UNK N   1      35.216  12.364  15.773  0.00  0.00     0.006 C 
BRANCH  16  17
HETATM   17  C   UNK N   1      35.890  13.387  14.946  0.00  0.00    -0.064 C 
HETATM   18  C   UNK N   1      35.545  13.520  13.660  0.00  0.00     0.005 C 
HETATM   19  C   UNK N   1      36.918  14.296  15.561  0.00  0.00     0.048 C 
BRANCH  18  20
HETATM   20  C   UNK N   1      36.156  14.562  12.774  0.00  0.00     0.192 C 
BRANCH  20  21
HETATM   21  O   UNK N   1      37.177  13.999  12.012  0.00  0.00    -0.397 OA
HETATM   22  H   UNK N   1      38.115  14.026  12.257  0.00  0.00     0.209 HD
ENDBRANCH  20  21
ENDBRANCH  18  20
ENDBRANCH  16  17
ENDBRANCH   1  15
TORSDOF 6
ENDMDL
