MODEL 1
REMARK VINA RESULT:      -7.5      0.000      0.000
REMARK  6 active torsions:
REMARK  status: ('A' for Active; 'I' for Inactive)
REMARK    1  A    between atoms: C_24  and  O_1 
REMARK    2  A    between atoms: C_3  and  C_8 
REMARK    3  A    between atoms: C_8  and  C_14 
REMARK    4  A    between atoms: C_15  and  C_17 
REMARK    5  A    between atoms: C_16  and  C_18 
REMARK    6  A    between atoms: C_18  and  C_20 
ROOT
HETATM    1  C   UNK N   1      35.874  11.688  15.289  0.00  0.00    -0.032 C 
HETATM    2  C   UNK N   1      36.445  10.494  14.509  0.00  0.00     0.002 C 
HETATM    3  C   UNK N   1      35.752  11.050  16.684  0.00  0.00     0.023 C 
HETATM    4  C   UNK N   1      35.527   9.347  14.970  0.00  0.00     0.007 C 
HETATM    5  C   UNK N   1      34.971   9.786  16.349  0.00  0.00     0.010 C 
HETATM    6  C   UNK N   1      36.747  12.944  15.386  0.00  0.00     0.010 C 
HETATM    7  C   UNK N   1      35.227  12.047  17.709  0.00  0.00    -0.075 C 
HETATM    8  C   UNK N   1      34.498  12.101  14.713  0.00  0.00     0.016 C 
HETATM    9  C   UNK N   1      36.185  13.959  16.418  0.00  0.00     0.005 C 
HETATM   10  C   UNK N   1      34.966  13.445  17.216  0.00  0.00     0.034 C 
HETATM   11  C   UNK N   1      35.184  11.895  19.041  0.00  0.00     0.004 C 
ENDROOT
BRANCH  11  12
HETATM   12  C   UNK N   1      35.465  10.875  20.091  0.00  0.00     0.008 C 
HETATM   13  C   UNK N   1      34.894   9.753  20.545  0.00  0.00    -0.050 C 
HETATM   14  C   UNK N   1      35.485   9.139  21.780  0.00  0.00     0.070 C 
HETATM   15  C   UNK N   1      33.610   9.201  20.097  0.00  0.00    -0.061 C 
HETATM   16  C   UNK N   1      34.448   9.133  22.903  0.00  0.00     0.122 C 
HETATM   17  C   UNK N   1      33.166   8.421  22.444  0.00  0.00     0.036 C 
HETATM   18  C   UNK N   1      32.572   9.052  21.174  0.00  0.00     0.041 C 
HETATM   19  C   UNK N   1      33.660   8.220  19.196  0.00  0.00     0.019 C 
BRANCH  16  20
HETATM   20  O   UNK N   1      34.164  10.441  23.304  0.00  0.00    -0.395 OA
HETATM   21  H   UNK N   1      33.903  11.340  23.049  0.00  0.00     0.210 HD
ENDBRANCH  16  20
ENDBRANCH  11  12
BRANCH   2  22
HETATM   22  C   UNK N   1      36.609  10.614  12.975  0.00  0.00     0.008 C 
HETATM   23  C   UNK N   1      37.003   9.281  12.359  0.00  0.00     0.014 C 
BRANCH  22  24
HETATM   24  C   UNK N   1      37.558  11.696  12.538  0.00  0.00    -0.026 C 
HETATM   25  C   UNK N   1      37.226  12.724  11.737  0.00  0.00    -0.026 C 
BRANCH  25  26
HETATM   26  C   UNK N   1      35.857  12.978  11.148  0.00  0.00     0.007 C 
HETATM   27  C   UNK N   1      35.960  13.200   9.645  0.00  0.00     0.014 C 
BRANCH  26  28
HETATM   28  C   UNK N   1      35.089  14.108  11.846  0.00  0.00    -0.015 C 
HETATM   29  C   UNK N   1      34.240  14.885  10.854  0.00  0.00     0.010 C 
HETATM   30  C   UNK N   1      36.045  15.083  12.513  0.00  0.00     0.010 C 
ENDBRANCH  26  28
ENDBRANCH  25  26
ENDBRANCH  22  24
ENDBRANCH   2  22
TORSDOF 6
ENDMDL
MODEL 2
REMARK VINA RESULT:      -7.5     24.903     27.612
REMARK  6 active torsions:
REMARK  status: ('A' for Active; 'I' for Inactive)
REMARK    1  A    between atoms: C_24  and  O_1 
REMARK    2  A    between atoms: C_3  and  C_8 
REMARK    3  A    between atoms: C_8  and  C_14 
REMARK    4  A    between atoms: C_15  and  C_17 
REMARK    5  A    between atoms: C_16  and  C_18 
REMARK    6  A    between atoms: C_18  and  C_20 
ROOT
HETATM    1  C   UNK N   1      27.111  25.057  -5.536  0.00  0.00    -0.032 C 
HETATM    2  C   UNK N   1      28.469  24.448  -5.150  0.00  0.00     0.002 C 
HETATM    3  C   UNK N   1      27.146  26.332  -4.675  0.00  0.00     0.023 C 
HETATM    4  C   UNK N   1      28.448  24.578  -3.617  0.00  0.00     0.007 C 
HETATM    5  C   UNK N   1      27.468  25.740  -3.308  0.00  0.00     0.010 C 
HETATM    6  C   UNK N   1      26.912  25.448  -7.005  0.00  0.00     0.010 C 
HETATM    7  C   UNK N   1      25.899  27.180  -4.888  0.00  0.00    -0.075 C 
HETATM    8  C   UNK N   1      25.959  24.107  -5.130  0.00  0.00     0.016 C 
HETATM    9  C   UNK N   1      25.625  26.295  -7.206  0.00  0.00     0.005 C 
HETATM   10  C   UNK N   1      24.902  26.674  -5.895  0.00  0.00     0.034 C 
HETATM   11  C   UNK N   1      25.688  28.433  -4.456  0.00  0.00     0.004 C 
ENDROOT
BRANCH  11  12
HETATM   12  C   UNK N   1      26.337  29.489  -3.627  0.00  0.00     0.008 C 
HETATM   13  C   UNK N   1      27.583  29.897  -3.360  0.00  0.00    -0.050 C 
HETATM   14  C   UNK N   1      27.745  30.935  -2.290  0.00  0.00     0.070 C 
HETATM   15  C   UNK N   1      28.816  29.262  -3.841  0.00  0.00    -0.061 C 
HETATM   16  C   UNK N   1      28.576  30.367  -1.139  0.00  0.00     0.122 C 
HETATM   17  C   UNK N   1      29.922  29.840  -1.659  0.00  0.00     0.036 C 
HETATM   18  C   UNK N   1      29.745  28.782  -2.761  0.00  0.00     0.041 C 
HETATM   19  C   UNK N   1      29.397  29.809  -4.909  0.00  0.00     0.019 C 
BRANCH  16  20
HETATM   20  O   UNK N   1      27.869  29.351  -0.490  0.00  0.00    -0.395 OA
HETATM   21  H   UNK N   1      27.898  28.511  -0.006  0.00  0.00     0.210 HD
ENDBRANCH  16  20
ENDBRANCH  11  12
BRANCH   2  22
HETATM   22  C   UNK N   1      28.831  23.039  -5.675  0.00  0.00     0.008 C 
HETATM   23  C   UNK N   1      29.787  22.330  -4.728  0.00  0.00     0.014 C 
BRANCH  22  24
HETATM   24  C   UNK N   1      29.372  23.022  -7.079  0.00  0.00    -0.026 C 
HETATM   25  C   UNK N   1      29.103  22.068  -7.988  0.00  0.00    -0.026 C 
BRANCH  25  26
HETATM   26  C   UNK N   1      28.215  20.866  -7.769  0.00  0.00     0.007 C 
HETATM   27  C   UNK N   1      28.998  19.580  -8.000  0.00  0.00     0.014 C 
BRANCH  26  28
HETATM   28  C   UNK N   1      26.917  20.904  -8.587  0.00  0.00    -0.015 C 
HETATM   29  C   UNK N   1      27.144  21.553  -9.942  0.00  0.00     0.010 C 
HETATM   30  C   UNK N   1      25.842  21.695  -7.862  0.00  0.00     0.010 C 
ENDBRANCH  26  28
ENDBRANCH  25  26
ENDBRANCH  22  24
ENDBRANCH   2  22
TORSDOF 6
ENDMDL
MODEL 3
REMARK VINA RESULT:      -7.3     23.880     27.288
REMARK  6 active torsions:
REMARK  status: ('A' for Active; 'I' for Inactive)
REMARK    1  A    between atoms: C_24  and  O_1 
REMARK    2  A    between atoms: C_3  and  C_8 
REMARK    3  A    between atoms: C_8  and  C_14 
REMARK    4  A    between atoms: C_15  and  C_17 
REMARK    5  A    between atoms: C_16  and  C_18 
REMARK    6  A    between atoms: C_18  and  C_20 
ROOT
HETATM    1  C   UNK N   1      27.243  23.632  -7.867  0.00  0.00    -0.032 C 
HETATM    2  C   UNK N   1      27.629  25.006  -7.297  0.00  0.00     0.002 C 
HETATM    3  C   UNK N   1      28.470  22.816  -7.427  0.00  0.00     0.023 C 
HETATM    4  C   UNK N   1      29.092  25.138  -7.756  0.00  0.00     0.007 C 
HETATM    5  C   UNK N   1      29.597  23.687  -7.967  0.00  0.00     0.010 C 
HETATM    6  C   UNK N   1      25.975  22.974  -7.309  0.00  0.00     0.010 C 
HETATM    7  C   UNK N   1      28.343  21.355  -7.838  0.00  0.00    -0.075 C 
HETATM    8  C   UNK N   1      27.110  23.705  -9.407  0.00  0.00     0.016 C 
HETATM    9  C   UNK N   1      25.851  21.492  -7.757  0.00  0.00     0.005 C 
HETATM   10  C   UNK N   1      27.072  20.959  -8.539  0.00  0.00     0.034 C 
HETATM   11  C   UNK N   1      29.123  20.333  -7.452  0.00  0.00     0.004 C 
ENDROOT
BRANCH  11  12
HETATM   12  C   UNK N   1      30.353  20.062  -6.654  0.00  0.00     0.008 C 
HETATM   13  C   UNK N   1      30.986  20.616  -5.613  0.00  0.00    -0.050 C 
HETATM   14  C   UNK N   1      32.332  20.056  -5.259  0.00  0.00     0.070 C 
HETATM   15  C   UNK N   1      30.604  21.863  -4.939  0.00  0.00    -0.061 C 
HETATM   16  C   UNK N   1      33.401  21.137  -5.418  0.00  0.00     0.122 C 
HETATM   17  C   UNK N   1      33.038  22.376  -4.585  0.00  0.00     0.036 C 
HETATM   18  C   UNK N   1      31.654  22.938  -4.950  0.00  0.00     0.041 C 
HETATM   19  C   UNK N   1      29.901  21.745  -3.812  0.00  0.00     0.019 C 
BRANCH  16  20
HETATM   20  O   UNK N   1      33.544  21.478  -6.766  0.00  0.00    -0.395 OA
HETATM   21  H   UNK N   1      33.413  21.230  -7.694  0.00  0.00     0.210 HD
ENDBRANCH  16  20
ENDBRANCH  11  12
BRANCH   2  22
HETATM   22  C   UNK N   1      26.736  26.227  -7.622  0.00  0.00     0.008 C 
HETATM   23  C   UNK N   1      27.514  27.526  -7.486  0.00  0.00     0.014 C 
BRANCH  22  24
HETATM   24  C   UNK N   1      25.462  26.291  -6.825  0.00  0.00    -0.026 C 
HETATM   25  C   UNK N   1      25.389  26.139  -5.491  0.00  0.00    -0.026 C 
BRANCH  25  26
HETATM   26  C   UNK N   1      26.557  25.888  -4.565  0.00  0.00     0.007 C 
HETATM   27  C   UNK N   1      26.414  24.532  -3.887  0.00  0.00     0.014 C 
BRANCH  26  28
HETATM   28  C   UNK N   1      26.790  27.017  -3.552  0.00  0.00    -0.015 C 
HETATM   29  C   UNK N   1      25.723  28.092  -3.676  0.00  0.00     0.010 C 
HETATM   30  C   UNK N   1      28.144  27.671  -3.771  0.00  0.00     0.010 C 
ENDBRANCH  26  28
ENDBRANCH  25  26
ENDBRANCH  22  24
ENDBRANCH   2  22
TORSDOF 6
ENDMDL
MODEL 4
REMARK VINA RESULT:      -7.2      4.125     10.064
REMARK  6 active torsions:
REMARK  status: ('A' for Active; 'I' for Inactive)
REMARK    1  A    between atoms: C_24  and  O_1 
REMARK    2  A    between atoms: C_3  and  C_8 
REMARK    3  A    between atoms: C_8  and  C_14 
REMARK    4  A    between atoms: C_15  and  C_17 
REMARK    5  A    between atoms: C_16  and  C_18 
REMARK    6  A    between atoms: C_18  and  C_20 
ROOT
HETATM    1  C   UNK N   1      35.483  12.536  11.648  0.00  0.00    -0.032 C 
HETATM    2  C   UNK N   1      34.613  11.269  11.667  0.00  0.00     0.002 C 
HETATM    3  C   UNK N   1      35.128  13.072  10.250  0.00  0.00     0.023 C 
HETATM    4  C   UNK N   1      34.920  10.655  10.289  0.00  0.00     0.007 C 
HETATM    5  C   UNK N   1      35.387  11.835   9.399  0.00  0.00     0.010 C 
HETATM    6  C   UNK N   1      35.174  13.613  12.694  0.00  0.00     0.010 C 
HETATM    7  C   UNK N   1      35.841  14.387   9.961  0.00  0.00    -0.075 C 
HETATM    8  C   UNK N   1      36.980  12.163  11.769  0.00  0.00     0.016 C 
HETATM    9  C   UNK N   1      35.926  14.939  12.395  0.00  0.00     0.005 C 
HETATM   10  C   UNK N   1      36.705  14.941  11.061  0.00  0.00     0.034 C 
HETATM   11  C   UNK N   1      35.616  15.223   8.936  0.00  0.00     0.004 C 
ENDROOT
BRANCH  11  12
HETATM   12  C   UNK N   1      34.797  15.326   7.694  0.00  0.00     0.008 C 
HETATM   13  C   UNK N   1      33.724  16.010   7.282  0.00  0.00    -0.050 C 
HETATM   14  C   UNK N   1      33.148  15.635   5.949  0.00  0.00     0.070 C 
HETATM   15  C   UNK N   1      32.919  16.921   8.105  0.00  0.00    -0.061 C 
HETATM   16  C   UNK N   1      31.718  15.123   6.128  0.00  0.00     0.122 C 
HETATM   17  C   UNK N   1      30.865  16.164   6.869  0.00  0.00     0.036 C 
HETATM   18  C   UNK N   1      31.468  16.548   8.231  0.00  0.00     0.041 C 
HETATM   19  C   UNK N   1      33.177  18.224   7.987  0.00  0.00     0.019 C 
BRANCH  16  20
HETATM   20  O   UNK N   1      31.724  13.910   6.823  0.00  0.00    -0.395 OA
HETATM   21  H   UNK N   1      31.260  13.305   7.421  0.00  0.00     0.210 HD
ENDBRANCH  16  20
ENDBRANCH  11  12
BRANCH   2  22
HETATM   22  C   UNK N   1      34.746  10.289  12.856  0.00  0.00     0.008 C 
HETATM   23  C   UNK N   1      34.770   8.846  12.378  0.00  0.00     0.014 C 
BRANCH  22  24
HETATM   24  C   UNK N   1      33.706  10.471  13.927  0.00  0.00    -0.026 C 
HETATM   25  C   UNK N   1      33.978  10.652  15.232  0.00  0.00    -0.026 C 
BRANCH  25  26
HETATM   26  C   UNK N   1      35.357  10.713  15.846  0.00  0.00     0.007 C 
HETATM   27  C   UNK N   1      35.661   9.422  16.596  0.00  0.00     0.014 C 
BRANCH  26  28
HETATM   28  C   UNK N   1      35.587  11.954  16.719  0.00  0.00    -0.015 C 
HETATM   29  C   UNK N   1      35.324  11.648  18.183  0.00  0.00     0.010 C 
HETATM   30  C   UNK N   1      34.665  13.088  16.303  0.00  0.00     0.010 C 
ENDBRANCH  26  28
ENDBRANCH  25  26
ENDBRANCH  22  24
ENDBRANCH   2  22
TORSDOF 6
ENDMDL
MODEL 5
REMARK VINA RESULT:      -7.2      3.720      7.725
REMARK  6 active torsions:
REMARK  status: ('A' for Active; 'I' for Inactive)
REMARK    1  A    between atoms: C_24  and  O_1 
REMARK    2  A    between atoms: C_3  and  C_8 
REMARK    3  A    between atoms: C_8  and  C_14 
REMARK    4  A    between atoms: C_15  and  C_17 
REMARK    5  A    between atoms: C_16  and  C_18 
REMARK    6  A    between atoms: C_18  and  C_20 
ROOT
HETATM    1  C   UNK N   1      34.270  14.921   9.263  0.00  0.00    -0.032 C 
HETATM    2  C   UNK N   1      33.788  16.379   9.327  0.00  0.00     0.002 C 
HETATM    3  C   UNK N   1      34.893  14.794  10.664  0.00  0.00     0.023 C 
HETATM    4  C   UNK N   1      35.022  17.094   9.904  0.00  0.00     0.007 C 
HETATM    5  C   UNK N   1      35.815  16.007  10.675  0.00  0.00     0.010 C 
HETATM    6  C   UNK N   1      33.201  13.837   9.088  0.00  0.00     0.010 C 
HETATM    7  C   UNK N   1      35.439  13.392  10.904  0.00  0.00    -0.075 C 
HETATM    8  C   UNK N   1      35.319  14.749   8.138  0.00  0.00     0.016 C 
HETATM    9  C   UNK N   1      33.780  12.414   9.315  0.00  0.00     0.005 C 
HETATM   10  C   UNK N   1      35.248  12.394   9.794  0.00  0.00     0.034 C 
HETATM   11  C   UNK N   1      35.866  12.877  12.068  0.00  0.00     0.004 C 
ENDROOT
BRANCH  11  12
HETATM   12  C   UNK N   1      36.104  13.276  13.484  0.00  0.00     0.008 C 
HETATM   13  C   UNK N   1      36.339  12.662  14.649  0.00  0.00    -0.050 C 
HETATM   14  C   UNK N   1      36.345  13.516  15.882  0.00  0.00     0.070 C 
HETATM   15  C   UNK N   1      36.355  11.210  14.866  0.00  0.00    -0.061 C 
HETATM   16  C   UNK N   1      35.227  13.072  16.825  0.00  0.00     0.122 C 
HETATM   17  C   UNK N   1      35.359  11.575  17.144  0.00  0.00     0.036 C 
HETATM   18  C   UNK N   1      35.360  10.708  15.874  0.00  0.00     0.041 C 
HETATM   19  C   UNK N   1      37.549  10.618  14.881  0.00  0.00     0.019 C 
BRANCH  16  20
HETATM   20  O   UNK N   1      33.980  13.344  16.257  0.00  0.00    -0.395 OA
HETATM   21  H   UNK N   1      33.479  13.744  15.529  0.00  0.00     0.210 HD
ENDBRANCH  16  20
ENDBRANCH  11  12
BRANCH   2  22
HETATM   22  C   UNK N   1      33.201  17.028   8.051  0.00  0.00     0.008 C 
HETATM   23  C   UNK N   1      34.039  18.216   7.606  0.00  0.00     0.014 C 
BRANCH  22  24
HETATM   24  C   UNK N   1      31.753  17.419   8.166  0.00  0.00    -0.026 C 
HETATM   25  C   UNK N   1      30.820  17.170   7.230  0.00  0.00    -0.026 C 
BRANCH  25  26
HETATM   26  C   UNK N   1      31.053  16.456   5.919  0.00  0.00     0.007 C 
HETATM   27  C   UNK N   1      30.145  17.026   4.837  0.00  0.00     0.014 C 
BRANCH  26  28
HETATM   28  C   UNK N   1      30.937  14.929   6.022  0.00  0.00    -0.015 C 
HETATM   29  C   UNK N   1      32.238  14.255   5.621  0.00  0.00     0.010 C 
HETATM   30  C   UNK N   1      29.837  14.406   5.114  0.00  0.00     0.010 C 
ENDBRANCH  26  28
ENDBRANCH  25  26
ENDBRANCH  22  24
ENDBRANCH   2  22
TORSDOF 6
ENDMDL
MODEL 6
REMARK VINA RESULT:      -7.2     24.209     27.337
REMARK  6 active torsions:
REMARK  status: ('A' for Active; 'I' for Inactive)
REMARK    1  A    between atoms: C_24  and  O_1 
REMARK    2  A    between atoms: C_3  and  C_8 
REMARK    3  A    between atoms: C_8  and  C_14 
REMARK    4  A    between atoms: C_15  and  C_17 
REMARK    5  A    between atoms: C_16  and  C_18 
REMARK    6  A    between atoms: C_18  and  C_20 
ROOT
HETATM    1  C   UNK N   1      28.301  24.983  -4.832  0.00  0.00    -0.032 C 
HETATM    2  C   UNK N   1      27.530  25.522  -6.046  0.00  0.00     0.002 C 
HETATM    3  C   UNK N   1      28.786  23.641  -5.409  0.00  0.00     0.023 C 
HETATM    4  C   UNK N   1      26.700  24.295  -6.463  0.00  0.00     0.007 C 
HETATM    5  C   UNK N   1      27.472  23.064  -5.921  0.00  0.00     0.010 C 
HETATM    6  C   UNK N   1      29.514  25.792  -4.357  0.00  0.00     0.010 C 
HETATM    7  C   UNK N   1      29.638  22.878  -4.403  0.00  0.00    -0.075 C 
HETATM    8  C   UNK N   1      27.348  24.792  -3.628  0.00  0.00     0.016 C 
HETATM    9  C   UNK N   1      30.359  25.008  -3.316  0.00  0.00     0.005 C 
HETATM   10  C   UNK N   1      29.890  23.555  -3.082  0.00  0.00     0.034 C 
HETATM   11  C   UNK N   1      30.377  21.782  -4.633  0.00  0.00     0.004 C 
ENDROOT
BRANCH  11  12
HETATM   12  C   UNK N   1      30.682  20.808  -5.719  0.00  0.00     0.008 C 
HETATM   13  C   UNK N   1      30.675  20.798  -7.057  0.00  0.00    -0.050 C 
HETATM   14  C   UNK N   1      30.909  19.479  -7.731  0.00  0.00     0.070 C 
HETATM   15  C   UNK N   1      30.227  21.898  -7.921  0.00  0.00    -0.061 C 
HETATM   16  C   UNK N   1      29.679  19.090  -8.551  0.00  0.00     0.122 C 
HETATM   17  C   UNK N   1      29.324  20.206  -9.546  0.00  0.00     0.036 C 
HETATM   18  C   UNK N   1      29.093  21.557  -8.847  0.00  0.00     0.041 C 
HETATM   19  C   UNK N   1      31.175  22.688  -8.427  0.00  0.00     0.019 C 
BRANCH  16  20
HETATM   20  O   UNK N   1      28.599  18.827  -7.704  0.00  0.00    -0.395 OA
HETATM   21  H   UNK N   1      27.655  18.622  -7.618  0.00  0.00     0.210 HD
ENDBRANCH  16  20
ENDBRANCH  11  12
BRANCH   2  22
HETATM   22  C   UNK N   1      26.718  26.830  -5.894  0.00  0.00     0.008 C 
HETATM   23  C   UNK N   1      25.330  26.688  -6.499  0.00  0.00     0.014 C 
BRANCH  22  24
HETATM   24  C   UNK N   1      27.406  28.052  -6.438  0.00  0.00    -0.026 C 
HETATM   25  C   UNK N   1      27.596  29.190  -5.748  0.00  0.00    -0.026 C 
BRANCH  25  26
HETATM   26  C   UNK N   1      27.168  29.440  -4.320  0.00  0.00     0.007 C 
HETATM   27  C   UNK N   1      26.747  30.893  -4.139  0.00  0.00     0.014 C 
BRANCH  26  28
HETATM   28  C   UNK N   1      28.212  29.009  -3.281  0.00  0.00    -0.015 C 
HETATM   29  C   UNK N   1      27.935  29.648  -1.931  0.00  0.00     0.010 C 
HETATM   30  C   UNK N   1      29.610  29.416  -3.716  0.00  0.00     0.010 C 
ENDBRANCH  26  28
ENDBRANCH  25  26
ENDBRANCH  22  24
ENDBRANCH   2  22
TORSDOF 6
ENDMDL
MODEL 7
REMARK VINA RESULT:      -7.1     10.747     16.215
REMARK  6 active torsions:
REMARK  status: ('A' for Active; 'I' for Inactive)
REMARK    1  A    between atoms: C_24  and  O_1 
REMARK    2  A    between atoms: C_3  and  C_8 
REMARK    3  A    between atoms: C_8  and  C_14 
REMARK    4  A    between atoms: C_15  and  C_17 
REMARK    5  A    between atoms: C_16  and  C_18 
REMARK    6  A    between atoms: C_18  and  C_20 
ROOT
HETATM    1  C   UNK N   1      26.279  17.136   4.744  0.00  0.00    -0.032 C 
HETATM    2  C   UNK N   1      25.637  18.532   4.742  0.00  0.00     0.002 C 
HETATM    3  C   UNK N   1      27.631  17.474   5.396  0.00  0.00     0.023 C 
HETATM    4  C   UNK N   1      26.781  19.404   4.195  0.00  0.00     0.007 C 
HETATM    5  C   UNK N   1      28.086  18.631   4.516  0.00  0.00     0.010 C 
HETATM    6  C   UNK N   1      25.582  16.047   5.568  0.00  0.00     0.010 C 
HETATM    7  C   UNK N   1      28.494  16.231   5.566  0.00  0.00    -0.075 C 
HETATM    8  C   UNK N   1      26.441  16.615   3.296  0.00  0.00     0.016 C 
HETATM    9  C   UNK N   1      26.468  14.778   5.712  0.00  0.00     0.005 C 
HETATM   10  C   UNK N   1      27.889  14.925   5.125  0.00  0.00     0.034 C 
HETATM   11  C   UNK N   1      29.634  16.124   6.265  0.00  0.00     0.004 C 
ENDROOT
BRANCH  11  12
HETATM   12  C   UNK N   1      30.587  16.964   7.046  0.00  0.00     0.008 C 
HETATM   13  C   UNK N   1      31.880  17.298   6.979  0.00  0.00    -0.050 C 
HETATM   14  C   UNK N   1      32.446  18.068   8.134  0.00  0.00     0.070 C 
HETATM   15  C   UNK N   1      32.851  16.783   6.005  0.00  0.00    -0.061 C 
HETATM   16  C   UNK N   1      33.549  17.254   8.810  0.00  0.00     0.122 C 
HETATM   17  C   UNK N   1      34.622  16.852   7.786  0.00  0.00     0.036 C 
HETATM   18  C   UNK N   1      34.031  16.069   6.601  0.00  0.00     0.041 C 
HETATM   19  C   UNK N   1      33.109  17.554   4.948  0.00  0.00     0.019 C 
BRANCH  16  20
HETATM   20  O   UNK N   1      33.006  16.120   9.420  0.00  0.00    -0.395 OA
HETATM   21  H   UNK N   1      32.225  15.567   9.577  0.00  0.00     0.210 HD
ENDBRANCH  16  20
ENDBRANCH  11  12
BRANCH   2  22
HETATM   22  C   UNK N   1      24.277  18.727   4.030  0.00  0.00     0.008 C 
HETATM   23  C   UNK N   1      24.209  20.081   3.340  0.00  0.00     0.014 C 
BRANCH  22  24
HETATM   24  C   UNK N   1      23.079  18.529   4.918  0.00  0.00    -0.026 C 
HETATM   25  C   UNK N   1      21.914  17.991   4.516  0.00  0.00    -0.026 C 
BRANCH  25  26
HETATM   26  C   UNK N   1      21.606  17.489   3.125  0.00  0.00     0.007 C 
HETATM   27  C   UNK N   1      20.342  18.152   2.591  0.00  0.00     0.014 C 
BRANCH  26  28
HETATM   28  C   UNK N   1      21.540  15.960   3.024  0.00  0.00    -0.015 C 
HETATM   29  C   UNK N   1      22.934  15.355   2.989  0.00  0.00     0.010 C 
HETATM   30  C   UNK N   1      20.810  15.530   1.763  0.00  0.00     0.010 C 
ENDBRANCH  26  28
ENDBRANCH  25  26
ENDBRANCH  22  24
ENDBRANCH   2  22
TORSDOF 6
ENDMDL
MODEL 8
REMARK VINA RESULT:      -7.0      2.763      8.228
REMARK  6 active torsions:
REMARK  status: ('A' for Active; 'I' for Inactive)
REMARK    1  A    between atoms: C_24  and  O_1 
REMARK    2  A    between atoms: C_3  and  C_8 
REMARK    3  A    between atoms: C_8  and  C_14 
REMARK    4  A    between atoms: C_15  and  C_17 
REMARK    5  A    between atoms: C_16  and  C_18 
REMARK    6  A    between atoms: C_18  and  C_20 
ROOT
HETATM    1  C   UNK N   1      35.226   8.960  18.855  0.00  0.00    -0.032 C 
HETATM    2  C   UNK N   1      35.076   7.677  18.021  0.00  0.00     0.002 C 
HETATM    3  C   UNK N   1      35.388   9.987  17.721  0.00  0.00     0.023 C 
HETATM    4  C   UNK N   1      36.225   7.824  17.008  0.00  0.00     0.007 C 
HETATM    5  C   UNK N   1      36.512   9.345  16.917  0.00  0.00     0.010 C 
HETATM    6  C   UNK N   1      34.038   9.366  19.734  0.00  0.00     0.010 C 
HETATM    7  C   UNK N   1      35.525  11.402  18.267  0.00  0.00    -0.075 C 
HETATM    8  C   UNK N   1      36.484   8.876  19.753  0.00  0.00     0.016 C 
HETATM    9  C   UNK N   1      34.205  10.803  20.300  0.00  0.00     0.005 C 
HETATM   10  C   UNK N   1      35.439  11.559  19.762  0.00  0.00     0.034 C 
HETATM   11  C   UNK N   1      35.486  12.548  17.570  0.00  0.00     0.004 C 
ENDROOT
BRANCH  11  12
HETATM   12  C   UNK N   1      35.398  13.036  16.164  0.00  0.00     0.008 C 
HETATM   13  C   UNK N   1      35.071  12.530  14.970  0.00  0.00    -0.050 C 
HETATM   14  C   UNK N   1      35.306  13.401  13.772  0.00  0.00     0.070 C 
HETATM   15  C   UNK N   1      34.730  11.128  14.695  0.00  0.00    -0.061 C 
HETATM   16  C   UNK N   1      36.326  12.742  12.843  0.00  0.00     0.122 C 
HETATM   17  C   UNK N   1      35.865  11.326  12.462  0.00  0.00     0.036 C 
HETATM   18  C   UNK N   1      35.619  10.442  13.697  0.00  0.00     0.041 C 
HETATM   19  C   UNK N   1      33.432  10.829  14.623  0.00  0.00     0.019 C 
BRANCH  16  20
HETATM   20  O   UNK N   1      37.581  12.700  13.457  0.00  0.00    -0.395 OA
HETATM   21  H   UNK N   1      38.545  12.725  13.356  0.00  0.00     0.210 HD
ENDBRANCH  16  20
ENDBRANCH  11  12
BRANCH   2  22
HETATM   22  C   UNK N   1      35.027   6.315  18.752  0.00  0.00     0.008 C 
HETATM   23  C   UNK N   1      36.191   5.428  18.336  0.00  0.00     0.014 C 
BRANCH  22  24
HETATM   24  C   UNK N   1      33.724   5.578  18.599  0.00  0.00    -0.026 C 
HETATM   25  C   UNK N   1      32.766   5.522  19.540  0.00  0.00    -0.026 C 
BRANCH  25  26
HETATM   26  C   UNK N   1      32.819   6.187  20.896  0.00  0.00     0.007 C 
HETATM   27  C   UNK N   1      33.266   5.190  21.958  0.00  0.00     0.014 C 
BRANCH  26  28
HETATM   28  C   UNK N   1      31.515   6.896  21.285  0.00  0.00    -0.015 C 
HETATM   29  C   UNK N   1      30.869   7.552  20.076  0.00  0.00     0.010 C 
HETATM   30  C   UNK N   1      31.773   7.975  22.323  0.00  0.00     0.010 C 
ENDBRANCH  26  28
ENDBRANCH  25  26
ENDBRANCH  22  24
ENDBRANCH   2  22
TORSDOF 6
ENDMDL
MODEL 9
REMARK VINA RESULT:      -7.0     22.232     26.617
REMARK  6 active torsions:
REMARK  status: ('A' for Active; 'I' for Inactive)
REMARK    1  A    between atoms: C_24  and  O_1 
REMARK    2  A    between atoms: C_3  and  C_8 
REMARK    3  A    between atoms: C_8  and  C_14 
REMARK    4  A    between atoms: C_15  and  C_17 
REMARK    5  A    between atoms: C_16  and  C_18 
REMARK    6  A    between atoms: C_18  and  C_20 
ROOT
HETATM    1  C   UNK N   1      30.427  23.475  -5.704  0.00  0.00    -0.032 C 
HETATM    2  C   UNK N   1      31.477  24.420  -5.099  0.00  0.00     0.002 C 
HETATM    3  C   UNK N   1      29.154  24.299  -5.436  0.00  0.00     0.023 C 
HETATM    4  C   UNK N   1      30.831  24.789  -3.751  0.00  0.00     0.007 C 
HETATM    5  C   UNK N   1      29.307  24.577  -3.946  0.00  0.00     0.010 C 
HETATM    6  C   UNK N   1      30.530  23.183  -7.205  0.00  0.00     0.010 C 
HETATM    7  C   UNK N   1      27.915  23.600  -5.981  0.00  0.00    -0.075 C 
HETATM    8  C   UNK N   1      30.419  22.124  -4.949  0.00  0.00     0.016 C 
HETATM    9  C   UNK N   1      29.268  22.452  -7.738  0.00  0.00     0.005 C 
HETATM   10  C   UNK N   1      28.137  22.296  -6.698  0.00  0.00     0.034 C 
HETATM   11  C   UNK N   1      26.681  24.113  -6.098  0.00  0.00     0.004 C 
ENDROOT
BRANCH  11  12
HETATM   12  C   UNK N   1      25.913  25.348  -5.769  0.00  0.00     0.008 C 
HETATM   13  C   UNK N   1      26.136  26.667  -5.759  0.00  0.00    -0.050 C 
HETATM   14  C   UNK N   1      25.065  27.535  -5.168  0.00  0.00     0.070 C 
HETATM   15  C   UNK N   1      27.416  27.324  -6.049  0.00  0.00    -0.061 C 
HETATM   16  C   UNK N   1      25.612  28.274  -3.947  0.00  0.00     0.122 C 
HETATM   17  C   UNK N   1      26.874  29.066  -4.322  0.00  0.00     0.036 C 
HETATM   18  C   UNK N   1      27.963  28.170  -4.934  0.00  0.00     0.041 C 
HETATM   19  C   UNK N   1      27.577  27.808  -7.281  0.00  0.00     0.019 C 
BRANCH  16  20
HETATM   20  O   UNK N   1      25.890  27.368  -2.919  0.00  0.00    -0.395 OA
HETATM   21  H   UNK N   1      25.548  26.745  -2.260  0.00  0.00     0.210 HD
ENDBRANCH  16  20
ENDBRANCH  11  12
BRANCH   2  22
HETATM   22  C   UNK N   1      32.945  23.941  -5.002  0.00  0.00     0.008 C 
HETATM   23  C   UNK N   1      33.910  25.114  -5.070  0.00  0.00     0.014 C 
BRANCH  22  24
HETATM   24  C   UNK N   1      33.320  22.892  -6.012  0.00  0.00    -0.026 C 
HETATM   25  C   UNK N   1      34.120  21.841  -5.758  0.00  0.00    -0.026 C 
BRANCH  25  26
HETATM   26  C   UNK N   1      34.768  21.525  -4.430  0.00  0.00     0.007 C 
HETATM   27  C   UNK N   1      36.227  21.136  -4.632  0.00  0.00     0.014 C 
BRANCH  26  28
HETATM   28  C   UNK N   1      34.003  20.481  -3.606  0.00  0.00    -0.015 C 
HETATM   29  C   UNK N   1      33.195  19.560  -4.506  0.00  0.00     0.010 C 
HETATM   30  C   UNK N   1      33.044  21.151  -2.638  0.00  0.00     0.010 C 
ENDBRANCH  26  28
ENDBRANCH  25  26
ENDBRANCH  22  24
ENDBRANCH   2  22
TORSDOF 6
ENDMDL
