MODEL 1
REMARK VINA RESULT:      -4.7      0.000      0.000
REMARK  6 active torsions:
REMARK  status: ('A' for Active; 'I' for Inactive)
REMARK       I    between atoms: N_1  and  C_2 
REMARK    1  A    between atoms: C_7  and  C_2 
REMARK    2  A    between atoms: O_4  and  C_3 
REMARK    3  A    between atoms: C_5  and  C_3 
REMARK    4  A    between atoms: C_5  and  N_9 
REMARK    5  A    between atoms: C_6  and  C_5 
REMARK    6  A    between atoms: C_7  and  C_6 
ROOT
HETATM    1  C   UNK N   1      20.859  19.661   1.857  0.00  0.00     0.173 C 
ENDROOT
BRANCH   1   2
HETATM    2  C   UNK N   1      20.990  20.727   2.908  0.00  0.00     0.163 C 
HETATM    3  O   UNK N   1      20.305  20.676   3.914  0.00  0.00    -0.648 OA
BRANCH   2   4
HETATM    4  O   UNK N   1      21.878  21.733   2.759  0.00  0.00    -0.775 OA
HETATM    5  H   UNK N   1      21.689  22.624   2.981  0.00  0.00     0.167 HD
ENDBRANCH   2   4
ENDBRANCH   1   2
BRANCH   1   6
HETATM    6  N   UNK N   1      20.489  20.241   0.574  0.00  0.00    -0.418 N 
HETATM    7  H   UNK N   1      20.622  19.732  -0.300  0.00  0.00     0.150 HD
HETATM    8  H   UNK N   1      20.086  21.177   0.549  0.00  0.00     0.150 HD
ENDBRANCH   1   6
BRANCH   1   9
HETATM    9  C   UNK N   1      19.824  18.633   2.286  0.00  0.00     0.044 C 
BRANCH   9  10
HETATM   10  C   UNK N   1      20.313  17.215   2.014  0.00  0.00     0.105 C 
BRANCH  10  11
HETATM   11  C   UNK N   1      19.896  16.719   0.658  0.00  0.00     0.215 C 
HETATM   12  N   UNK N   1      18.995  15.722   0.568  0.00  0.00    -0.370 N 
HETATM   13  H   UNK N   1      18.606  15.475  -0.302  0.00  0.00     0.159 HD
HETATM   14  H   UNK N   1      18.724  15.234   1.379  0.00  0.00     0.159 HD
HETATM   15  O   UNK N   1      20.356  17.212  -0.360  0.00  0.00    -0.274 OA
ENDBRANCH  10  11
ENDBRANCH   9  10
ENDBRANCH   1   9
TORSDOF 6
ENDMDL
MODEL 2
REMARK VINA RESULT:      -4.6      1.456      4.233
REMARK  6 active torsions:
REMARK  status: ('A' for Active; 'I' for Inactive)
REMARK       I    between atoms: N_1  and  C_2 
REMARK    1  A    between atoms: C_7  and  C_2 
REMARK    2  A    between atoms: O_4  and  C_3 
REMARK    3  A    between atoms: C_5  and  C_3 
REMARK    4  A    between atoms: C_5  and  N_9 
REMARK    5  A    between atoms: C_6  and  C_5 
REMARK    6  A    between atoms: C_7  and  C_6 
ROOT
HETATM    1  C   UNK N   1      19.909  17.560   2.209  0.00  0.00     0.173 C 
ENDROOT
BRANCH   1   2
HETATM    2  C   UNK N   1      20.315  17.234   0.799  0.00  0.00     0.163 C 
HETATM    3  O   UNK N   1      20.613  16.090   0.502  0.00  0.00    -0.648 OA
BRANCH   2   4
HETATM    4  O   UNK N   1      20.333  18.194  -0.150  0.00  0.00    -0.775 OA
HETATM    5  H   UNK N   1      21.043  18.796  -0.259  0.00  0.00     0.167 HD
ENDBRANCH   2   4
ENDBRANCH   1   2
BRANCH   1   6
HETATM    6  N   UNK N   1      18.676  18.333   2.227  0.00  0.00    -0.418 N 
HETATM    7  H   UNK N   1      18.596  19.196   2.764  0.00  0.00     0.150 HD
HETATM    8  H   UNK N   1      17.875  18.004   1.690  0.00  0.00     0.150 HD
ENDBRANCH   1   6
BRANCH   1   9
HETATM    9  C   UNK N   1      21.020  18.328   2.906  0.00  0.00     0.044 C 
BRANCH   9  10
HETATM   10  C   UNK N   1      20.579  19.747   3.244  0.00  0.00     0.105 C 
BRANCH  10  11
HETATM   11  C   UNK N   1      21.170  20.765   2.311  0.00  0.00     0.215 C 
HETATM   12  N   UNK N   1      20.597  20.973   1.110  0.00  0.00    -0.370 N 
HETATM   13  H   UNK N   1      20.881  21.725   0.542  0.00  0.00     0.159 HD
HETATM   14  H   UNK N   1      19.888  20.366   0.796  0.00  0.00     0.159 HD
HETATM   15  O   UNK N   1      22.157  21.411   2.629  0.00  0.00    -0.274 OA
ENDBRANCH  10  11
ENDBRANCH   9  10
ENDBRANCH   1   9
TORSDOF 6
ENDMDL
MODEL 3
REMARK VINA RESULT:      -4.5      2.484      4.246
REMARK  6 active torsions:
REMARK  status: ('A' for Active; 'I' for Inactive)
REMARK       I    between atoms: N_1  and  C_2 
REMARK    1  A    between atoms: C_7  and  C_2 
REMARK    2  A    between atoms: O_4  and  C_3 
REMARK    3  A    between atoms: C_5  and  C_3 
REMARK    4  A    between atoms: C_5  and  N_9 
REMARK    5  A    between atoms: C_6  and  C_5 
REMARK    6  A    between atoms: C_7  and  C_6 
ROOT
HETATM    1  C   UNK N   1      20.635  19.454   2.127  0.00  0.00     0.173 C 
ENDROOT
BRANCH   1   2
HETATM    2  C   UNK N   1      20.786  20.565   1.126  0.00  0.00     0.163 C 
HETATM    3  O   UNK N   1      20.869  20.305  -0.062  0.00  0.00    -0.648 OA
BRANCH   2   4
HETATM    4  O   UNK N   1      20.808  21.854   1.528  0.00  0.00    -0.775 OA
HETATM    5  H   UNK N   1      20.080  22.277   1.939  0.00  0.00     0.167 HD
ENDBRANCH   2   4
ENDBRANCH   1   2
BRANCH   1   6
HETATM    6  N   UNK N   1      19.230  19.159   2.365  0.00  0.00    -0.418 N 
HETATM    7  H   UNK N   1      18.497  19.830   2.136  0.00  0.00     0.150 HD
HETATM    8  H   UNK N   1      18.972  18.260   2.770  0.00  0.00     0.150 HD
ENDBRANCH   1   6
BRANCH   1   9
HETATM    9  C   UNK N   1      21.320  19.833   3.431  0.00  0.00     0.044 C 
BRANCH   9  10
HETATM   10  C   UNK N   1      22.768  19.358   3.449  0.00  0.00     0.105 C 
BRANCH  10  11
HETATM   11  C   UNK N   1      23.728  20.446   3.057  0.00  0.00     0.215 C 
HETATM   12  N   UNK N   1      25.006  20.129   2.775  0.00  0.00    -0.370 N 
HETATM   13  H   UNK N   1      25.616  20.797   2.386  0.00  0.00     0.159 HD
HETATM   14  H   UNK N   1      25.336  19.219   2.961  0.00  0.00     0.159 HD
HETATM   15  O   UNK N   1      23.365  21.609   2.984  0.00  0.00    -0.274 OA
ENDBRANCH  10  11
ENDBRANCH   9  10
ENDBRANCH   1   9
TORSDOF 6
ENDMDL
MODEL 4
REMARK VINA RESULT:      -4.4      3.049      4.136
REMARK  6 active torsions:
REMARK  status: ('A' for Active; 'I' for Inactive)
REMARK       I    between atoms: N_1  and  C_2 
REMARK    1  A    between atoms: C_7  and  C_2 
REMARK    2  A    between atoms: O_4  and  C_3 
REMARK    3  A    between atoms: C_5  and  C_3 
REMARK    4  A    between atoms: C_5  and  N_9 
REMARK    5  A    between atoms: C_6  and  C_5 
REMARK    6  A    between atoms: C_7  and  C_6 
ROOT
HETATM    1  C   UNK N   1      20.625  19.176   2.105  0.00  0.00     0.173 C 
ENDROOT
BRANCH   1   2
HETATM    2  C   UNK N   1      20.904  20.416   1.302  0.00  0.00     0.163 C 
HETATM    3  O   UNK N   1      21.417  21.383   1.838  0.00  0.00    -0.648 OA
BRANCH   2   4
HETATM    4  O   UNK N   1      20.612  20.462  -0.015  0.00  0.00    -0.775 OA
HETATM    5  H   UNK N   1      20.448  19.697  -0.532  0.00  0.00     0.167 HD
ENDBRANCH   2   4
ENDBRANCH   1   2
BRANCH   1   6
HETATM    6  N   UNK N   1      19.238  19.145   2.544  0.00  0.00    -0.418 N 
HETATM    7  H   UNK N   1      18.819  18.298   2.927  0.00  0.00     0.150 HD
HETATM    8  H   UNK N   1      18.673  19.990   2.469  0.00  0.00     0.150 HD
ENDBRANCH   1   6
BRANCH   1   9
HETATM    9  C   UNK N   1      21.557  19.113   3.305  0.00  0.00     0.044 C 
BRANCH   9  10
HETATM   10  C   UNK N   1      20.948  18.285   4.430  0.00  0.00     0.105 C 
BRANCH  10  11
HETATM   11  C   UNK N   1      21.780  18.325   5.681  0.00  0.00     0.215 C 
HETATM   12  N   UNK N   1      23.109  18.123   5.598  0.00  0.00    -0.370 N 
HETATM   13  H   UNK N   1      23.691  18.280   6.377  0.00  0.00     0.159 HD
HETATM   14  H   UNK N   1      23.504  17.815   4.750  0.00  0.00     0.159 HD
HETATM   15  O   UNK N   1      21.270  18.546   6.768  0.00  0.00    -0.274 OA
ENDBRANCH  10  11
ENDBRANCH   9  10
ENDBRANCH   1   9
TORSDOF 6
ENDMDL
MODEL 5
REMARK VINA RESULT:      -4.4     10.354     11.285
REMARK  6 active torsions:
REMARK  status: ('A' for Active; 'I' for Inactive)
REMARK       I    between atoms: N_1  and  C_2 
REMARK    1  A    between atoms: C_7  and  C_2 
REMARK    2  A    between atoms: O_4  and  C_3 
REMARK    3  A    between atoms: C_5  and  C_3 
REMARK    4  A    between atoms: C_5  and  N_9 
REMARK    5  A    between atoms: C_6  and  C_5 
REMARK    6  A    between atoms: C_7  and  C_6 
ROOT
HETATM    1  C   UNK N   1      22.742  11.593  10.725  0.00  0.00     0.173 C 
ENDROOT
BRANCH   1   2
HETATM    2  C   UNK N   1      23.614  11.947  11.897  0.00  0.00     0.163 C 
HETATM    3  O   UNK N   1      23.157  11.917  13.026  0.00  0.00    -0.648 OA
BRANCH   2   4
HETATM    4  O   UNK N   1      24.910  12.279  11.713  0.00  0.00    -0.775 OA
HETATM    5  H   UNK N   1      25.620  11.691  11.879  0.00  0.00     0.167 HD
ENDBRANCH   2   4
ENDBRANCH   1   2
BRANCH   1   6
HETATM    6  N   UNK N   1      23.495  11.656   9.481  0.00  0.00    -0.418 N 
HETATM    7  H   UNK N   1      23.092  12.057   8.634  0.00  0.00     0.150 HD
HETATM    8  H   UNK N   1      24.447  11.293   9.456  0.00  0.00     0.150 HD
ENDBRANCH   1   6
BRANCH   1   9
HETATM    9  C   UNK N   1      21.547  12.531  10.664  0.00  0.00     0.044 C 
BRANCH   9  10
HETATM   10  C   UNK N   1      21.839  13.735   9.777  0.00  0.00     0.105 C 
BRANCH  10  11
HETATM   11  C   UNK N   1      20.601  14.532   9.474  0.00  0.00     0.215 C 
HETATM   12  N   UNK N   1      20.718  15.732   8.873  0.00  0.00    -0.370 N 
HETATM   13  H   UNK N   1      19.922  16.207   8.542  0.00  0.00     0.159 HD
HETATM   14  H   UNK N   1      21.608  16.139   8.765  0.00  0.00     0.159 HD
HETATM   15  O   UNK N   1      19.493  14.104   9.756  0.00  0.00    -0.274 OA
ENDBRANCH  10  11
ENDBRANCH   9  10
ENDBRANCH   1   9
TORSDOF 6
ENDMDL
MODEL 6
REMARK VINA RESULT:      -4.4     16.439     17.081
REMARK  6 active torsions:
REMARK  status: ('A' for Active; 'I' for Inactive)
REMARK       I    between atoms: N_1  and  C_2 
REMARK    1  A    between atoms: C_7  and  C_2 
REMARK    2  A    between atoms: O_4  and  C_3 
REMARK    3  A    between atoms: C_5  and  C_3 
REMARK    4  A    between atoms: C_5  and  N_9 
REMARK    5  A    between atoms: C_6  and  C_5 
REMARK    6  A    between atoms: C_7  and  C_6 
ROOT
HETATM    1  C   UNK N   1      34.296  16.995   8.935  0.00  0.00     0.173 C 
ENDROOT
BRANCH   1   2
HETATM    2  C   UNK N   1      34.656  18.169   8.068  0.00  0.00     0.163 C 
HETATM    3  O   UNK N   1      34.351  18.168   6.888  0.00  0.00    -0.648 OA
BRANCH   2   4
HETATM    4  O   UNK N   1      35.297  19.237   8.589  0.00  0.00    -0.775 OA
HETATM    5  H   UNK N   1      35.432  19.357   9.508  0.00  0.00     0.167 HD
ENDBRANCH   2   4
ENDBRANCH   1   2
BRANCH   1   6
HETATM    6  N   UNK N   1      32.880  17.015   9.270  0.00  0.00    -0.418 N 
HETATM    7  H   UNK N   1      32.541  17.447  10.130  0.00  0.00     0.150 HD
HETATM    8  H   UNK N   1      32.211  16.588   8.631  0.00  0.00     0.150 HD
ENDBRANCH   1   6
BRANCH   1   9
HETATM    9  C   UNK N   1      35.135  17.008  10.203  0.00  0.00     0.044 C 
BRANCH   9  10
HETATM   10  C   UNK N   1      35.853  15.679  10.399  0.00  0.00     0.105 C 
BRANCH  10  11
HETATM   11  C   UNK N   1      35.500  15.029  11.708  0.00  0.00     0.215 C 
HETATM   12  N   UNK N   1      36.401  15.025  12.709  0.00  0.00    -0.370 N 
HETATM   13  H   UNK N   1      36.146  14.731  13.613  0.00  0.00     0.159 HD
HETATM   14  H   UNK N   1      37.325  15.319  12.535  0.00  0.00     0.159 HD
HETATM   15  O   UNK N   1      34.407  14.513  11.878  0.00  0.00    -0.274 OA
ENDBRANCH  10  11
ENDBRANCH   9  10
ENDBRANCH   1   9
TORSDOF 6
ENDMDL
MODEL 7
REMARK VINA RESULT:      -4.2     14.494     14.917
REMARK  6 active torsions:
REMARK  status: ('A' for Active; 'I' for Inactive)
REMARK       I    between atoms: N_1  and  C_2 
REMARK    1  A    between atoms: C_7  and  C_2 
REMARK    2  A    between atoms: O_4  and  C_3 
REMARK    3  A    between atoms: C_5  and  C_3 
REMARK    4  A    between atoms: C_5  and  N_9 
REMARK    5  A    between atoms: C_6  and  C_5 
REMARK    6  A    between atoms: C_7  and  C_6 
ROOT
HETATM    1  C   UNK N   1      34.098  17.218   9.096  0.00  0.00     0.173 C 
ENDROOT
BRANCH   1   2
HETATM    2  C   UNK N   1      34.648  18.213   8.112  0.00  0.00     0.163 C 
HETATM    3  O   UNK N   1      34.474  18.045   6.918  0.00  0.00    -0.648 OA
BRANCH   2   4
HETATM    4  O   UNK N   1      35.315  19.305   8.541  0.00  0.00    -0.775 OA
HETATM    5  H   UNK N   1      35.404  20.086   8.031  0.00  0.00     0.167 HD
ENDBRANCH   2   4
ENDBRANCH   1   2
BRANCH   1   6
HETATM    6  N   UNK N   1      34.922  17.165  10.294  0.00  0.00    -0.418 N 
HETATM    7  H   UNK N   1      35.938  17.232  10.247  0.00  0.00     0.150 HD
HETATM    8  H   UNK N   1      34.472  17.060  11.203  0.00  0.00     0.150 HD
ENDBRANCH   1   6
BRANCH   1   9
HETATM    9  C   UNK N   1      34.018  15.842   8.454  0.00  0.00     0.044 C 
BRANCH   9  10
HETATM   10  C   UNK N   1      32.585  15.325   8.439  0.00  0.00     0.105 C 
BRANCH  10  11
HETATM   11  C   UNK N   1      32.054  15.157   7.043  0.00  0.00     0.215 C 
HETATM   12  N   UNK N   1      32.106  16.196   6.187  0.00  0.00    -0.370 N 
HETATM   13  H   UNK N   1      31.893  16.072   5.234  0.00  0.00     0.159 HD
HETATM   14  H   UNK N   1      32.357  17.089   6.518  0.00  0.00     0.159 HD
HETATM   15  O   UNK N   1      31.585  14.092   6.672  0.00  0.00    -0.274 OA
ENDBRANCH  10  11
ENDBRANCH   9  10
ENDBRANCH   1   9
TORSDOF 6
ENDMDL
MODEL 8
REMARK VINA RESULT:      -4.1     13.282     13.906
REMARK  6 active torsions:
REMARK  status: ('A' for Active; 'I' for Inactive)
REMARK       I    between atoms: N_1  and  C_2 
REMARK    1  A    between atoms: C_7  and  C_2 
REMARK    2  A    between atoms: O_4  and  C_3 
REMARK    3  A    between atoms: C_5  and  C_3 
REMARK    4  A    between atoms: C_5  and  N_9 
REMARK    5  A    between atoms: C_6  and  C_5 
REMARK    6  A    between atoms: C_7  and  C_6 
ROOT
HETATM    1  C   UNK N   1      33.483  17.438   8.754  0.00  0.00     0.173 C 
ENDROOT
BRANCH   1   2
HETATM    2  C   UNK N   1      34.451  18.239   7.929  0.00  0.00     0.163 C 
HETATM    3  O   UNK N   1      34.511  18.067   6.724  0.00  0.00    -0.648 OA
BRANCH   2   4
HETATM    4  O   UNK N   1      35.244  19.166   8.509  0.00  0.00    -0.775 OA
HETATM    5  H   UNK N   1      35.417  20.005   8.128  0.00  0.00     0.167 HD
ENDBRANCH   2   4
ENDBRANCH   1   2
BRANCH   1   6
HETATM    6  N   UNK N   1      33.671  16.012   8.533  0.00  0.00    -0.418 N 
HETATM    7  H   UNK N   1      34.143  15.424   9.220  0.00  0.00     0.150 HD
HETATM    8  H   UNK N   1      33.322  15.591   7.673  0.00  0.00     0.150 HD
ENDBRANCH   1   6
BRANCH   1   9
HETATM    9  C   UNK N   1      32.056  17.838   8.413  0.00  0.00     0.044 C 
BRANCH   9  10
HETATM   10  C   UNK N   1      31.337  16.723   7.662  0.00  0.00     0.105 C 
BRANCH  10  11
HETATM   11  C   UNK N   1      31.003  17.112   6.249  0.00  0.00     0.215 C 
HETATM   12  N   UNK N   1      31.990  17.197   5.337  0.00  0.00    -0.370 N 
HETATM   13  H   UNK N   1      31.782  17.313   4.381  0.00  0.00     0.159 HD
HETATM   14  H   UNK N   1      32.930  17.143   5.627  0.00  0.00     0.159 HD
HETATM   15  O   UNK N   1      29.851  17.342   5.917  0.00  0.00    -0.274 OA
ENDBRANCH  10  11
ENDBRANCH   9  10
ENDBRANCH   1   9
TORSDOF 6
ENDMDL
MODEL 9
REMARK VINA RESULT:      -4.1     16.235     16.664
REMARK  6 active torsions:
REMARK  status: ('A' for Active; 'I' for Inactive)
REMARK       I    between atoms: N_1  and  C_2 
REMARK    1  A    between atoms: C_7  and  C_2 
REMARK    2  A    between atoms: O_4  and  C_3 
REMARK    3  A    between atoms: C_5  and  C_3 
REMARK    4  A    between atoms: C_5  and  N_9 
REMARK    5  A    between atoms: C_6  and  C_5 
REMARK    6  A    between atoms: C_7  and  C_6 
ROOT
HETATM    1  C   UNK N   1      34.303  17.171   9.165  0.00  0.00     0.173 C 
ENDROOT
BRANCH   1   2
HETATM    2  C   UNK N   1      34.693  18.242   8.186  0.00  0.00     0.163 C 
HETATM    3  O   UNK N   1      35.290  19.230   8.573  0.00  0.00    -0.648 OA
BRANCH   2   4
HETATM    4  O   UNK N   1      34.407  18.109   6.873  0.00  0.00    -0.775 OA
HETATM    5  H   UNK N   1      34.990  17.708   6.258  0.00  0.00     0.167 HD
ENDBRANCH   2   4
ENDBRANCH   1   2
BRANCH   1   6
HETATM    6  N   UNK N   1      35.036  17.319  10.414  0.00  0.00    -0.418 N 
HETATM    7  H   UNK N   1      35.858  17.918  10.482  0.00  0.00     0.150 HD
HETATM    8  H   UNK N   1      34.719  16.813  11.240  0.00  0.00     0.150 HD
ENDBRANCH   1   6
BRANCH   1   9
HETATM    9  C   UNK N   1      34.560  15.798   8.565  0.00  0.00     0.044 C 
BRANCH   9  10
HETATM   10  C   UNK N   1      35.565  15.013   9.400  0.00  0.00     0.105 C 
BRANCH  10  11
HETATM   11  C   UNK N   1      34.956  13.787  10.020  0.00  0.00     0.215 C 
HETATM   12  N   UNK N   1      34.237  13.906  11.152  0.00  0.00    -0.370 N 
HETATM   13  H   UNK N   1      33.717  13.145  11.499  0.00  0.00     0.159 HD
HETATM   14  H   UNK N   1      34.231  14.762  11.639  0.00  0.00     0.159 HD
HETATM   15  O   UNK N   1      35.098  12.687   9.507  0.00  0.00    -0.274 OA
ENDBRANCH  10  11
ENDBRANCH   9  10
ENDBRANCH   1   9
TORSDOF 6
ENDMDL
