MODEL 1
REMARK VINA RESULT:      -5.7      0.000      0.000
REMARK  6 active torsions:
REMARK  status: ('A' for Active; 'I' for Inactive)
REMARK    1  A    between atoms: O_3  and  C_16 
REMARK    2  A    between atoms: C_9  and  C_11 
REMARK    3  A    between atoms: C_11  and  C_12 
REMARK    4  A    between atoms: C_12  and  C_14 
REMARK    5  A    between atoms: C_14  and  C_15 
REMARK    6  A    between atoms: C_15  and  C_16 
ROOT
HETATM    1  S   UNK N   1      35.305  12.589  11.383  0.00  0.00    -0.160 SA
HETATM    2  O   UNK N   1      37.596  15.144  16.065  0.00  0.00    -0.247 OA
HETATM    3  N   UNK N   1      36.748  15.277  13.977  0.00  0.00    -0.335 N 
HETATM    4  N   UNK N   1      36.973  13.271  14.965  0.00  0.00    -0.336 N 
HETATM    5  C   UNK N   1      36.030  14.327  13.173  0.00  0.00     0.123 C 
HETATM    6  C   UNK N   1      36.653  13.015  13.585  0.00  0.00     0.119 C 
HETATM    7  C   UNK N   1      36.023  14.282  11.674  0.00  0.00     0.072 C 
HETATM    8  C   UNK N   1      35.640  12.010  13.119  0.00  0.00     0.101 C 
HETATM    9  C   UNK N   1      37.138  14.602  15.072  0.00  0.00     0.316 C 
HETATM   10  H   UNK N   1      36.919  16.224  13.769  0.00  0.00     0.164 HD
HETATM   11  H   UNK N   1      37.055  12.605  15.686  0.00  0.00     0.164 HD
ENDROOT
BRANCH   7  12
HETATM   12  C   UNK N   1      35.116  15.401  11.182  0.00  0.00     0.017 C 
BRANCH  12  13
HETATM   13  C   UNK N   1      35.474  15.892   9.797  0.00  0.00     0.002 C 
BRANCH  13  14
HETATM   14  C   UNK N   1      34.193  15.946   8.997  0.00  0.00     0.010 C 
BRANCH  14  15
HETATM   15  C   UNK N   1      33.654  17.364   8.941  0.00  0.00     0.110 C 
BRANCH  15  16
HETATM   16  C   UNK N   1      34.464  18.236   8.025  0.00  0.00     0.139 C 
HETATM   17  O   UNK N   1      35.078  19.202   8.455  0.00  0.00    -0.650 OA
BRANCH  16  18
HETATM   18  O   UNK N   1      34.528  17.939   6.715  0.00  0.00    -0.776 OA
HETATM   19  H   UNK N   1      33.751  17.952   6.193  0.00  0.00     0.167 HD
ENDBRANCH  16  18
ENDBRANCH  15  16
ENDBRANCH  14  15
ENDBRANCH  13  14
ENDBRANCH  12  13
ENDBRANCH   7  12
TORSDOF 6
ENDMDL
MODEL 2
REMARK VINA RESULT:      -5.5      6.979      9.932
REMARK  6 active torsions:
REMARK  status: ('A' for Active; 'I' for Inactive)
REMARK    1  A    between atoms: O_3  and  C_16 
REMARK    2  A    between atoms: C_9  and  C_11 
REMARK    3  A    between atoms: C_11  and  C_12 
REMARK    4  A    between atoms: C_12  and  C_14 
REMARK    5  A    between atoms: C_14  and  C_15 
REMARK    6  A    between atoms: C_15  and  C_16 
ROOT
HETATM    1  S   UNK N   1      28.812  16.507   5.651  0.00  0.00    -0.160 SA
HETATM    2  O   UNK N   1      26.415  21.647   6.887  0.00  0.00    -0.247 OA
HETATM    3  N   UNK N   1      27.541  19.802   7.538  0.00  0.00    -0.335 N 
HETATM    4  N   UNK N   1      26.832  19.986   5.413  0.00  0.00    -0.336 N 
HETATM    5  C   UNK N   1      28.178  18.756   6.788  0.00  0.00     0.123 C 
HETATM    6  C   UNK N   1      27.281  18.628   5.580  0.00  0.00     0.119 C 
HETATM    7  C   UNK N   1      28.375  17.344   7.256  0.00  0.00     0.072 C 
HETATM    8  C   UNK N   1      28.151  17.894   4.602  0.00  0.00     0.101 C 
HETATM    9  C   UNK N   1      26.896  20.555   6.631  0.00  0.00     0.316 C 
HETATM   10  H   UNK N   1      27.571  19.939   8.513  0.00  0.00     0.164 HD
HETATM   11  H   UNK N   1      26.539  20.413   4.575  0.00  0.00     0.164 HD
ENDROOT
BRANCH   7  12
HETATM   12  C   UNK N   1      29.525  17.344   8.254  0.00  0.00     0.017 C 
BRANCH  12  13
HETATM   13  C   UNK N   1      30.885  17.383   7.593  0.00  0.00     0.002 C 
BRANCH  13  14
HETATM   14  C   UNK N   1      31.823  18.093   8.543  0.00  0.00     0.010 C 
BRANCH  14  15
HETATM   15  C   UNK N   1      33.180  17.414   8.566  0.00  0.00     0.110 C 
BRANCH  15  16
HETATM   16  C   UNK N   1      34.207  18.186   7.789  0.00  0.00     0.139 C 
HETATM   17  O   UNK N   1      34.867  19.068   8.319  0.00  0.00    -0.650 OA
BRANCH  16  18
HETATM   18  O   UNK N   1      34.413  17.890   6.494  0.00  0.00    -0.776 OA
HETATM   19  H   UNK N   1      33.842  18.235   5.836  0.00  0.00     0.167 HD
ENDBRANCH  16  18
ENDBRANCH  15  16
ENDBRANCH  14  15
ENDBRANCH  13  14
ENDBRANCH  12  13
ENDBRANCH   7  12
TORSDOF 6
ENDMDL
MODEL 3
REMARK VINA RESULT:      -5.4      6.274      8.791
REMARK  6 active torsions:
REMARK  status: ('A' for Active; 'I' for Inactive)
REMARK    1  A    between atoms: O_3  and  C_16 
REMARK    2  A    between atoms: C_9  and  C_11 
REMARK    3  A    between atoms: C_11  and  C_12 
REMARK    4  A    between atoms: C_12  and  C_14 
REMARK    5  A    between atoms: C_14  and  C_15 
REMARK    6  A    between atoms: C_15  and  C_16 
ROOT
HETATM    1  S   UNK N   1      29.258  16.954   6.292  0.00  0.00    -0.160 SA
HETATM    2  O   UNK N   1      33.502  16.321   2.382  0.00  0.00    -0.247 OA
HETATM    3  N   UNK N   1      32.746  16.138   4.501  0.00  0.00    -0.335 N 
HETATM    4  N   UNK N   1      31.416  17.010   2.913  0.00  0.00    -0.336 N 
HETATM    5  C   UNK N   1      31.423  16.221   5.056  0.00  0.00     0.123 C 
HETATM    6  C   UNK N   1      30.764  17.253   4.173  0.00  0.00     0.119 C 
HETATM    7  C   UNK N   1      31.089  16.658   6.452  0.00  0.00     0.072 C 
HETATM    8  C   UNK N   1      29.304  17.024   4.434  0.00  0.00     0.101 C 
HETATM    9  C   UNK N   1      32.617  16.478   3.208  0.00  0.00     0.316 C 
HETATM   10  H   UNK N   1      33.573  15.885   4.971  0.00  0.00     0.164 HD
HETATM   11  H   UNK N   1      31.055  17.194   2.015  0.00  0.00     0.164 HD
ENDROOT
BRANCH   7  12
HETATM   12  C   UNK N   1      31.422  15.505   7.389  0.00  0.00     0.017 C 
BRANCH  12  13
HETATM   13  C   UNK N   1      31.745  15.956   8.796  0.00  0.00     0.002 C 
BRANCH  13  14
HETATM   14  C   UNK N   1      32.319  17.351   8.697  0.00  0.00     0.010 C 
BRANCH  14  15
HETATM   15  C   UNK N   1      33.820  17.331   8.921  0.00  0.00     0.110 C 
BRANCH  15  16
HETATM   16  C   UNK N   1      34.544  18.225   7.956  0.00  0.00     0.139 C 
HETATM   17  O   UNK N   1      34.443  18.062   6.749  0.00  0.00    -0.650 OA
BRANCH  16  18
HETATM   18  O   UNK N   1      35.300  19.232   8.428  0.00  0.00    -0.776 OA
HETATM   19  H   UNK N   1      35.810  19.752   7.840  0.00  0.00     0.167 HD
ENDBRANCH  16  18
ENDBRANCH  15  16
ENDBRANCH  14  15
ENDBRANCH  13  14
ENDBRANCH  12  13
ENDBRANCH   7  12
TORSDOF 6
ENDMDL
MODEL 4
REMARK VINA RESULT:      -5.3     14.883     16.951
REMARK  6 active torsions:
REMARK  status: ('A' for Active; 'I' for Inactive)
REMARK    1  A    between atoms: O_3  and  C_16 
REMARK    2  A    between atoms: C_9  and  C_11 
REMARK    3  A    between atoms: C_11  and  C_12 
REMARK    4  A    between atoms: C_12  and  C_14 
REMARK    5  A    between atoms: C_14  and  C_15 
REMARK    6  A    between atoms: C_15  and  C_16 
ROOT
HETATM    1  S   UNK N   1      20.809  16.296   3.920  0.00  0.00    -0.160 SA
HETATM    2  O   UNK N   1      20.799  21.346   1.056  0.00  0.00    -0.247 OA
HETATM    3  N   UNK N   1      21.319  20.132   2.887  0.00  0.00    -0.335 N 
HETATM    4  N   UNK N   1      20.209  19.168   1.186  0.00  0.00    -0.336 N 
HETATM    5  C   UNK N   1      21.329  18.715   3.125  0.00  0.00     0.123 C 
HETATM    6  C   UNK N   1      20.171  18.236   2.283  0.00  0.00     0.119 C 
HETATM    7  C   UNK N   1      21.121  18.053   4.454  0.00  0.00     0.072 C 
HETATM    8  C   UNK N   1      20.443  16.765   2.157  0.00  0.00     0.101 C 
HETATM    9  C   UNK N   1      20.777  20.290   1.667  0.00  0.00     0.316 C 
HETATM   10  H   UNK N   1      21.642  20.839   3.491  0.00  0.00     0.164 HD
HETATM   11  H   UNK N   1      19.885  19.016   0.269  0.00  0.00     0.164 HD
ENDROOT
BRANCH   7  12
HETATM   12  C   UNK N   1      22.408  18.207   5.253  0.00  0.00     0.017 C 
BRANCH  12  13
HETATM   13  C   UNK N   1      23.647  17.863   4.457  0.00  0.00     0.002 C 
BRANCH  13  14
HETATM   14  C   UNK N   1      24.592  19.037   4.573  0.00  0.00     0.010 C 
BRANCH  14  15
HETATM   15  C   UNK N   1      25.449  19.162   3.327  0.00  0.00     0.110 C 
BRANCH  15  16
HETATM   16  C   UNK N   1      25.245  20.480   2.636  0.00  0.00     0.139 C 
HETATM   17  O   UNK N   1      24.122  20.903   2.404  0.00  0.00    -0.650 OA
BRANCH  16  18
HETATM   18  O   UNK N   1      26.316  21.212   2.283  0.00  0.00    -0.776 OA
HETATM   19  H   UNK N   1      26.340  22.130   2.471  0.00  0.00     0.167 HD
ENDBRANCH  16  18
ENDBRANCH  15  16
ENDBRANCH  14  15
ENDBRANCH  13  14
ENDBRANCH  12  13
ENDBRANCH   7  12
TORSDOF 6
ENDMDL
MODEL 5
REMARK VINA RESULT:      -5.3      2.831      7.069
REMARK  6 active torsions:
REMARK  status: ('A' for Active; 'I' for Inactive)
REMARK    1  A    between atoms: O_3  and  C_16 
REMARK    2  A    between atoms: C_9  and  C_11 
REMARK    3  A    between atoms: C_11  and  C_12 
REMARK    4  A    between atoms: C_12  and  C_14 
REMARK    5  A    between atoms: C_14  and  C_15 
REMARK    6  A    between atoms: C_15  and  C_16 
ROOT
HETATM    1  S   UNK N   1      34.983  11.543  12.718  0.00  0.00    -0.160 SA
HETATM    2  O   UNK N   1      36.290  16.789  10.604  0.00  0.00    -0.247 OA
HETATM    3  N   UNK N   1      36.337  15.287  12.288  0.00  0.00    -0.335 N 
HETATM    4  N   UNK N   1      35.285  14.778  10.368  0.00  0.00    -0.336 N 
HETATM    5  C   UNK N   1      36.048  13.880  12.325  0.00  0.00     0.123 C 
HETATM    6  C   UNK N   1      34.935  13.751  11.314  0.00  0.00     0.119 C 
HETATM    7  C   UNK N   1      35.555  13.123  13.522  0.00  0.00     0.072 C 
HETATM    8  C   UNK N   1      34.936  12.280  11.011  0.00  0.00     0.101 C 
HETATM    9  C   UNK N   1      35.992  15.695  11.055  0.00  0.00     0.316 C 
HETATM   10  H   UNK N   1      36.711  15.837  13.015  0.00  0.00     0.164 HD
HETATM   11  H   UNK N   1      35.055  14.805   9.411  0.00  0.00     0.164 HD
ENDROOT
BRANCH   7  12
HETATM   12  C   UNK N   1      36.737  12.915  14.457  0.00  0.00     0.017 C 
BRANCH  12  13
HETATM   13  C   UNK N   1      36.387  12.107  15.687  0.00  0.00     0.002 C 
BRANCH  13  14
HETATM   14  C   UNK N   1      35.282  12.845  16.407  0.00  0.00     0.010 C 
BRANCH  14  15
HETATM   15  C   UNK N   1      35.174  12.378  17.847  0.00  0.00     0.110 C 
BRANCH  15  16
HETATM   16  C   UNK N   1      35.177  13.529  18.812  0.00  0.00     0.139 C 
HETATM   17  O   UNK N   1      34.887  13.366  19.988  0.00  0.00    -0.650 OA
BRANCH  16  18
HETATM   18  O   UNK N   1      35.522  14.754  18.377  0.00  0.00    -0.776 OA
HETATM   19  H   UNK N   1      36.234  14.856  17.777  0.00  0.00     0.167 HD
ENDBRANCH  16  18
ENDBRANCH  15  16
ENDBRANCH  14  15
ENDBRANCH  13  14
ENDBRANCH  12  13
ENDBRANCH   7  12
TORSDOF 6
ENDMDL
MODEL 6
REMARK VINA RESULT:      -5.1      5.956      8.104
REMARK  6 active torsions:
REMARK  status: ('A' for Active; 'I' for Inactive)
REMARK    1  A    between atoms: O_3  and  C_16 
REMARK    2  A    between atoms: C_9  and  C_11 
REMARK    3  A    between atoms: C_11  and  C_12 
REMARK    4  A    between atoms: C_12  and  C_14 
REMARK    5  A    between atoms: C_14  and  C_15 
REMARK    6  A    between atoms: C_15  and  C_16 
ROOT
HETATM    1  S   UNK N   1      28.969  16.822   5.032  0.00  0.00    -0.160 SA
HETATM    2  O   UNK N   1      29.716  18.854  10.419  0.00  0.00    -0.247 OA
HETATM    3  N   UNK N   1      30.383  17.538   8.710  0.00  0.00    -0.335 N 
HETATM    4  N   UNK N   1      28.493  18.740   8.522  0.00  0.00    -0.336 N 
HETATM    5  C   UNK N   1      29.984  17.484   7.331  0.00  0.00     0.123 C 
HETATM    6  C   UNK N   1      28.517  17.834   7.403  0.00  0.00     0.119 C 
HETATM    7  C   UNK N   1      30.034  16.267   6.456  0.00  0.00     0.072 C 
HETATM    8  C   UNK N   1      28.202  18.222   5.987  0.00  0.00     0.101 C 
HETATM    9  C   UNK N   1      29.543  18.408   9.296  0.00  0.00     0.316 C 
HETATM   10  H   UNK N   1      31.118  17.041   9.137  0.00  0.00     0.164 HD
HETATM   11  H   UNK N   1      27.841  19.458   8.687  0.00  0.00     0.164 HD
ENDROOT
BRANCH   7  12
HETATM   12  C   UNK N   1      31.486  16.045   6.056  0.00  0.00     0.017 C 
BRANCH  12  13
HETATM   13  C   UNK N   1      32.210  17.327   5.709  0.00  0.00     0.002 C 
BRANCH  13  14
HETATM   14  C   UNK N   1      33.599  17.228   6.295  0.00  0.00     0.010 C 
BRANCH  14  15
HETATM   15  C   UNK N   1      33.729  18.110   7.523  0.00  0.00     0.110 C 
BRANCH  15  16
HETATM   16  C   UNK N   1      34.042  17.313   8.757  0.00  0.00     0.139 C 
HETATM   17  O   UNK N   1      33.374  16.336   9.062  0.00  0.00    -0.650 OA
BRANCH  16  18
HETATM   18  O   UNK N   1      35.083  17.672   9.527  0.00  0.00    -0.776 OA
HETATM   19  H   UNK N   1      35.746  18.239   9.187  0.00  0.00     0.167 HD
ENDBRANCH  16  18
ENDBRANCH  15  16
ENDBRANCH  14  15
ENDBRANCH  13  14
ENDBRANCH  12  13
ENDBRANCH   7  12
TORSDOF 6
ENDMDL
MODEL 7
REMARK VINA RESULT:      -5.1     13.588     15.406
REMARK  6 active torsions:
REMARK  status: ('A' for Active; 'I' for Inactive)
REMARK    1  A    between atoms: O_3  and  C_16 
REMARK    2  A    between atoms: C_9  and  C_11 
REMARK    3  A    between atoms: C_11  and  C_12 
REMARK    4  A    between atoms: C_12  and  C_14 
REMARK    5  A    between atoms: C_14  and  C_15 
REMARK    6  A    between atoms: C_15  and  C_16 
ROOT
HETATM    1  S   UNK N   1      22.535  13.534   5.888  0.00  0.00    -0.160 SA
HETATM    2  O   UNK N   1      20.614  18.768   7.507  0.00  0.00    -0.247 OA
HETATM    3  N   UNK N   1      20.653  16.526   7.771  0.00  0.00    -0.335 N 
HETATM    4  N   UNK N   1      21.812  17.473   6.094  0.00  0.00    -0.336 N 
HETATM    5  C   UNK N   1      21.515  15.513   7.229  0.00  0.00     0.123 C 
HETATM    6  C   UNK N   1      21.828  16.054   5.854  0.00  0.00     0.119 C 
HETATM    7  C   UNK N   1      21.136  14.082   6.989  0.00  0.00     0.072 C 
HETATM    8  C   UNK N   1      23.048  15.271   5.464  0.00  0.00     0.101 C 
HETATM    9  C   UNK N   1      20.999  17.666   7.149  0.00  0.00     0.316 C 
HETATM   10  H   UNK N   1      19.954  16.409   8.454  0.00  0.00     0.164 HD
HETATM   11  H   UNK N   1      22.299  18.164   5.588  0.00  0.00     0.164 HD
ENDROOT
BRANCH   7  12
HETATM   12  C   UNK N   1      21.132  13.373   8.335  0.00  0.00     0.017 C 
BRANCH  12  13
HETATM   13  C   UNK N   1      22.415  13.565   9.113  0.00  0.00     0.002 C 
BRANCH  13  14
HETATM   14  C   UNK N   1      22.720  12.254   9.802  0.00  0.00     0.010 C 
BRANCH  14  15
HETATM   15  C   UNK N   1      22.181  12.256  11.221  0.00  0.00     0.110 C 
BRANCH  15  16
HETATM   16  C   UNK N   1      23.260  11.991  12.231  0.00  0.00     0.139 C 
HETATM   17  O   UNK N   1      22.994  11.528  13.330  0.00  0.00    -0.650 OA
BRANCH  16  18
HETATM   18  O   UNK N   1      24.540  12.252  11.913  0.00  0.00    -0.776 OA
HETATM   19  H   UNK N   1      25.008  12.925  12.366  0.00  0.00     0.167 HD
ENDBRANCH  16  18
ENDBRANCH  15  16
ENDBRANCH  14  15
ENDBRANCH  13  14
ENDBRANCH  12  13
ENDBRANCH   7  12
TORSDOF 6
ENDMDL
MODEL 8
REMARK VINA RESULT:      -5.1      2.451      2.834
REMARK  6 active torsions:
REMARK  status: ('A' for Active; 'I' for Inactive)
REMARK    1  A    between atoms: O_3  and  C_16 
REMARK    2  A    between atoms: C_9  and  C_11 
REMARK    3  A    between atoms: C_11  and  C_12 
REMARK    4  A    between atoms: C_12  and  C_14 
REMARK    5  A    between atoms: C_14  and  C_15 
REMARK    6  A    between atoms: C_15  and  C_16 
ROOT
HETATM    1  S   UNK N   1      37.512  13.417  10.551  0.00  0.00    -0.160 SA
HETATM    2  O   UNK N   1      33.612  10.468  13.681  0.00  0.00    -0.247 OA
HETATM    3  N   UNK N   1      34.569  12.422  13.078  0.00  0.00    -0.335 N 
HETATM    4  N   UNK N   1      35.345  10.491  12.231  0.00  0.00    -0.336 N 
HETATM    5  C   UNK N   1      35.459  12.761  12.002  0.00  0.00     0.123 C 
HETATM    6  C   UNK N   1      36.294  11.510  11.866  0.00  0.00     0.119 C 
HETATM    7  C   UNK N   1      36.460  13.877  12.018  0.00  0.00     0.072 C 
HETATM    8  C   UNK N   1      36.893  11.664  10.498  0.00  0.00     0.101 C 
HETATM    9  C   UNK N   1      34.450  11.084  13.042  0.00  0.00     0.316 C 
HETATM   10  H   UNK N   1      34.136  13.041  13.710  0.00  0.00     0.164 HD
HETATM   11  H   UNK N   1      35.350   9.549  11.944  0.00  0.00     0.164 HD
ENDROOT
BRANCH   7  12
HETATM   12  C   UNK N   1      35.701  15.181  11.814  0.00  0.00     0.017 C 
BRANCH  12  13
HETATM   13  C   UNK N   1      35.255  15.393  10.384  0.00  0.00     0.002 C 
BRANCH  13  14
HETATM   14  C   UNK N   1      35.143  16.884  10.168  0.00  0.00     0.010 C 
BRANCH  14  15
HETATM   15  C   UNK N   1      34.135  17.195   9.076  0.00  0.00     0.110 C 
BRANCH  15  16
HETATM   16  C   UNK N   1      34.637  18.250   8.133  0.00  0.00     0.139 C 
HETATM   17  O   UNK N   1      35.279  19.206   8.541  0.00  0.00    -0.650 OA
BRANCH  16  18
HETATM   18  O   UNK N   1      34.389  18.130   6.817  0.00  0.00    -0.776 OA
HETATM   19  H   UNK N   1      34.654  17.357   6.357  0.00  0.00     0.167 HD
ENDBRANCH  16  18
ENDBRANCH  15  16
ENDBRANCH  14  15
ENDBRANCH  13  14
ENDBRANCH  12  13
ENDBRANCH   7  12
TORSDOF 6
ENDMDL
MODEL 9
REMARK VINA RESULT:      -5.1     16.058     17.927
REMARK  6 active torsions:
REMARK  status: ('A' for Active; 'I' for Inactive)
REMARK    1  A    between atoms: O_3  and  C_16 
REMARK    2  A    between atoms: C_9  and  C_11 
REMARK    3  A    between atoms: C_11  and  C_12 
REMARK    4  A    between atoms: C_12  and  C_14 
REMARK    5  A    between atoms: C_14  and  C_15 
REMARK    6  A    between atoms: C_15  and  C_16 
ROOT
HETATM    1  S   UNK N   1      20.486  15.777   3.447  0.00  0.00    -0.160 SA
HETATM    2  O   UNK N   1      21.140  21.265   1.671  0.00  0.00    -0.247 OA
HETATM    3  N   UNK N   1      21.424  19.665   3.238  0.00  0.00    -0.335 N 
HETATM    4  N   UNK N   1      20.339  19.179   1.330  0.00  0.00    -0.336 N 
HETATM    5  C   UNK N   1      21.284  18.236   3.184  0.00  0.00     0.123 C 
HETATM    6  C   UNK N   1      20.143  18.058   2.211  0.00  0.00     0.119 C 
HETATM    7  C   UNK N   1      20.929  17.350   4.340  0.00  0.00     0.072 C 
HETATM    8  C   UNK N   1      20.282  16.620   1.802  0.00  0.00     0.101 C 
HETATM    9  C   UNK N   1      20.979  20.117   2.053  0.00  0.00     0.316 C 
HETATM   10  H   UNK N   1      21.772  20.200   3.987  0.00  0.00     0.164 HD
HETATM   11  H   UNK N   1      20.062  19.247   0.387  0.00  0.00     0.164 HD
ENDROOT
BRANCH   7  12
HETATM   12  C   UNK N   1      22.170  17.206   5.210  0.00  0.00     0.017 C 
BRANCH  12  13
HETATM   13  C   UNK N   1      21.890  16.544   6.541  0.00  0.00     0.002 C 
BRANCH  13  14
HETATM   14  C   UNK N   1      20.635  17.175   7.099  0.00  0.00     0.010 C 
BRANCH  14  15
HETATM   15  C   UNK N   1      20.201  16.474   8.373  0.00  0.00     0.110 C 
BRANCH  15  16
HETATM   16  C   UNK N   1      18.933  17.054   8.929  0.00  0.00     0.139 C 
HETATM   17  O   UNK N   1      17.929  16.368   9.057  0.00  0.00    -0.650 OA
BRANCH  16  18
HETATM   18  O   UNK N   1      18.907  18.344   9.307  0.00  0.00    -0.776 OA
HETATM   19  H   UNK N   1      19.157  19.015   8.703  0.00  0.00     0.167 HD
ENDBRANCH  16  18
ENDBRANCH  15  16
ENDBRANCH  14  15
ENDBRANCH  13  14
ENDBRANCH  12  13
ENDBRANCH   7  12
TORSDOF 6
ENDMDL
