MODEL 1
REMARK VINA RESULT:      -4.0      0.000      0.000
REMARK  13 active torsions:
REMARK  status: ('A' for Active; 'I' for Inactive)
REMARK    1  A    between atoms: N_1  and  C_7 
REMARK    2  A    between atoms: N_1  and  C_9 
REMARK    3  A    between atoms: N_2  and  C_8 
REMARK    4  A    between atoms: N_2  and  C_10 
REMARK    5  A    between atoms: N_3  and  C_13 
REMARK    6  A    between atoms: N_4  and  C_14 
REMARK    7  A    between atoms: C_5  and  C_6 
REMARK    8  A    between atoms: C_5  and  C_7 
REMARK    9  A    between atoms: C_6  and  C_8 
REMARK   10  A    between atoms: C_9  and  C_11 
REMARK   11  A    between atoms: C_10  and  C_12 
REMARK   12  A    between atoms: C_11  and  C_13 
REMARK   13  A    between atoms: C_12  and  C_14 
ROOT
HETATM    1  C   UNK N   1      34.116  18.150   8.055  0.00  0.00     0.021 C 
ENDROOT
BRANCH   1   2
HETATM    2  C   UNK N   1      33.456  17.664   6.790  0.00  0.00     0.021 C 
BRANCH   2   3
HETATM    3  C   UNK N   1      32.332  16.725   7.153  0.00  0.00     0.113 C 
BRANCH   3   4
HETATM    4  N   UNK N   1      31.150  17.509   7.444  0.00  0.00    -0.421 N 
HETATM    5  H   UNK N   1      30.665  18.139   6.805  0.00  0.00     0.153 HD
BRANCH   4   6
HETATM    6  C   UNK N   1      30.787  17.228   8.818  0.00  0.00     0.115 C 
BRANCH   6   7
HETATM    7  C   UNK N   1      29.970  18.382   9.347  0.00  0.00     0.038 C 
BRANCH   7   8
HETATM    8  C   UNK N   1      28.871  18.720   8.366  0.00  0.00     0.112 C 
BRANCH   8   9
HETATM    9  N   UNK N   1      27.585  18.509   9.003  0.00  0.00    -0.430 N 
HETATM   10  H   UNK N   1      26.739  18.894   8.585  0.00  0.00     0.149 HD
HETATM   11  H   UNK N   1      27.528  17.976   9.871  0.00  0.00     0.149 HD
ENDBRANCH   8   9
ENDBRANCH   7   8
ENDBRANCH   6   7
ENDBRANCH   4   6
ENDBRANCH   3   4
ENDBRANCH   2   3
ENDBRANCH   1   2
BRANCH   1  12
HETATM   12  C   UNK N   1      34.703  16.970   8.788  0.00  0.00     0.113 C 
BRANCH  12  13
HETATM   13  N   UNK N   1      34.773  17.289  10.199  0.00  0.00    -0.421 N 
HETATM   14  H   UNK N   1      34.364  18.103  10.658  0.00  0.00     0.153 HD
BRANCH  13  15
HETATM   15  C   UNK N   1      35.533  16.232  10.832  0.00  0.00     0.115 C 
BRANCH  15  16
HETATM   16  C   UNK N   1      34.627  15.041  11.035  0.00  0.00     0.038 C 
BRANCH  16  17
HETATM   17  C   UNK N   1      35.323  14.013  11.897  0.00  0.00     0.112 C 
BRANCH  17  18
HETATM   18  N   UNK N   1      34.528  12.800  11.923  0.00  0.00    -0.430 N 
HETATM   19  H   UNK N   1      34.058  12.479  11.076  0.00  0.00     0.149 HD
HETATM   20  H   UNK N   1      34.438  12.268  12.789  0.00  0.00     0.149 HD
ENDBRANCH  17  18
ENDBRANCH  16  17
ENDBRANCH  15  16
ENDBRANCH  13  15
ENDBRANCH  12  13
ENDBRANCH   1  12
TORSDOF 13
ENDMDL
MODEL 2
REMARK VINA RESULT:      -3.8      2.715      7.610
REMARK  13 active torsions:
REMARK  status: ('A' for Active; 'I' for Inactive)
REMARK    1  A    between atoms: N_1  and  C_7 
REMARK    2  A    between atoms: N_1  and  C_9 
REMARK    3  A    between atoms: N_2  and  C_8 
REMARK    4  A    between atoms: N_2  and  C_10 
REMARK    5  A    between atoms: N_3  and  C_13 
REMARK    6  A    between atoms: N_4  and  C_14 
REMARK    7  A    between atoms: C_5  and  C_6 
REMARK    8  A    between atoms: C_5  and  C_7 
REMARK    9  A    between atoms: C_6  and  C_8 
REMARK   10  A    between atoms: C_9  and  C_11 
REMARK   11  A    between atoms: C_10  and  C_12 
REMARK   12  A    between atoms: C_11  and  C_13 
REMARK   13  A    between atoms: C_12  and  C_14 
ROOT
HETATM    1  C   UNK N   1      35.243  14.995  11.224  0.00  0.00     0.021 C 
ENDROOT
BRANCH   1   2
HETATM    2  C   UNK N   1      35.771  14.595  12.578  0.00  0.00     0.021 C 
BRANCH   2   3
HETATM    3  C   UNK N   1      36.659  13.386  12.421  0.00  0.00     0.113 C 
BRANCH   3   4
HETATM    4  N   UNK N   1      37.201  13.037  13.718  0.00  0.00    -0.421 N 
HETATM    5  H   UNK N   1      38.010  12.443  13.900  0.00  0.00     0.153 HD
BRANCH   4   6
HETATM    6  C   UNK N   1      36.373  13.694  14.709  0.00  0.00     0.115 C 
BRANCH   6   7
HETATM    7  C   UNK N   1      36.087  12.715  15.823  0.00  0.00     0.038 C 
BRANCH   7   8
HETATM    8  C   UNK N   1      34.805  13.103  16.524  0.00  0.00     0.112 C 
BRANCH   8   9
HETATM    9  N   UNK N   1      35.130  13.770  17.771  0.00  0.00    -0.430 N 
HETATM   10  H   UNK N   1      35.536  14.705  17.758  0.00  0.00     0.149 HD
HETATM   11  H   UNK N   1      34.951  13.304  18.660  0.00  0.00     0.149 HD
ENDBRANCH   8   9
ENDBRANCH   7   8
ENDBRANCH   6   7
ENDBRANCH   4   6
ENDBRANCH   3   4
ENDBRANCH   2   3
ENDBRANCH   1   2
BRANCH   1  12
HETATM   12  C   UNK N   1      35.851  16.319  10.832  0.00  0.00     0.113 C 
BRANCH  12  13
HETATM   13  N   UNK N   1      34.798  17.186  10.345  0.00  0.00    -0.421 N 
HETATM   14  H   UNK N   1      34.294  17.891  10.883  0.00  0.00     0.153 HD
BRANCH  13  15
HETATM   15  C   UNK N   1      34.598  16.859   8.948  0.00  0.00     0.115 C 
BRANCH  15  16
HETATM   16  C   UNK N   1      33.894  18.015   8.278  0.00  0.00     0.038 C 
BRANCH  16  17
HETATM   17  C   UNK N   1      32.509  17.589   7.850  0.00  0.00     0.112 C 
BRANCH  17  18
HETATM   18  N   UNK N   1      31.574  17.869   8.923  0.00  0.00    -0.430 N 
HETATM   19  H   UNK N   1      30.936  17.142   9.247  0.00  0.00     0.149 HD
HETATM   20  H   UNK N   1      31.555  18.794   9.354  0.00  0.00     0.149 HD
ENDBRANCH  17  18
ENDBRANCH  16  17
ENDBRANCH  15  16
ENDBRANCH  13  15
ENDBRANCH  12  13
ENDBRANCH   1  12
TORSDOF 13
ENDMDL
MODEL 3
REMARK VINA RESULT:      -3.8      2.883      4.811
REMARK  13 active torsions:
REMARK  status: ('A' for Active; 'I' for Inactive)
REMARK    1  A    between atoms: N_1  and  C_7 
REMARK    2  A    between atoms: N_1  and  C_9 
REMARK    3  A    between atoms: N_2  and  C_8 
REMARK    4  A    between atoms: N_2  and  C_10 
REMARK    5  A    between atoms: N_3  and  C_13 
REMARK    6  A    between atoms: N_4  and  C_14 
REMARK    7  A    between atoms: C_5  and  C_6 
REMARK    8  A    between atoms: C_5  and  C_7 
REMARK    9  A    between atoms: C_6  and  C_8 
REMARK   10  A    between atoms: C_9  and  C_11 
REMARK   11  A    between atoms: C_10  and  C_12 
REMARK   12  A    between atoms: C_11  and  C_13 
REMARK   13  A    between atoms: C_12  and  C_14 
ROOT
HETATM    1  C   UNK N   1      29.673  18.324   9.234  0.00  0.00     0.021 C 
ENDROOT
BRANCH   1   2
HETATM    2  C   UNK N   1      28.300  18.184   8.630  0.00  0.00     0.021 C 
BRANCH   2   3
HETATM    3  C   UNK N   1      28.063  19.331   7.679  0.00  0.00     0.113 C 
BRANCH   3   4
HETATM    4  N   UNK N   1      27.348  18.832   6.522  0.00  0.00    -0.421 N 
HETATM    5  H   UNK N   1      27.156  17.856   6.300  0.00  0.00     0.153 HD
BRANCH   4   6
HETATM    6  C   UNK N   1      26.958  19.987   5.740  0.00  0.00     0.115 C 
BRANCH   6   7
HETATM    7  C   UNK N   1      27.425  19.787   4.318  0.00  0.00     0.038 C 
BRANCH   7   8
HETATM    8  C   UNK N   1      26.404  20.359   3.361  0.00  0.00     0.112 C 
BRANCH   8   9
HETATM    9  N   UNK N   1      25.099  19.810   3.677  0.00  0.00    -0.430 N 
HETATM   10  H   UNK N   1      24.273  20.406   3.644  0.00  0.00     0.149 HD
HETATM   11  H   UNK N   1      25.009  18.826   3.932  0.00  0.00     0.149 HD
ENDBRANCH   8   9
ENDBRANCH   7   8
ENDBRANCH   6   7
ENDBRANCH   4   6
ENDBRANCH   3   4
ENDBRANCH   2   3
ENDBRANCH   1   2
BRANCH   1  12
HETATM   12  C   UNK N   1      30.674  17.625   8.347  0.00  0.00     0.113 C 
BRANCH  12  13
HETATM   13  N   UNK N   1      31.986  17.743   8.948  0.00  0.00    -0.421 N 
HETATM   14  H   UNK N   1      32.203  17.714   9.944  0.00  0.00     0.153 HD
BRANCH  13  15
HETATM   15  C   UNK N   1      32.931  17.909   7.863  0.00  0.00     0.115 C 
BRANCH  15  16
HETATM   16  C   UNK N   1      34.330  17.870   8.431  0.00  0.00     0.038 C 
BRANCH  16  17
HETATM   17  C   UNK N   1      34.469  16.686   9.360  0.00  0.00     0.112 C 
BRANCH  17  18
HETATM   18  N   UNK N   1      35.068  17.128  10.605  0.00  0.00    -0.430 N 
HETATM   19  H   UNK N   1      35.203  16.467  11.369  0.00  0.00     0.149 HD
HETATM   20  H   UNK N   1      35.354  18.101  10.715  0.00  0.00     0.149 HD
ENDBRANCH  17  18
ENDBRANCH  16  17
ENDBRANCH  15  16
ENDBRANCH  13  15
ENDBRANCH  12  13
ENDBRANCH   1  12
TORSDOF 13
ENDMDL
MODEL 4
REMARK VINA RESULT:      -3.8      2.174      7.520
REMARK  13 active torsions:
REMARK  status: ('A' for Active; 'I' for Inactive)
REMARK    1  A    between atoms: N_1  and  C_7 
REMARK    2  A    between atoms: N_1  and  C_9 
REMARK    3  A    between atoms: N_2  and  C_8 
REMARK    4  A    between atoms: N_2  and  C_10 
REMARK    5  A    between atoms: N_3  and  C_13 
REMARK    6  A    between atoms: N_4  and  C_14 
REMARK    7  A    between atoms: C_5  and  C_6 
REMARK    8  A    between atoms: C_5  and  C_7 
REMARK    9  A    between atoms: C_6  and  C_8 
REMARK   10  A    between atoms: C_9  and  C_11 
REMARK   11  A    between atoms: C_10  and  C_12 
REMARK   12  A    between atoms: C_11  and  C_13 
REMARK   13  A    between atoms: C_12  and  C_14 
ROOT
HETATM    1  C   UNK N   1      29.713  17.816   8.226  0.00  0.00     0.021 C 
ENDROOT
BRANCH   1   2
HETATM    2  C   UNK N   1      31.160  17.979   8.613  0.00  0.00     0.021 C 
BRANCH   2   3
HETATM    3  C   UNK N   1      31.901  16.705   8.292  0.00  0.00     0.113 C 
BRANCH   3   4
HETATM    4  N   UNK N   1      32.826  16.423   9.370  0.00  0.00    -0.421 N 
HETATM    5  H   UNK N   1      32.603  15.985  10.264  0.00  0.00     0.153 HD
BRANCH   4   6
HETATM    6  C   UNK N   1      34.129  16.884   8.937  0.00  0.00     0.115 C 
BRANCH   6   7
HETATM    7  C   UNK N   1      35.184  15.993   9.547  0.00  0.00     0.038 C 
BRANCH   7   8
HETATM    8  C   UNK N   1      35.376  16.356  11.002  0.00  0.00     0.112 C 
BRANCH   8   9
HETATM    9  N   UNK N   1      36.454  15.556  11.551  0.00  0.00    -0.430 N 
HETATM   10  H   UNK N   1      36.587  14.594  11.238  0.00  0.00     0.149 HD
HETATM   11  H   UNK N   1      37.080  15.955  12.252  0.00  0.00     0.149 HD
ENDBRANCH   8   9
ENDBRANCH   7   8
ENDBRANCH   6   7
ENDBRANCH   4   6
ENDBRANCH   3   4
ENDBRANCH   2   3
ENDBRANCH   1   2
BRANCH   1  12
HETATM   12  C   UNK N   1      28.859  18.637   9.160  0.00  0.00     0.113 C 
BRANCH  12  13
HETATM   13  N   UNK N   1      27.613  18.952   8.493  0.00  0.00    -0.421 N 
HETATM   14  H   UNK N   1      26.694  19.035   8.929  0.00  0.00     0.153 HD
BRANCH  13  15
HETATM   15  C   UNK N   1      27.921  19.126   7.088  0.00  0.00     0.115 C 
BRANCH  15  16
HETATM   16  C   UNK N   1      27.311  20.425   6.618  0.00  0.00     0.038 C 
BRANCH  16  17
HETATM   17  C   UNK N   1      27.539  20.586   5.133  0.00  0.00     0.112 C 
BRANCH  17  18
HETATM   18  N   UNK N   1      28.370  19.495   4.660  0.00  0.00    -0.430 N 
HETATM   19  H   UNK N   1      27.994  18.548   4.619  0.00  0.00     0.149 HD
HETATM   20  H   UNK N   1      29.331  19.675   4.368  0.00  0.00     0.149 HD
ENDBRANCH  17  18
ENDBRANCH  16  17
ENDBRANCH  15  16
ENDBRANCH  13  15
ENDBRANCH  12  13
ENDBRANCH   1  12
TORSDOF 13
ENDMDL
MODEL 5
REMARK VINA RESULT:      -3.8      1.748      6.753
REMARK  13 active torsions:
REMARK  status: ('A' for Active; 'I' for Inactive)
REMARK    1  A    between atoms: N_1  and  C_7 
REMARK    2  A    between atoms: N_1  and  C_9 
REMARK    3  A    between atoms: N_2  and  C_8 
REMARK    4  A    between atoms: N_2  and  C_10 
REMARK    5  A    between atoms: N_3  and  C_13 
REMARK    6  A    between atoms: N_4  and  C_14 
REMARK    7  A    between atoms: C_5  and  C_6 
REMARK    8  A    between atoms: C_5  and  C_7 
REMARK    9  A    between atoms: C_6  and  C_8 
REMARK   10  A    between atoms: C_9  and  C_11 
REMARK   11  A    between atoms: C_10  and  C_12 
REMARK   12  A    between atoms: C_11  and  C_13 
REMARK   13  A    between atoms: C_12  and  C_14 
ROOT
HETATM    1  C   UNK N   1      32.458  15.501   7.974  0.00  0.00     0.021 C 
ENDROOT
BRANCH   1   2
HETATM    2  C   UNK N   1      32.609  15.137   9.429  0.00  0.00     0.021 C 
BRANCH   2   3
HETATM    3  C   UNK N   1      34.078  15.067   9.767  0.00  0.00     0.113 C 
BRANCH   3   4
HETATM    4  N   UNK N   1      34.429  16.235  10.548  0.00  0.00    -0.421 N 
HETATM    5  H   UNK N   1      33.939  17.129  10.559  0.00  0.00     0.153 HD
BRANCH   4   6
HETATM    6  C   UNK N   1      35.610  15.889  11.312  0.00  0.00     0.115 C 
BRANCH   6   7
HETATM    7  C   UNK N   1      35.324  14.634  12.101  0.00  0.00     0.038 C 
BRANCH   7   8
HETATM    8  C   UNK N   1      36.566  13.775  12.161  0.00  0.00     0.112 C 
BRANCH   8   9
HETATM    9  N   UNK N   1      37.014  13.684  13.538  0.00  0.00    -0.430 N 
HETATM   10  H   UNK N   1      37.986  13.457  13.744  0.00  0.00     0.149 HD
HETATM   11  H   UNK N   1      36.355  13.848  14.300  0.00  0.00     0.149 HD
ENDBRANCH   8   9
ENDBRANCH   7   8
ENDBRANCH   6   7
ENDBRANCH   4   6
ENDBRANCH   3   4
ENDBRANCH   2   3
ENDBRANCH   1   2
BRANCH   1  12
HETATM   12  C   UNK N   1      31.444  16.611   7.849  0.00  0.00     0.113 C 
BRANCH  12  13
HETATM   13  N   UNK N   1      31.514  17.439   9.035  0.00  0.00    -0.421 N 
HETATM   14  H   UNK N   1      32.130  17.300   9.837  0.00  0.00     0.153 HD
BRANCH  13  15
HETATM   15  C   UNK N   1      30.543  18.499   8.865  0.00  0.00     0.115 C 
BRANCH  15  16
HETATM   16  C   UNK N   1      29.446  18.318   9.888  0.00  0.00     0.038 C 
BRANCH  16  17
HETATM   17  C   UNK N   1      28.189  17.830   9.205  0.00  0.00     0.112 C 
BRANCH  17  18
HETATM   18  N   UNK N   1      27.470  18.969   8.666  0.00  0.00    -0.430 N 
HETATM   19  H   UNK N   1      27.414  19.105   7.657  0.00  0.00     0.149 HD
HETATM   20  H   UNK N   1      27.021  19.633   9.297  0.00  0.00     0.149 HD
ENDBRANCH  17  18
ENDBRANCH  16  17
ENDBRANCH  15  16
ENDBRANCH  13  15
ENDBRANCH  12  13
ENDBRANCH   1  12
TORSDOF 13
ENDMDL
MODEL 6
REMARK VINA RESULT:      -3.8      2.719      8.028
REMARK  13 active torsions:
REMARK  status: ('A' for Active; 'I' for Inactive)
REMARK    1  A    between atoms: N_1  and  C_7 
REMARK    2  A    between atoms: N_1  and  C_9 
REMARK    3  A    between atoms: N_2  and  C_8 
REMARK    4  A    between atoms: N_2  and  C_10 
REMARK    5  A    between atoms: N_3  and  C_13 
REMARK    6  A    between atoms: N_4  and  C_14 
REMARK    7  A    between atoms: C_5  and  C_6 
REMARK    8  A    between atoms: C_5  and  C_7 
REMARK    9  A    between atoms: C_6  and  C_8 
REMARK   10  A    between atoms: C_9  and  C_11 
REMARK   11  A    between atoms: C_10  and  C_12 
REMARK   12  A    between atoms: C_11  and  C_13 
REMARK   13  A    between atoms: C_12  and  C_14 
ROOT
HETATM    1  C   UNK N   1      28.250  18.637   8.594  0.00  0.00     0.021 C 
ENDROOT
BRANCH   1   2
HETATM    2  C   UNK N   1      29.016  17.716   9.509  0.00  0.00     0.021 C 
BRANCH   2   3
HETATM    3  C   UNK N   1      30.186  17.135   8.755  0.00  0.00     0.113 C 
BRANCH   3   4
HETATM    4  N   UNK N   1      31.388  17.837   9.153  0.00  0.00    -0.421 N 
HETATM    5  H   UNK N   1      31.499  18.439   9.969  0.00  0.00     0.153 HD
BRANCH   4   6
HETATM    6  C   UNK N   1      32.404  17.520   8.171  0.00  0.00     0.115 C 
BRANCH   6   7
HETATM    7  C   UNK N   1      33.264  16.402   8.711  0.00  0.00     0.038 C 
BRANCH   7   8
HETATM    8  C   UNK N   1      34.650  16.926   9.010  0.00  0.00     0.112 C 
BRANCH   8   9
HETATM    9  N   UNK N   1      34.795  17.090  10.444  0.00  0.00    -0.430 N 
HETATM   10  H   UNK N   1      34.620  16.303  11.068  0.00  0.00     0.149 HD
HETATM   11  H   UNK N   1      35.073  17.994  10.828  0.00  0.00     0.149 HD
ENDBRANCH   8   9
ENDBRANCH   7   8
ENDBRANCH   6   7
ENDBRANCH   4   6
ENDBRANCH   3   4
ENDBRANCH   2   3
ENDBRANCH   1   2
BRANCH   1  12
HETATM   12  C   UNK N   1      28.084  17.969   7.252  0.00  0.00     0.113 C 
BRANCH  12  13
HETATM   13  N   UNK N   1      27.153  18.746   6.460  0.00  0.00    -0.421 N 
HETATM   14  H   UNK N   1      26.466  18.382   5.800  0.00  0.00     0.153 HD
BRANCH  13  15
HETATM   15  C   UNK N   1      27.386  20.138   6.785  0.00  0.00     0.115 C 
BRANCH  15  16
HETATM   16  C   UNK N   1      27.236  20.958   5.526  0.00  0.00     0.038 C 
BRANCH  16  17
HETATM   17  C   UNK N   1      26.099  20.410   4.694  0.00  0.00     0.112 C 
BRANCH  17  18
HETATM   18  N   UNK N   1      26.411  20.592   3.289  0.00  0.00    -0.430 N 
HETATM   19  H   UNK N   1      25.691  20.439   2.583  0.00  0.00     0.149 HD
HETATM   20  H   UNK N   1      27.350  20.873   3.007  0.00  0.00     0.149 HD
ENDBRANCH  17  18
ENDBRANCH  16  17
ENDBRANCH  15  16
ENDBRANCH  13  15
ENDBRANCH  12  13
ENDBRANCH   1  12
TORSDOF 13
ENDMDL
MODEL 7
REMARK VINA RESULT:      -3.7      2.712      4.573
REMARK  13 active torsions:
REMARK  status: ('A' for Active; 'I' for Inactive)
REMARK    1  A    between atoms: N_1  and  C_7 
REMARK    2  A    between atoms: N_1  and  C_9 
REMARK    3  A    between atoms: N_2  and  C_8 
REMARK    4  A    between atoms: N_2  and  C_10 
REMARK    5  A    between atoms: N_3  and  C_13 
REMARK    6  A    between atoms: N_4  and  C_14 
REMARK    7  A    between atoms: C_5  and  C_6 
REMARK    8  A    between atoms: C_5  and  C_7 
REMARK    9  A    between atoms: C_6  and  C_8 
REMARK   10  A    between atoms: C_9  and  C_11 
REMARK   11  A    between atoms: C_10  and  C_12 
REMARK   12  A    between atoms: C_11  and  C_13 
REMARK   13  A    between atoms: C_12  and  C_14 
ROOT
HETATM    1  C   UNK N   1      29.326  17.396   7.385  0.00  0.00     0.021 C 
ENDROOT
BRANCH   1   2
HETATM    2  C   UNK N   1      29.177  17.074   5.920  0.00  0.00     0.021 C 
BRANCH   2   3
HETATM    3  C   UNK N   1      28.080  17.930   5.338  0.00  0.00     0.113 C 
BRANCH   3   4
HETATM    4  N   UNK N   1      28.681  19.086   4.705  0.00  0.00    -0.421 N 
HETATM    5  H   UNK N   1      29.568  19.112   4.201  0.00  0.00     0.153 HD
BRANCH   4   6
HETATM    6  C   UNK N   1      27.781  20.200   4.924  0.00  0.00     0.115 C 
BRANCH   6   7
HETATM    7  C   UNK N   1      27.589  20.379   6.411  0.00  0.00     0.038 C 
BRANCH   7   8
HETATM    8  C   UNK N   1      26.457  21.347   6.665  0.00  0.00     0.112 C 
BRANCH   8   9
HETATM    9  N   UNK N   1      25.904  21.095   7.982  0.00  0.00    -0.430 N 
HETATM   10  H   UNK N   1      26.294  21.566   8.798  0.00  0.00     0.149 HD
HETATM   11  H   UNK N   1      25.124  20.447   8.092  0.00  0.00     0.149 HD
ENDBRANCH   8   9
ENDBRANCH   7   8
ENDBRANCH   6   7
ENDBRANCH   4   6
ENDBRANCH   3   4
ENDBRANCH   2   3
ENDBRANCH   1   2
BRANCH   1  12
HETATM   12  C   UNK N   1      30.792  17.396   7.741  0.00  0.00     0.113 C 
BRANCH  12  13
HETATM   13  N   UNK N   1      31.424  16.263   7.098  0.00  0.00    -0.421 N 
HETATM   14  H   UNK N   1      30.954  15.503   6.606  0.00  0.00     0.153 HD
BRANCH  13  15
HETATM   15  C   UNK N   1      32.852  16.416   7.288  0.00  0.00     0.115 C 
BRANCH  15  16
HETATM   16  C   UNK N   1      33.131  17.832   7.731  0.00  0.00     0.038 C 
BRANCH  16  17
HETATM   17  C   UNK N   1      34.501  17.908   8.363  0.00  0.00     0.112 C 
BRANCH  17  18
HETATM   18  N   UNK N   1      34.442  17.331   9.693  0.00  0.00    -0.430 N 
HETATM   19  H   UNK N   1      34.265  16.334   9.809  0.00  0.00     0.149 HD
HETATM   20  H   UNK N   1      34.579  17.925  10.512  0.00  0.00     0.149 HD
ENDBRANCH  17  18
ENDBRANCH  16  17
ENDBRANCH  15  16
ENDBRANCH  13  15
ENDBRANCH  12  13
ENDBRANCH   1  12
TORSDOF 13
ENDMDL
MODEL 8
REMARK VINA RESULT:      -3.7      4.114      6.905
REMARK  13 active torsions:
REMARK  status: ('A' for Active; 'I' for Inactive)
REMARK    1  A    between atoms: N_1  and  C_7 
REMARK    2  A    between atoms: N_1  and  C_9 
REMARK    3  A    between atoms: N_2  and  C_8 
REMARK    4  A    between atoms: N_2  and  C_10 
REMARK    5  A    between atoms: N_3  and  C_13 
REMARK    6  A    between atoms: N_4  and  C_14 
REMARK    7  A    between atoms: C_5  and  C_6 
REMARK    8  A    between atoms: C_5  and  C_7 
REMARK    9  A    between atoms: C_6  and  C_8 
REMARK   10  A    between atoms: C_9  and  C_11 
REMARK   11  A    between atoms: C_10  and  C_12 
REMARK   12  A    between atoms: C_11  and  C_13 
REMARK   13  A    between atoms: C_12  and  C_14 
ROOT
HETATM    1  C   UNK N   1      36.480  13.144  13.904  0.00  0.00     0.021 C 
ENDROOT
BRANCH   1   2
HETATM    2  C   UNK N   1      36.334  14.601  13.547  0.00  0.00     0.021 C 
BRANCH   2   3
HETATM    3  C   UNK N   1      35.737  14.711  12.166  0.00  0.00     0.113 C 
BRANCH   3   4
HETATM    4  N   UNK N   1      36.517  15.659  11.398  0.00  0.00    -0.421 N 
HETATM    5  H   UNK N   1      37.523  15.812  11.463  0.00  0.00     0.153 HD
BRANCH   4   6
HETATM    6  C   UNK N   1      35.594  16.348  10.521  0.00  0.00     0.115 C 
BRANCH   6   7
HETATM    7  C   UNK N   1      34.384  15.470  10.308  0.00  0.00     0.038 C 
BRANCH   7   8
HETATM    8  C   UNK N   1      33.740  15.803   8.982  0.00  0.00     0.112 C 
BRANCH   8   9
HETATM    9  N   UNK N   1      32.670  16.758   9.200  0.00  0.00    -0.430 N 
HETATM   10  H   UNK N   1      32.770  17.719   8.876  0.00  0.00     0.149 HD
HETATM   11  H   UNK N   1      31.817  16.466   9.679  0.00  0.00     0.149 HD
ENDBRANCH   8   9
ENDBRANCH   7   8
ENDBRANCH   6   7
ENDBRANCH   4   6
ENDBRANCH   3   4
ENDBRANCH   2   3
ENDBRANCH   1   2
BRANCH   1  12
HETATM   12  C   UNK N   1      36.759  13.027  15.382  0.00  0.00     0.113 C 
BRANCH  12  13
HETATM   13  N   UNK N   1      35.747  12.180  15.979  0.00  0.00    -0.421 N 
HETATM   14  H   UNK N   1      35.761  11.161  16.031  0.00  0.00     0.153 HD
BRANCH  13  15
HETATM   15  C   UNK N   1      34.711  13.056  16.485  0.00  0.00     0.115 C 
BRANCH  15  16
HETATM   16  C   UNK N   1      35.166  13.626  17.808  0.00  0.00     0.038 C 
BRANCH  16  17
HETATM   17  C   UNK N   1      35.215  12.527  18.845  0.00  0.00     0.112 C 
BRANCH  17  18
HETATM   18  N   UNK N   1      35.126  13.118  20.167  0.00  0.00    -0.430 N 
HETATM   19  H   UNK N   1      35.644  13.970  20.380  0.00  0.00     0.149 HD
HETATM   20  H   UNK N   1      34.544  12.682  20.882  0.00  0.00     0.149 HD
ENDBRANCH  17  18
ENDBRANCH  16  17
ENDBRANCH  15  16
ENDBRANCH  13  15
ENDBRANCH  12  13
ENDBRANCH   1  12
TORSDOF 13
ENDMDL
MODEL 9
REMARK VINA RESULT:      -3.7      2.696      4.639
REMARK  13 active torsions:
REMARK  status: ('A' for Active; 'I' for Inactive)
REMARK    1  A    between atoms: N_1  and  C_7 
REMARK    2  A    between atoms: N_1  and  C_9 
REMARK    3  A    between atoms: N_2  and  C_8 
REMARK    4  A    between atoms: N_2  and  C_10 
REMARK    5  A    between atoms: N_3  and  C_13 
REMARK    6  A    between atoms: N_4  and  C_14 
REMARK    7  A    between atoms: C_5  and  C_6 
REMARK    8  A    between atoms: C_5  and  C_7 
REMARK    9  A    between atoms: C_6  and  C_8 
REMARK   10  A    between atoms: C_9  and  C_11 
REMARK   11  A    between atoms: C_10  and  C_12 
REMARK   12  A    between atoms: C_11  and  C_13 
REMARK   13  A    between atoms: C_12  and  C_14 
ROOT
HETATM    1  C   UNK N   1      36.335  14.308  11.380  0.00  0.00     0.021 C 
ENDROOT
BRANCH   1   2
HETATM    2  C   UNK N   1      36.028  15.228  10.226  0.00  0.00     0.021 C 
BRANCH   2   3
HETATM    3  C   UNK N   1      35.611  16.572  10.768  0.00  0.00     0.113 C 
BRANCH   3   4
HETATM    4  N   UNK N   1      34.395  16.985  10.098  0.00  0.00    -0.421 N 
HETATM    5  H   UNK N   1      33.699  17.641  10.450  0.00  0.00     0.153 HD
BRANCH   4   6
HETATM    6  C   UNK N   1      34.357  16.286   8.830  0.00  0.00     0.115 C 
BRANCH   6   7
HETATM    7  C   UNK N   1      32.980  16.447   8.232  0.00  0.00     0.038 C 
BRANCH   7   8
HETATM    8  C   UNK N   1      32.512  17.873   8.408  0.00  0.00     0.112 C 
BRANCH   8   9
HETATM    9  N   UNK N   1      31.175  17.867   8.972  0.00  0.00    -0.430 N 
HETATM   10  H   UNK N   1      30.979  18.390   9.825  0.00  0.00     0.149 HD
HETATM   11  H   UNK N   1      30.431  17.340   8.515  0.00  0.00     0.149 HD
ENDBRANCH   8   9
ENDBRANCH   7   8
ENDBRANCH   6   7
ENDBRANCH   4   6
ENDBRANCH   3   4
ENDBRANCH   2   3
ENDBRANCH   1   2
BRANCH   1  12
HETATM   12  C   UNK N   1      35.969  14.999  12.670  0.00  0.00     0.113 C 
BRANCH  12  13
HETATM   13  N   UNK N   1      36.730  14.402  13.748  0.00  0.00    -0.421 N 
HETATM   14  H   UNK N   1      37.615  14.740  14.126  0.00  0.00     0.153 HD
BRANCH  13  15
HETATM   15  C   UNK N   1      35.994  13.234  14.185  0.00  0.00     0.115 C 
BRANCH  15  16
HETATM   16  C   UNK N   1      36.192  13.068  15.673  0.00  0.00     0.038 C 
BRANCH  16  17
HETATM   17  C   UNK N   1      34.853  13.109  16.372  0.00  0.00     0.112 C 
BRANCH  17  18
HETATM   18  N   UNK N   1      35.057  13.449  17.767  0.00  0.00    -0.430 N 
HETATM   19  H   UNK N   1      35.916  13.913  18.059  0.00  0.00     0.149 HD
HETATM   20  H   UNK N   1      34.340  13.223  18.457  0.00  0.00     0.149 HD
ENDBRANCH  17  18
ENDBRANCH  16  17
ENDBRANCH  15  16
ENDBRANCH  13  15
ENDBRANCH  12  13
ENDBRANCH   1  12
TORSDOF 13
ENDMDL
