MODEL 1
REMARK VINA RESULT:      -5.0      0.000      0.000
REMARK  5 active torsions:
REMARK  status: ('A' for Active; 'I' for Inactive)
REMARK    1  A    between atoms: O_1  and  C_10 
REMARK    2  A    between atoms: C_8  and  N_4 
REMARK    3  A    between atoms: C_7  and  C_8 
REMARK    4  A    between atoms: C_7  and  C_9 
REMARK    5  A    between atoms: C_8  and  C_10 
ROOT
HETATM    1  C   UNK N   1      32.796  16.370   8.616  0.00  0.00     0.093 C 
ENDROOT
BRANCH   1   2
HETATM    2  C   UNK N   1      34.018  17.214   8.991  0.00  0.00     0.178 C 
BRANCH   2   3
HETATM    3  N   UNK N   1      34.696  17.060  10.270  0.00  0.00    -0.417 N 
HETATM    4  H   UNK N   1      34.381  16.350  10.931  0.00  0.00     0.150 HD
HETATM    5  H   UNK N   1      35.485  17.662  10.504  0.00  0.00     0.150 HD
ENDBRANCH   2   3
BRANCH   2   6
HETATM    6  C   UNK N   1      34.551  18.233   8.035  0.00  0.00     0.163 C 
HETATM    7  O   UNK N   1      35.125  19.224   8.459  0.00  0.00    -0.648 OA
BRANCH   6   8
HETATM    8  O   UNK N   1      34.401  18.064   6.709  0.00  0.00    -0.775 OA
HETATM    9  H   UNK N   1      34.965  17.477   6.244  0.00  0.00     0.167 HD
ENDBRANCH   6   8
ENDBRANCH   2   6
ENDBRANCH   1   2
BRANCH   1  10
HETATM   10  C   UNK N   1      31.489  17.066   8.382  0.00  0.00     0.028 A 
HETATM   11  N   UNK N   1      30.947  17.894   9.287  0.00  0.00    -0.354 N 
HETATM   12  C   UNK N   1      29.795  18.320   8.731  0.00  0.00     0.180 A 
HETATM   13  H   UNK N   1      31.311  18.139  10.169  0.00  0.00     0.166 HD
HETATM   14  N   UNK N   1      29.604  17.783   7.508  0.00  0.00    -0.360 N 
HETATM   15  C   UNK N   1      30.667  16.992   7.282  0.00  0.00     0.114 A 
ATOM     16  HN  UNK N   1      28.814  17.944   6.884  1.00  0.00     0.166 HD
ENDBRANCH   1  10
TORSDOF 5
ENDMDL
MODEL 2
REMARK VINA RESULT:      -4.9      4.983      6.909
REMARK  5 active torsions:
REMARK  status: ('A' for Active; 'I' for Inactive)
REMARK    1  A    between atoms: O_1  and  C_10 
REMARK    2  A    between atoms: C_8  and  N_4 
REMARK    3  A    between atoms: C_7  and  C_8 
REMARK    4  A    between atoms: C_7  and  C_9 
REMARK    5  A    between atoms: C_8  and  C_10 
ROOT
HETATM    1  C   UNK N   1      35.437  13.762  11.876  0.00  0.00     0.093 C 
ENDROOT
BRANCH   1   2
HETATM    2  C   UNK N   1      34.829  15.012  11.231  0.00  0.00     0.178 C 
BRANCH   2   3
HETATM    3  N   UNK N   1      33.413  15.097  10.905  0.00  0.00    -0.417 N 
HETATM    4  H   UNK N   1      32.741  15.379  11.619  0.00  0.00     0.150 HD
HETATM    5  H   UNK N   1      33.092  14.873   9.962  0.00  0.00     0.150 HD
ENDBRANCH   2   3
BRANCH   2   6
HETATM    6  C   UNK N   1      35.691  16.192  10.916  0.00  0.00     0.163 C 
HETATM    7  O   UNK N   1      35.178  17.269  10.659  0.00  0.00    -0.648 OA
BRANCH   6   8
HETATM    8  O   UNK N   1      37.031  16.072  10.915  0.00  0.00    -0.775 OA
HETATM    9  H   UNK N   1      37.459  15.598  10.229  0.00  0.00     0.167 HD
ENDBRANCH   6   8
ENDBRANCH   2   6
ENDBRANCH   1   2
BRANCH   1  10
HETATM   10  C   UNK N   1      35.815  13.816  13.325  0.00  0.00     0.028 A 
HETATM   11  N   UNK N   1      36.778  14.630  13.784  0.00  0.00    -0.354 N 
HETATM   12  C   UNK N   1      36.830  14.401  15.111  0.00  0.00     0.180 A 
HETATM   13  H   UNK N   1      37.329  15.258  13.263  0.00  0.00     0.166 HD
HETATM   14  N   UNK N   1      35.930  13.472  15.493  0.00  0.00    -0.360 N 
HETATM   15  C   UNK N   1      35.286  13.099  14.373  0.00  0.00     0.114 A 
ATOM     16  HN  UNK N   1      35.770  13.124  16.438  1.00  0.00     0.166 HD
ENDBRANCH   1  10
TORSDOF 5
ENDMDL
MODEL 3
REMARK VINA RESULT:      -4.6      1.933      4.514
REMARK  5 active torsions:
REMARK  status: ('A' for Active; 'I' for Inactive)
REMARK    1  A    between atoms: O_1  and  C_10 
REMARK    2  A    between atoms: C_8  and  N_4 
REMARK    3  A    between atoms: C_7  and  C_8 
REMARK    4  A    between atoms: C_7  and  C_9 
REMARK    5  A    between atoms: C_8  and  C_10 
ROOT
HETATM    1  C   UNK N   1      33.547  16.002   9.111  0.00  0.00     0.093 C 
ENDROOT
BRANCH   1   2
HETATM    2  C   UNK N   1      33.250  17.412   8.590  0.00  0.00     0.178 C 
BRANCH   2   3
HETATM    3  N   UNK N   1      31.965  18.058   8.810  0.00  0.00    -0.417 N 
HETATM    4  H   UNK N   1      31.853  19.052   8.613  0.00  0.00     0.150 HD
HETATM    5  H   UNK N   1      31.175  17.514   9.160  0.00  0.00     0.150 HD
ENDBRANCH   2   3
BRANCH   2   6
HETATM    6  C   UNK N   1      34.293  18.169   7.832  0.00  0.00     0.163 C 
HETATM    7  O   UNK N   1      34.949  19.031   8.394  0.00  0.00    -0.648 OA
BRANCH   6   8
HETATM    8  O   UNK N   1      34.512  17.905   6.531  0.00  0.00    -0.775 OA
HETATM    9  H   UNK N   1      35.361  17.627   6.245  0.00  0.00     0.167 HD
ENDBRANCH   6   8
ENDBRANCH   2   6
ENDBRANCH   1   2
BRANCH   1  10
HETATM   10  C   UNK N   1      34.861  15.750   9.786  0.00  0.00     0.028 A 
HETATM   11  N   UNK N   1      35.742  14.848   9.325  0.00  0.00    -0.354 N 
HETATM   12  C   UNK N   1      36.783  14.905  10.179  0.00  0.00     0.180 A 
HETATM   13  H   UNK N   1      35.647  14.270   8.534  0.00  0.00     0.166 HD
HETATM   14  N   UNK N   1      36.579  15.812  11.156  0.00  0.00    -0.360 N 
HETATM   15  C   UNK N   1      35.370  16.348  10.915  0.00  0.00     0.114 A 
ATOM     16  HN  UNK N   1      37.213  16.043  11.920  1.00  0.00     0.166 HD
ENDBRANCH   1  10
TORSDOF 5
ENDMDL
MODEL 4
REMARK VINA RESULT:      -4.6      1.448      2.089
REMARK  5 active torsions:
REMARK  status: ('A' for Active; 'I' for Inactive)
REMARK    1  A    between atoms: O_1  and  C_10 
REMARK    2  A    between atoms: C_8  and  N_4 
REMARK    3  A    between atoms: C_7  and  C_8 
REMARK    4  A    between atoms: C_7  and  C_9 
REMARK    5  A    between atoms: C_8  and  C_10 
ROOT
HETATM    1  C   UNK N   1      31.886  17.903   8.468  0.00  0.00     0.093 C 
ENDROOT
BRANCH   1   2
HETATM    2  C   UNK N   1      33.366  17.581   8.702  0.00  0.00     0.178 C 
BRANCH   2   3
HETATM    3  N   UNK N   1      33.792  16.604   9.693  0.00  0.00    -0.417 N 
HETATM    4  H   UNK N   1      33.986  16.899  10.651  0.00  0.00     0.150 HD
HETATM    5  H   UNK N   1      33.898  15.624   9.430  0.00  0.00     0.150 HD
ENDBRANCH   2   3
BRANCH   2   6
HETATM    6  C   UNK N   1      34.423  18.275   7.904  0.00  0.00     0.163 C 
HETATM    7  O   UNK N   1      34.537  18.041   6.712  0.00  0.00    -0.648 OA
BRANCH   6   8
HETATM    8  O   UNK N   1      35.249  19.158   8.494  0.00  0.00    -0.775 OA
HETATM    9  H   UNK N   1      35.697  19.799   7.977  0.00  0.00     0.167 HD
ENDBRANCH   6   8
ENDBRANCH   2   6
ENDBRANCH   1   2
BRANCH   1  10
HETATM   10  C   UNK N   1      31.147  17.141   7.410  0.00  0.00     0.028 A 
HETATM   11  N   UNK N   1      31.781  16.457   6.445  0.00  0.00    -0.354 N 
HETATM   12  C   UNK N   1      30.800  15.914   5.696  0.00  0.00     0.180 A 
HETATM   13  H   UNK N   1      32.752  16.370   6.313  0.00  0.00     0.166 HD
HETATM   14  N   UNK N   1      29.577  16.239   6.163  0.00  0.00    -0.360 N 
HETATM   15  C   UNK N   1      29.788  17.012   7.244  0.00  0.00     0.114 A 
ATOM     16  HN  UNK N   1      28.678  15.955   5.776  1.00  0.00     0.166 HD
ENDBRANCH   1  10
TORSDOF 5
ENDMDL
MODEL 5
REMARK VINA RESULT:      -4.4      0.879      1.576
REMARK  5 active torsions:
REMARK  status: ('A' for Active; 'I' for Inactive)
REMARK    1  A    between atoms: O_1  and  C_10 
REMARK    2  A    between atoms: C_8  and  N_4 
REMARK    3  A    between atoms: C_7  and  C_8 
REMARK    4  A    between atoms: C_7  and  C_9 
REMARK    5  A    between atoms: C_8  and  C_10 
ROOT
HETATM    1  C   UNK N   1      32.279  16.528   7.893  0.00  0.00     0.093 C 
ENDROOT
BRANCH   1   2
HETATM    2  C   UNK N   1      33.514  17.172   8.533  0.00  0.00     0.178 C 
BRANCH   2   3
HETATM    3  N   UNK N   1      33.923  16.863   9.895  0.00  0.00    -0.417 N 
HETATM    4  H   UNK N   1      33.511  16.068  10.384  0.00  0.00     0.150 HD
HETATM    5  H   UNK N   1      34.623  17.441  10.360  0.00  0.00     0.150 HD
ENDBRANCH   2   3
BRANCH   2   6
HETATM    6  C   UNK N   1      34.338  18.150   7.759  0.00  0.00     0.163 C 
HETATM    7  O   UNK N   1      34.404  18.063   6.543  0.00  0.00    -0.648 OA
BRANCH   6   8
HETATM    8  O   UNK N   1      35.010  19.126   8.396  0.00  0.00    -0.775 OA
HETATM    9  H   UNK N   1      34.959  20.009   8.087  0.00  0.00     0.167 HD
ENDBRANCH   6   8
ENDBRANCH   2   6
ENDBRANCH   1   2
BRANCH   1  10
HETATM   10  C   UNK N   1      30.971  17.254   7.972  0.00  0.00     0.028 A 
HETATM   11  N   UNK N   1      29.971  17.025   7.107  0.00  0.00    -0.354 N 
HETATM   12  C   UNK N   1      28.977  17.851   7.490  0.00  0.00     0.180 A 
HETATM   13  H   UNK N   1      29.965  16.391   6.354  0.00  0.00     0.166 HD
HETATM   14  N   UNK N   1      29.326  18.585   8.566  0.00  0.00    -0.360 N 
HETATM   15  C   UNK N   1      30.581  18.215   8.876  0.00  0.00     0.114 A 
ATOM     16  HN  UNK N   1      28.754  19.280   9.046  1.00  0.00     0.166 HD
ENDBRANCH   1  10
TORSDOF 5
ENDMDL
MODEL 6
REMARK VINA RESULT:      -4.3      3.116      3.641
REMARK  5 active torsions:
REMARK  status: ('A' for Active; 'I' for Inactive)
REMARK    1  A    between atoms: O_1  and  C_10 
REMARK    2  A    between atoms: C_8  and  N_4 
REMARK    3  A    between atoms: C_7  and  C_8 
REMARK    4  A    between atoms: C_7  and  C_9 
REMARK    5  A    between atoms: C_8  and  C_10 
ROOT
HETATM    1  C   UNK N   1      34.769  14.940   8.546  0.00  0.00     0.093 C 
ENDROOT
BRANCH   1   2
HETATM    2  C   UNK N   1      34.701  15.466   9.983  0.00  0.00     0.178 C 
BRANCH   2   3
HETATM    3  N   UNK N   1      33.671  15.029  10.914  0.00  0.00    -0.417 N 
HETATM    4  H   UNK N   1      33.210  15.708  11.520  0.00  0.00     0.150 HD
HETATM    5  H   UNK N   1      33.410  14.044  10.959  0.00  0.00     0.150 HD
ENDBRANCH   2   3
BRANCH   2   6
HETATM    6  C   UNK N   1      35.709  16.457  10.470  0.00  0.00     0.163 C 
HETATM    7  O   UNK N   1      35.502  17.653  10.334  0.00  0.00    -0.648 OA
BRANCH   6   8
HETATM    8  O   UNK N   1      36.845  16.039  11.058  0.00  0.00    -0.775 OA
HETATM    9  H   UNK N   1      36.956  16.133  11.984  0.00  0.00     0.167 HD
ENDBRANCH   6   8
ENDBRANCH   2   6
ENDBRANCH   1   2
BRANCH   1  10
HETATM   10  C   UNK N   1      34.356  15.850   7.430  0.00  0.00     0.028 A 
HETATM   11  N   UNK N   1      33.815  17.058   7.653  0.00  0.00    -0.354 N 
HETATM   12  C   UNK N   1      33.580  17.571   6.429  0.00  0.00     0.180 A 
HETATM   13  H   UNK N   1      33.630  17.478   8.524  0.00  0.00     0.166 HD
HETATM   14  N   UNK N   1      33.958  16.721   5.451  0.00  0.00    -0.360 N 
HETATM   15  C   UNK N   1      34.448  15.635   6.074  0.00  0.00     0.114 A 
ATOM     16  HN  UNK N   1      33.886  16.873   4.446  1.00  0.00     0.166 HD
ENDBRANCH   1  10
TORSDOF 5
ENDMDL
MODEL 7
REMARK VINA RESULT:      -4.1      1.980      2.574
REMARK  5 active torsions:
REMARK  status: ('A' for Active; 'I' for Inactive)
REMARK    1  A    between atoms: O_1  and  C_10 
REMARK    2  A    between atoms: C_8  and  N_4 
REMARK    3  A    between atoms: C_7  and  C_8 
REMARK    4  A    between atoms: C_7  and  C_9 
REMARK    5  A    between atoms: C_8  and  C_10 
ROOT
HETATM    1  C   UNK N   1      30.939  16.485   7.397  0.00  0.00     0.093 C 
ENDROOT
BRANCH   1   2
HETATM    2  C   UNK N   1      31.996  17.146   6.508  0.00  0.00     0.178 C 
BRANCH   2   3
HETATM    3  N   UNK N   1      31.753  17.420   5.099  0.00  0.00    -0.417 N 
HETATM    4  H   UNK N   1      31.905  16.689   4.403  0.00  0.00     0.150 HD
HETATM    5  H   UNK N   1      31.430  18.343   4.807  0.00  0.00     0.150 HD
ENDBRANCH   2   3
BRANCH   2   6
HETATM    6  C   UNK N   1      33.324  17.532   7.076  0.00  0.00     0.163 C 
HETATM    7  O   UNK N   1      33.510  17.474   8.281  0.00  0.00    -0.648 OA
BRANCH   6   8
HETATM    8  O   UNK N   1      34.316  17.944   6.266  0.00  0.00    -0.775 OA
HETATM    9  H   UNK N   1      35.210  17.829   6.524  0.00  0.00     0.167 HD
ENDBRANCH   6   8
ENDBRANCH   2   6
ENDBRANCH   1   2
BRANCH   1  10
HETATM   10  C   UNK N   1      30.109  17.356   8.292  0.00  0.00     0.028 A 
HETATM   11  N   UNK N   1      30.643  18.058   9.303  0.00  0.00    -0.354 N 
HETATM   12  C   UNK N   1      29.605  18.706   9.868  0.00  0.00     0.180 A 
HETATM   13  H   UNK N   1      31.589  18.092   9.574  0.00  0.00     0.166 HD
HETATM   14  N   UNK N   1      28.443  18.430   9.241  0.00  0.00    -0.360 N 
HETATM   15  C   UNK N   1      28.753  17.579   8.247  0.00  0.00     0.114 A 
ATOM     16  HN  UNK N   1      27.519  18.793   9.474  1.00  0.00     0.166 HD
ENDBRANCH   1  10
TORSDOF 5
ENDMDL
MODEL 8
REMARK VINA RESULT:      -4.0     12.445     12.888
REMARK  5 active torsions:
REMARK  status: ('A' for Active; 'I' for Inactive)
REMARK    1  A    between atoms: O_1  and  C_10 
REMARK    2  A    between atoms: C_8  and  N_4 
REMARK    3  A    between atoms: C_7  and  C_8 
REMARK    4  A    between atoms: C_7  and  C_9 
REMARK    5  A    between atoms: C_8  and  C_10 
ROOT
HETATM    1  C   UNK N   1      41.756  21.911   2.434  0.00  0.00     0.093 C 
ENDROOT
BRANCH   1   2
HETATM    2  C   UNK N   1      43.241  21.958   2.812  0.00  0.00     0.178 C 
BRANCH   2   3
HETATM    3  N   UNK N   1      44.245  21.205   2.075  0.00  0.00    -0.417 N 
HETATM    4  H   UNK N   1      44.003  20.763   1.188  0.00  0.00     0.150 HD
HETATM    5  H   UNK N   1      45.192  21.120   2.446  0.00  0.00     0.150 HD
ENDBRANCH   2   3
BRANCH   2   6
HETATM    6  C   UNK N   1      43.698  22.793   3.965  0.00  0.00     0.163 C 
HETATM    7  O   UNK N   1      44.197  22.259   4.943  0.00  0.00    -0.648 OA
BRANCH   6   8
HETATM    8  O   UNK N   1      43.562  24.131   3.931  0.00  0.00    -0.775 OA
HETATM    9  H   UNK N   1      44.107  24.671   4.469  0.00  0.00     0.167 HD
ENDBRANCH   6   8
ENDBRANCH   2   6
ENDBRANCH   1   2
BRANCH   1  10
HETATM   10  C   UNK N   1      41.229  22.932   1.472  0.00  0.00     0.028 A 
HETATM   11  N   UNK N   1      41.252  24.247   1.739  0.00  0.00    -0.354 N 
HETATM   12  C   UNK N   1      40.703  24.835   0.658  0.00  0.00     0.180 A 
HETATM   13  H   UNK N   1      41.596  24.687   2.550  0.00  0.00     0.166 HD
HETATM   14  N   UNK N   1      40.340  23.930  -0.273  0.00  0.00    -0.360 N 
HETATM   15  C   UNK N   1      40.669  22.728   0.233  0.00  0.00     0.114 A 
ATOM     16  HN  UNK N   1      39.906  24.118  -1.176  1.00  0.00     0.166 HD
ENDBRANCH   1  10
TORSDOF 5
ENDMDL
MODEL 9
REMARK VINA RESULT:      -4.0     11.438     13.011
REMARK  5 active torsions:
REMARK  status: ('A' for Active; 'I' for Inactive)
REMARK    1  A    between atoms: O_1  and  C_10 
REMARK    2  A    between atoms: C_8  and  N_4 
REMARK    3  A    between atoms: C_7  and  C_8 
REMARK    4  A    between atoms: C_7  and  C_9 
REMARK    5  A    between atoms: C_8  and  C_10 
ROOT
HETATM    1  C   UNK N   1      43.698  21.943   2.383  0.00  0.00     0.093 C 
ENDROOT
BRANCH   1   2
HETATM    2  C   UNK N   1      44.043  23.300   3.006  0.00  0.00     0.178 C 
BRANCH   2   3
HETATM    3  N   UNK N   1      43.533  23.698   4.310  0.00  0.00    -0.417 N 
HETATM    4  H   UNK N   1      42.683  24.258   4.377  0.00  0.00     0.150 HD
HETATM    5  H   UNK N   1      44.027  23.417   5.158  0.00  0.00     0.150 HD
ENDBRANCH   2   3
BRANCH   2   6
HETATM    6  C   UNK N   1      44.924  24.262   2.276  0.00  0.00     0.163 C 
HETATM    7  O   UNK N   1      44.489  24.880   1.318  0.00  0.00    -0.648 OA
BRANCH   6   8
HETATM    8  O   UNK N   1      46.197  24.449   2.669  0.00  0.00    -0.775 OA
HETATM    9  H   UNK N   1      46.753  25.035   2.194  0.00  0.00     0.167 HD
ENDBRANCH   6   8
ENDBRANCH   2   6
ENDBRANCH   1   2
BRANCH   1  10
HETATM   10  C   UNK N   1      42.328  21.379   2.608  0.00  0.00     0.028 A 
HETATM   11  N   UNK N   1      41.232  21.917   2.052  0.00  0.00    -0.354 N 
HETATM   12  C   UNK N   1      40.208  21.150   2.478  0.00  0.00     0.180 A 
HETATM   13  H   UNK N   1      41.185  22.702   1.460  0.00  0.00     0.166 HD
HETATM   14  N   UNK N   1      40.632  20.153   3.281  0.00  0.00    -0.360 N 
HETATM   15  C   UNK N   1      41.967  20.291   3.368  0.00  0.00     0.114 A 
ATOM     16  HN  UNK N   1      40.057  19.441   3.730  1.00  0.00     0.166 HD
ENDBRANCH   1  10
TORSDOF 5
ENDMDL
