MODEL 1
REMARK VINA RESULT:      -5.5      0.000      0.000
REMARK  6 active torsions:
REMARK  status: ('A' for Active; 'I' for Inactive)
REMARK    1  A    between atoms: O_1  and  C_10 
REMARK    2  A    between atoms: O_2  and  C_13 
REMARK    3  A    between atoms: C_6  and  N_4 
REMARK    4  A    between atoms: C_5  and  C_6 
REMARK    5  A    between atoms: C_5  and  C_7 
REMARK    6  A    between atoms: C_6  and  C_10 
ROOT
HETATM    1  C   UNK N   1      32.429  16.744   7.985  0.00  0.00     0.074 C 
ENDROOT
BRANCH   1   2
HETATM    2  C   UNK N   1      33.584  17.356   8.805  0.00  0.00     0.177 C 
BRANCH   2   3
HETATM    3  N   UNK N   1      34.434  16.341   9.403  0.00  0.00    -0.417 N 
HETATM    4  H   UNK N   1      35.213  16.478  10.047  0.00  0.00     0.150 HD
HETATM    5  H   UNK N   1      34.227  15.375   9.147  0.00  0.00     0.150 HD
ENDBRANCH   2   3
BRANCH   2   6
HETATM    6  C   UNK N   1      34.445  18.236   7.936  0.00  0.00     0.163 C 
HETATM    7  O   UNK N   1      34.466  18.097   6.724  0.00  0.00    -0.648 OA
BRANCH   6   8
HETATM    8  O   UNK N   1      35.232  19.168   8.508  0.00  0.00    -0.775 OA
HETATM    9  H   UNK N   1      36.100  19.322   8.190  0.00  0.00     0.167 HD
ENDBRANCH   6   8
ENDBRANCH   2   6
ENDBRANCH   1   2
BRANCH   1  10
HETATM   10  C   UNK N   1      31.046  17.334   8.079  0.00  0.00    -0.056 A 
HETATM   11  C   UNK N   1      30.121  17.268   7.027  0.00  0.00     0.010 A 
HETATM   12  C   UNK N   1      28.882  17.907   7.132  0.00  0.00     0.037 A 
HETATM   13  C   UNK N   1      28.558  18.616   8.291  0.00  0.00     0.065 A 
HETATM   14  C   UNK N   1      29.470  18.676   9.349  0.00  0.00     0.037 A 
HETATM   15  C   UNK N   1      30.711  18.043   9.239  0.00  0.00     0.010 A 
BRANCH  13  16
HETATM   16  O   UNK N   1      27.376  19.243   8.387  0.00  0.00    -0.361 OA
HETATM   17  H   UNK N   1      26.914  19.496   7.611  0.00  0.00     0.217 HD
ENDBRANCH  13  16
ENDBRANCH   1  10
TORSDOF 6
ENDMDL
MODEL 2
REMARK VINA RESULT:      -5.5      0.133      1.347
REMARK  6 active torsions:
REMARK  status: ('A' for Active; 'I' for Inactive)
REMARK    1  A    between atoms: O_1  and  C_10 
REMARK    2  A    between atoms: O_2  and  C_13 
REMARK    3  A    between atoms: C_6  and  N_4 
REMARK    4  A    between atoms: C_5  and  C_6 
REMARK    5  A    between atoms: C_5  and  C_7 
REMARK    6  A    between atoms: C_6  and  C_10 
ROOT
HETATM    1  C   UNK N   1      32.408  16.745   7.956  0.00  0.00     0.074 C 
ENDROOT
BRANCH   1   2
HETATM    2  C   UNK N   1      33.643  17.236   8.740  0.00  0.00     0.177 C 
BRANCH   2   3
HETATM    3  N   UNK N   1      34.497  16.141   9.165  0.00  0.00    -0.417 N 
HETATM    4  H   UNK N   1      34.586  15.745  10.102  0.00  0.00     0.150 HD
HETATM    5  H   UNK N   1      35.077  15.717   8.441  0.00  0.00     0.150 HD
ENDBRANCH   2   3
BRANCH   2   6
HETATM    6  C   UNK N   1      34.468  18.175   7.897  0.00  0.00     0.163 C 
HETATM    7  O   UNK N   1      34.509  18.061   6.683  0.00  0.00    -0.648 OA
BRANCH   6   8
HETATM    8  O   UNK N   1      35.201  19.134   8.497  0.00  0.00    -0.775 OA
HETATM    9  H   UNK N   1      34.800  19.928   8.793  0.00  0.00     0.167 HD
ENDBRANCH   6   8
ENDBRANCH   2   6
ENDBRANCH   1   2
BRANCH   1  10
HETATM   10  C   UNK N   1      31.093  17.468   8.095  0.00  0.00    -0.056 A 
HETATM   11  C   UNK N   1      30.761  18.224   9.229  0.00  0.00     0.010 A 
HETATM   12  C   UNK N   1      29.494  18.803   9.347  0.00  0.00     0.037 A 
HETATM   13  C   UNK N   1      28.551  18.633   8.330  0.00  0.00     0.065 A 
HETATM   14  C   UNK N   1      28.879  17.892   7.192  0.00  0.00     0.037 A 
HETATM   15  C   UNK N   1      30.144  17.307   7.079  0.00  0.00     0.010 A 
BRANCH  13  16
HETATM   16  O   UNK N   1      27.330  19.175   8.450  0.00  0.00    -0.361 OA
HETATM   17  H   UNK N   1      26.985  19.376   9.299  0.00  0.00     0.217 HD
ENDBRANCH  13  16
ENDBRANCH   1  10
TORSDOF 6
ENDMDL
MODEL 3
REMARK VINA RESULT:      -5.3      9.616     11.016
REMARK  6 active torsions:
REMARK  status: ('A' for Active; 'I' for Inactive)
REMARK    1  A    between atoms: O_1  and  C_10 
REMARK    2  A    between atoms: O_2  and  C_13 
REMARK    3  A    between atoms: C_6  and  N_4 
REMARK    4  A    between atoms: C_5  and  C_6 
REMARK    5  A    between atoms: C_5  and  C_7 
REMARK    6  A    between atoms: C_6  and  C_10 
ROOT
HETATM    1  C   UNK N   1      35.907  11.840  15.285  0.00  0.00     0.074 C 
ENDROOT
BRANCH   1   2
HETATM    2  C   UNK N   1      36.874  12.706  14.451  0.00  0.00     0.177 C 
BRANCH   2   3
HETATM    3  N   UNK N   1      37.758  11.903  13.623  0.00  0.00    -0.417 N 
HETATM    4  H   UNK N   1      37.512  11.102  13.041  0.00  0.00     0.150 HD
HETATM    5  H   UNK N   1      38.741  12.175  13.622  0.00  0.00     0.150 HD
ENDBRANCH   2   3
BRANCH   2   6
HETATM    6  C   UNK N   1      36.108  13.640  13.551  0.00  0.00     0.163 C 
HETATM    7  O   UNK N   1      34.903  13.523  13.400  0.00  0.00    -0.648 OA
BRANCH   6   8
HETATM    8  O   UNK N   1      36.769  14.599  12.873  0.00  0.00    -0.775 OA
HETATM    9  H   UNK N   1      36.633  14.715  11.952  0.00  0.00     0.167 HD
ENDBRANCH   6   8
ENDBRANCH   2   6
ENDBRANCH   1   2
BRANCH   1  10
HETATM   10  C   UNK N   1      35.674  12.162  16.739  0.00  0.00    -0.056 A 
HETATM   11  C   UNK N   1      35.624  11.174  17.734  0.00  0.00     0.010 A 
HETATM   12  C   UNK N   1      35.318  11.516  19.055  0.00  0.00     0.037 A 
HETATM   13  C   UNK N   1      35.062  12.848  19.390  0.00  0.00     0.065 A 
HETATM   14  C   UNK N   1      35.122  13.838  18.406  0.00  0.00     0.037 A 
HETATM   15  C   UNK N   1      35.421  13.494  17.084  0.00  0.00     0.010 A 
BRANCH  13  16
HETATM   16  O   UNK N   1      34.753  13.174  20.654  0.00  0.00    -0.361 OA
HETATM   17  H   UNK N   1      35.428  13.432  21.252  0.00  0.00     0.217 HD
ENDBRANCH  13  16
ENDBRANCH   1  10
TORSDOF 6
ENDMDL
MODEL 4
REMARK VINA RESULT:      -5.1      8.702     11.497
REMARK  6 active torsions:
REMARK  status: ('A' for Active; 'I' for Inactive)
REMARK    1  A    between atoms: O_1  and  C_10 
REMARK    2  A    between atoms: O_2  and  C_13 
REMARK    3  A    between atoms: C_6  and  N_4 
REMARK    4  A    between atoms: C_5  and  C_6 
REMARK    5  A    between atoms: C_5  and  C_7 
REMARK    6  A    between atoms: C_6  and  C_10 
ROOT
HETATM    1  C   UNK N   1      21.742  19.678   3.410  0.00  0.00     0.074 C 
ENDROOT
BRANCH   1   2
HETATM    2  C   UNK N   1      20.949  19.424   2.111  0.00  0.00     0.177 C 
BRANCH   2   3
HETATM    3  N   UNK N   1      19.565  19.069   2.370  0.00  0.00    -0.417 N 
HETATM    4  H   UNK N   1      18.960  18.464   1.813  0.00  0.00     0.150 HD
HETATM    5  H   UNK N   1      19.148  19.471   3.209  0.00  0.00     0.150 HD
ENDBRANCH   2   3
BRANCH   2   6
HETATM    6  C   UNK N   1      20.961  20.650   1.233  0.00  0.00     0.163 C 
HETATM    7  O   UNK N   1      21.102  20.559   0.025  0.00  0.00    -0.648 OA
BRANCH   6   8
HETATM    8  O   UNK N   1      20.850  21.870   1.796  0.00  0.00    -0.775 OA
HETATM    9  H   UNK N   1      20.470  21.971   2.647  0.00  0.00     0.167 HD
ENDBRANCH   6   8
ENDBRANCH   2   6
ENDBRANCH   1   2
BRANCH   1  10
HETATM   10  C   UNK N   1      23.243  19.549   3.411  0.00  0.00    -0.056 A 
HETATM   11  C   UNK N   1      23.910  18.472   4.014  0.00  0.00     0.010 A 
HETATM   12  C   UNK N   1      25.307  18.443   4.064  0.00  0.00     0.037 A 
HETATM   13  C   UNK N   1      26.047  19.490   3.510  0.00  0.00     0.065 A 
HETATM   14  C   UNK N   1      25.390  20.560   2.897  0.00  0.00     0.037 A 
HETATM   15  C   UNK N   1      23.993  20.591   2.855  0.00  0.00     0.010 A 
BRANCH  13  16
HETATM   16  O   UNK N   1      27.387  19.471   3.571  0.00  0.00    -0.361 OA
HETATM   17  H   UNK N   1      27.838  20.032   4.172  0.00  0.00     0.217 HD
ENDBRANCH  13  16
ENDBRANCH   1  10
TORSDOF 6
ENDMDL
MODEL 5
REMARK VINA RESULT:      -5.1      9.624     11.038
REMARK  6 active torsions:
REMARK  status: ('A' for Active; 'I' for Inactive)
REMARK    1  A    between atoms: O_1  and  C_10 
REMARK    2  A    between atoms: O_2  and  C_13 
REMARK    3  A    between atoms: C_6  and  N_4 
REMARK    4  A    between atoms: C_5  and  C_6 
REMARK    5  A    between atoms: C_5  and  C_7 
REMARK    6  A    between atoms: C_6  and  C_10 
ROOT
HETATM    1  C   UNK N   1      36.058  11.517  15.220  0.00  0.00     0.074 C 
ENDROOT
BRANCH   1   2
HETATM    2  C   UNK N   1      36.311  12.537  14.090  0.00  0.00     0.177 C 
BRANCH   2   3
HETATM    3  N   UNK N   1      37.406  12.139  13.222  0.00  0.00    -0.417 N 
HETATM    4  H   UNK N   1      37.715  11.192  13.002  0.00  0.00     0.150 HD
HETATM    5  H   UNK N   1      37.926  12.897  12.781  0.00  0.00     0.150 HD
ENDBRANCH   2   3
BRANCH   2   6
HETATM    6  C   UNK N   1      35.077  12.705  13.241  0.00  0.00     0.163 C 
HETATM    7  O   UNK N   1      34.719  13.807  12.860  0.00  0.00    -0.648 OA
BRANCH   6   8
HETATM    8  O   UNK N   1      34.337  11.623  12.926  0.00  0.00    -0.775 OA
HETATM    9  H   UNK N   1      33.415  11.608  13.099  0.00  0.00     0.167 HD
ENDBRANCH   6   8
ENDBRANCH   2   6
ENDBRANCH   1   2
BRANCH   1  10
HETATM   10  C   UNK N   1      35.671  11.999  16.594  0.00  0.00    -0.056 A 
HETATM   11  C   UNK N   1      35.381  13.343  16.872  0.00  0.00     0.010 A 
HETATM   12  C   UNK N   1      35.112  13.753  18.181  0.00  0.00     0.037 A 
HETATM   13  C   UNK N   1      35.128  12.822  19.221  0.00  0.00     0.065 A 
HETATM   14  C   UNK N   1      35.404  11.478  18.951  0.00  0.00     0.037 A 
HETATM   15  C   UNK N   1      35.680  11.072  17.642  0.00  0.00     0.010 A 
BRANCH  13  16
HETATM   16  O   UNK N   1      34.885  13.217  20.480  0.00  0.00    -0.361 OA
HETATM   17  H   UNK N   1      34.476  12.631  21.086  0.00  0.00     0.217 HD
ENDBRANCH  13  16
ENDBRANCH   1  10
TORSDOF 6
ENDMDL
MODEL 6
REMARK VINA RESULT:      -5.0     15.960     17.409
REMARK  6 active torsions:
REMARK  status: ('A' for Active; 'I' for Inactive)
REMARK    1  A    between atoms: O_1  and  C_10 
REMARK    2  A    between atoms: O_2  and  C_13 
REMARK    3  A    between atoms: C_6  and  N_4 
REMARK    4  A    between atoms: C_5  and  C_6 
REMARK    5  A    between atoms: C_5  and  C_7 
REMARK    6  A    between atoms: C_6  and  C_10 
ROOT
HETATM    1  C   UNK N   1      25.813  23.702  -5.960  0.00  0.00     0.074 C 
ENDROOT
BRANCH   1   2
HETATM    2  C   UNK N   1      26.320  23.586  -7.413  0.00  0.00     0.177 C 
BRANCH   2   3
HETATM    3  N   UNK N   1      27.260  22.491  -7.583  0.00  0.00    -0.417 N 
HETATM    4  H   UNK N   1      27.053  21.494  -7.641  0.00  0.00     0.150 HD
HETATM    5  H   UNK N   1      28.243  22.751  -7.653  0.00  0.00     0.150 HD
ENDBRANCH   2   3
BRANCH   2   6
HETATM    6  C   UNK N   1      25.170  23.368  -8.361  0.00  0.00     0.163 C 
HETATM    7  O   UNK N   1      24.991  24.106  -9.316  0.00  0.00    -0.648 OA
BRANCH   6   8
HETATM    8  O   UNK N   1      24.302  22.362  -8.131  0.00  0.00    -0.775 OA
HETATM    9  H   UNK N   1      23.659  22.431  -7.452  0.00  0.00     0.167 HD
ENDBRANCH   6   8
ENDBRANCH   2   6
ENDBRANCH   1   2
BRANCH   1  10
HETATM   10  C   UNK N   1      25.829  25.037  -5.263  0.00  0.00    -0.056 A 
HETATM   11  C   UNK N   1      26.423  25.228  -4.006  0.00  0.00     0.010 A 
HETATM   12  C   UNK N   1      26.335  26.466  -3.363  0.00  0.00     0.037 A 
HETATM   13  C   UNK N   1      25.653  27.523  -3.972  0.00  0.00     0.065 A 
HETATM   14  C   UNK N   1      25.069  27.343  -5.229  0.00  0.00     0.037 A 
HETATM   15  C   UNK N   1      25.152  26.103  -5.867  0.00  0.00     0.010 A 
BRANCH  13  16
HETATM   16  O   UNK N   1      25.554  28.706  -3.348  0.00  0.00    -0.361 OA
HETATM   17  H   UNK N   1      26.125  29.412  -3.584  0.00  0.00     0.217 HD
ENDBRANCH  13  16
ENDBRANCH   1  10
TORSDOF 6
ENDMDL
MODEL 7
REMARK VINA RESULT:      -5.0     10.124     11.647
REMARK  6 active torsions:
REMARK  status: ('A' for Active; 'I' for Inactive)
REMARK    1  A    between atoms: O_1  and  C_10 
REMARK    2  A    between atoms: O_2  and  C_13 
REMARK    3  A    between atoms: C_6  and  N_4 
REMARK    4  A    between atoms: C_5  and  C_6 
REMARK    5  A    between atoms: C_5  and  C_7 
REMARK    6  A    between atoms: C_6  and  C_10 
ROOT
HETATM    1  C   UNK N   1      34.942  12.953  15.770  0.00  0.00     0.074 C 
ENDROOT
BRANCH   1   2
HETATM    2  C   UNK N   1      36.139  12.950  14.797  0.00  0.00     0.177 C 
BRANCH   2   3
HETATM    3  N   UNK N   1      35.739  12.646  13.434  0.00  0.00    -0.417 N 
HETATM    4  H   UNK N   1      36.067  11.881  12.842  0.00  0.00     0.150 HD
HETATM    5  H   UNK N   1      35.049  13.271  13.018  0.00  0.00     0.150 HD
ENDBRANCH   2   3
BRANCH   2   6
HETATM    6  C   UNK N   1      36.826  14.291  14.796  0.00  0.00     0.163 C 
HETATM    7  O   UNK N   1      37.426  14.693  15.779  0.00  0.00    -0.648 OA
BRANCH   6   8
HETATM    8  O   UNK N   1      36.747  15.076  13.702  0.00  0.00    -0.775 OA
HETATM    9  H   UNK N   1      35.962  15.105  13.191  0.00  0.00     0.167 HD
ENDBRANCH   6   8
ENDBRANCH   2   6
ENDBRANCH   1   2
BRANCH   1  10
HETATM   10  C   UNK N   1      35.119  12.451  17.180  0.00  0.00    -0.056 A 
HETATM   11  C   UNK N   1      35.071  13.298  18.297  0.00  0.00     0.010 A 
HETATM   12  C   UNK N   1      35.328  12.797  19.577  0.00  0.00     0.037 A 
HETATM   13  C   UNK N   1      35.634  11.444  19.749  0.00  0.00     0.065 A 
HETATM   14  C   UNK N   1      35.671  10.592  18.642  0.00  0.00     0.037 A 
HETATM   15  C   UNK N   1      35.421  11.097  17.362  0.00  0.00     0.010 A 
BRANCH  13  16
HETATM   16  O   UNK N   1      35.896  10.966  20.974  0.00  0.00    -0.361 OA
HETATM   17  H   UNK N   1      36.274  11.524  21.626  0.00  0.00     0.217 HD
ENDBRANCH  13  16
ENDBRANCH   1  10
TORSDOF 6
ENDMDL
MODEL 8
REMARK VINA RESULT:      -4.7     16.512     17.655
REMARK  6 active torsions:
REMARK  status: ('A' for Active; 'I' for Inactive)
REMARK    1  A    between atoms: O_1  and  C_10 
REMARK    2  A    between atoms: O_2  and  C_13 
REMARK    3  A    between atoms: C_6  and  N_4 
REMARK    4  A    between atoms: C_5  and  C_6 
REMARK    5  A    between atoms: C_5  and  C_7 
REMARK    6  A    between atoms: C_6  and  C_10 
ROOT
HETATM    1  C   UNK N   1      25.448  27.326  -5.798  0.00  0.00     0.074 C 
ENDROOT
BRANCH   1   2
HETATM    2  C   UNK N   1      26.562  27.999  -4.971  0.00  0.00     0.177 C 
BRANCH   2   3
HETATM    3  N   UNK N   1      27.232  29.058  -5.707  0.00  0.00    -0.417 N 
HETATM    4  H   UNK N   1      27.538  29.044  -6.681  0.00  0.00     0.150 HD
HETATM    5  H   UNK N   1      27.418  29.916  -5.189  0.00  0.00     0.150 HD
ENDBRANCH   2   3
BRANCH   2   6
HETATM    6  C   UNK N   1      25.999  28.593  -3.706  0.00  0.00     0.163 C 
HETATM    7  O   UNK N   1      25.485  27.889  -2.853  0.00  0.00    -0.648 OA
BRANCH   6   8
HETATM    8  O   UNK N   1      26.032  29.929  -3.528  0.00  0.00    -0.775 OA
HETATM    9  H   UNK N   1      25.466  30.343  -2.906  0.00  0.00     0.167 HD
ENDBRANCH   6   8
ENDBRANCH   2   6
ENDBRANCH   1   2
BRANCH   1  10
HETATM   10  C   UNK N   1      25.592  25.887  -6.221  0.00  0.00    -0.056 A 
HETATM   11  C   UNK N   1      25.618  24.826  -5.303  0.00  0.00     0.010 A 
HETATM   12  C   UNK N   1      25.842  23.517  -5.739  0.00  0.00     0.037 A 
HETATM   13  C   UNK N   1      26.039  23.258  -7.098  0.00  0.00     0.065 A 
HETATM   14  C   UNK N   1      26.002  24.308  -8.020  0.00  0.00     0.037 A 
HETATM   15  C   UNK N   1      25.786  25.617  -7.581  0.00  0.00     0.010 A 
BRANCH  13  16
HETATM   16  O   UNK N   1      26.269  22.004  -7.516  0.00  0.00    -0.361 OA
HETATM   17  H   UNK N   1      25.776  21.649  -8.229  0.00  0.00     0.217 HD
ENDBRANCH  13  16
ENDBRANCH   1  10
TORSDOF 6
ENDMDL
MODEL 9
REMARK VINA RESULT:      -4.6     10.147     10.678
REMARK  6 active torsions:
REMARK  status: ('A' for Active; 'I' for Inactive)
REMARK    1  A    between atoms: O_1  and  C_10 
REMARK    2  A    between atoms: O_2  and  C_13 
REMARK    3  A    between atoms: C_6  and  N_4 
REMARK    4  A    between atoms: C_5  and  C_6 
REMARK    5  A    between atoms: C_5  and  C_7 
REMARK    6  A    between atoms: C_6  and  C_10 
ROOT
HETATM    1  C   UNK N   1      22.331  12.192   9.295  0.00  0.00     0.074 C 
ENDROOT
BRANCH   1   2
HETATM    2  C   UNK N   1      23.542  12.109  10.248  0.00  0.00     0.177 C 
BRANCH   2   3
HETATM    3  N   UNK N   1      24.452  13.228  10.082  0.00  0.00    -0.417 N 
HETATM    4  H   UNK N   1      24.391  14.153  10.510  0.00  0.00     0.150 HD
HETATM    5  H   UNK N   1      25.248  13.071   9.464  0.00  0.00     0.150 HD
ENDBRANCH   2   3
BRANCH   2   6
HETATM    6  C   UNK N   1      23.086  12.085  11.685  0.00  0.00     0.163 C 
HETATM    7  O   UNK N   1      21.907  11.954  11.970  0.00  0.00    -0.648 OA
BRANCH   6   8
HETATM    8  O   UNK N   1      23.991  12.246  12.670  0.00  0.00    -0.775 OA
HETATM    9  H   UNK N   1      23.789  12.766  13.424  0.00  0.00     0.167 HD
ENDBRANCH   6   8
ENDBRANCH   2   6
ENDBRANCH   1   2
BRANCH   1  10
HETATM   10  C   UNK N   1      21.925  13.521   8.712  0.00  0.00    -0.056 A 
HETATM   11  C   UNK N   1      22.481  14.031   7.529  0.00  0.00     0.010 A 
HETATM   12  C   UNK N   1      22.134  15.307   7.077  0.00  0.00     0.037 A 
HETATM   13  C   UNK N   1      21.226  16.082   7.803  0.00  0.00     0.065 A 
HETATM   14  C   UNK N   1      20.658  15.576   8.975  0.00  0.00     0.037 A 
HETATM   15  C   UNK N   1      21.013  14.302   9.430  0.00  0.00     0.010 A 
BRANCH  13  16
HETATM   16  O   UNK N   1      20.905  17.314   7.378  0.00  0.00    -0.361 OA
HETATM   17  H   UNK N   1      21.561  17.982   7.334  0.00  0.00     0.217 HD
ENDBRANCH  13  16
ENDBRANCH   1  10
TORSDOF 6
ENDMDL
