MODEL 1
REMARK VINA RESULT:      -4.3      0.000      0.000
REMARK  4 active torsions:
REMARK  status: ('A' for Active; 'I' for Inactive)
REMARK    1  A    between atoms: O_3  and  C_2 
REMARK    2  A    between atoms: C_4  and  C_2 
REMARK    3  A    between atoms: C_4  and  N_5 
REMARK    4  A    between atoms: C_6  and  C_4 
ROOT
HETATM    1  C   UNK N   1      33.889  17.309   8.959  0.00  0.00     0.176 C 
ENDROOT
BRANCH   1   2
HETATM    2  C   UNK N   1      34.583  18.275   8.038  0.00  0.00     0.163 C 
HETATM    3  O   UNK N   1      34.480  18.158   6.829  0.00  0.00    -0.648 OA
BRANCH   2   4
HETATM    4  O   UNK N   1      35.323  19.277   8.547  0.00  0.00    -0.775 OA
HETATM    5  H   UNK N   1      36.131  19.089   8.982  0.00  0.00     0.167 HD
ENDBRANCH   2   4
ENDBRANCH   1   2
BRANCH   1   6
HETATM    6  N   UNK N   1      34.562  16.964  10.201  0.00  0.00    -0.417 N 
HETATM    7  H   UNK N   1      34.263  16.148  10.735  0.00  0.00     0.150 HD
HETATM    8  H   UNK N   1      35.335  17.539  10.539  0.00  0.00     0.150 HD
ENDBRANCH   1   6
BRANCH   1   9
HETATM    9  C   UNK N   1      32.526  16.669   8.674  0.00  0.00     0.010 C 
HETATM   10  C   UNK N   1      32.349  15.164   8.679  0.00  0.00     0.012 C 
HETATM   11  C   UNK N   1      31.312  17.529   8.380  0.00  0.00     0.012 C 
ENDBRANCH   1   9
TORSDOF 4
ENDMDL
MODEL 2
REMARK VINA RESULT:      -4.1      1.627      2.450
REMARK  4 active torsions:
REMARK  status: ('A' for Active; 'I' for Inactive)
REMARK    1  A    between atoms: O_3  and  C_2 
REMARK    2  A    between atoms: C_4  and  C_2 
REMARK    3  A    between atoms: C_4  and  N_5 
REMARK    4  A    between atoms: C_6  and  C_4 
ROOT
HETATM    1  C   UNK N   1      33.893  17.235   8.906  0.00  0.00     0.176 C 
ENDROOT
BRANCH   1   2
HETATM    2  C   UNK N   1      34.556  18.247   8.012  0.00  0.00     0.163 C 
HETATM    3  O   UNK N   1      34.432  18.176   6.802  0.00  0.00    -0.648 OA
BRANCH   2   4
HETATM    4  O   UNK N   1      35.292  19.239   8.547  0.00  0.00    -0.775 OA
HETATM    5  H   UNK N   1      35.309  19.362   9.475  0.00  0.00     0.167 HD
ENDBRANCH   2   4
ENDBRANCH   1   2
BRANCH   1   6
HETATM    6  N   UNK N   1      32.444  17.282   9.014  0.00  0.00    -0.417 N 
HETATM    7  H   UNK N   1      31.916  16.425   9.180  0.00  0.00     0.150 HD
HETATM    8  H   UNK N   1      31.954  18.173   8.924  0.00  0.00     0.150 HD
ENDBRANCH   1   6
BRANCH   1   9
HETATM    9  C   UNK N   1      34.643  16.165   9.707  0.00  0.00     0.010 C 
HETATM   10  C   UNK N   1      35.416  16.520  10.962  0.00  0.00     0.012 C 
HETATM   11  C   UNK N   1      34.632  14.715   9.263  0.00  0.00     0.012 C 
ENDBRANCH   1   9
TORSDOF 4
ENDMDL
MODEL 3
REMARK VINA RESULT:      -4.0     11.742     12.408
REMARK  4 active torsions:
REMARK  status: ('A' for Active; 'I' for Inactive)
REMARK    1  A    between atoms: O_3  and  C_2 
REMARK    2  A    between atoms: C_4  and  C_2 
REMARK    3  A    between atoms: C_4  and  N_5 
REMARK    4  A    between atoms: C_6  and  C_4 
ROOT
HETATM    1  C   UNK N   1      23.695  12.169  11.499  0.00  0.00     0.176 C 
ENDROOT
BRANCH   1   2
HETATM    2  C   UNK N   1      23.317  11.968  12.941  0.00  0.00     0.163 C 
HETATM    3  O   UNK N   1      22.430  11.190  13.245  0.00  0.00    -0.648 OA
BRANCH   2   4
HETATM    4  O   UNK N   1      23.960  12.651  13.907  0.00  0.00    -0.775 OA
HETATM    5  H   UNK N   1      24.894  12.723  13.888  0.00  0.00     0.167 HD
ENDBRANCH   2   4
ENDBRANCH   1   2
BRANCH   1   6
HETATM    6  N   UNK N   1      25.088  12.468  11.205  0.00  0.00    -0.417 N 
HETATM    7  H   UNK N   1      25.324  13.239  10.581  0.00  0.00     0.150 HD
HETATM    8  H   UNK N   1      25.829  11.906  11.624  0.00  0.00     0.150 HD
ENDBRANCH   1   6
BRANCH   1   9
HETATM    9  C   UNK N   1      22.712  12.079  10.326  0.00  0.00     0.010 C 
HETATM   10  C   UNK N   1      21.330  12.695  10.411  0.00  0.00     0.012 C 
HETATM   11  C   UNK N   1      23.099  11.367   9.044  0.00  0.00     0.012 C 
ENDBRANCH   1   9
TORSDOF 4
ENDMDL
MODEL 4
REMARK VINA RESULT:      -3.9     12.218     13.118
REMARK  4 active torsions:
REMARK  status: ('A' for Active; 'I' for Inactive)
REMARK    1  A    between atoms: O_3  and  C_2 
REMARK    2  A    between atoms: C_4  and  C_2 
REMARK    3  A    between atoms: C_4  and  N_5 
REMARK    4  A    between atoms: C_6  and  C_4 
ROOT
HETATM    1  C   UNK N   1      21.548  12.378  11.017  0.00  0.00     0.176 C 
ENDROOT
BRANCH   1   2
HETATM    2  C   UNK N   1      21.229  13.121   9.748  0.00  0.00     0.163 C 
HETATM    3  O   UNK N   1      21.041  12.515   8.708  0.00  0.00    -0.648 OA
BRANCH   2   4
HETATM    4  O   UNK N   1      21.151  14.465   9.756  0.00  0.00    -0.775 OA
HETATM    5  H   UNK N   1      20.315  14.885   9.801  0.00  0.00     0.167 HD
ENDBRANCH   2   4
ENDBRANCH   1   2
BRANCH   1   6
HETATM    6  N   UNK N   1      20.430  11.865  11.793  0.00  0.00    -0.417 N 
HETATM    7  H   UNK N   1      20.233  10.864  11.804  0.00  0.00     0.150 HD
HETATM    8  H   UNK N   1      19.842  12.506  12.326  0.00  0.00     0.150 HD
ENDBRANCH   1   6
BRANCH   1   9
HETATM    9  C   UNK N   1      22.966  12.130  11.541  0.00  0.00     0.010 C 
HETATM   10  C   UNK N   1      23.222  11.842  13.008  0.00  0.00     0.012 C 
HETATM   11  C   UNK N   1      24.157  12.164  10.603  0.00  0.00     0.012 C 
ENDBRANCH   1   9
TORSDOF 4
ENDMDL
MODEL 5
REMARK VINA RESULT:      -3.9     13.601     14.642
REMARK  4 active torsions:
REMARK  status: ('A' for Active; 'I' for Inactive)
REMARK    1  A    between atoms: O_3  and  C_2 
REMARK    2  A    between atoms: C_4  and  C_2 
REMARK    3  A    between atoms: C_4  and  N_5 
REMARK    4  A    between atoms: C_6  and  C_4 
ROOT
HETATM    1  C   UNK N   1      20.267  19.072   2.270  0.00  0.00     0.176 C 
ENDROOT
BRANCH   1   2
HETATM    2  C   UNK N   1      20.769  20.192   1.401  0.00  0.00     0.163 C 
HETATM    3  O   UNK N   1      21.256  21.191   1.901  0.00  0.00    -0.648 OA
BRANCH   2   4
HETATM    4  O   UNK N   1      20.683  20.096   0.061  0.00  0.00    -0.775 OA
HETATM    5  H   UNK N   1      21.107  20.730  -0.483  0.00  0.00     0.167 HD
ENDBRANCH   2   4
ENDBRANCH   1   2
BRANCH   1   6
HETATM    6  N   UNK N   1      18.830  18.852   2.319  0.00  0.00    -0.417 N 
HETATM    7  H   UNK N   1      18.314  19.037   3.179  0.00  0.00     0.150 HD
HETATM    8  H   UNK N   1      18.338  18.513   1.492  0.00  0.00     0.150 HD
ENDBRANCH   1   6
BRANCH   1   9
HETATM    9  C   UNK N   1      21.167  18.152   3.102  0.00  0.00     0.010 C 
HETATM   10  C   UNK N   1      22.065  18.707   4.191  0.00  0.00     0.012 C 
HETATM   11  C   UNK N   1      21.184  16.656   2.858  0.00  0.00     0.012 C 
ENDBRANCH   1   9
TORSDOF 4
ENDMDL
MODEL 6
REMARK VINA RESULT:      -3.9      4.108      4.780
REMARK  4 active torsions:
REMARK  status: ('A' for Active; 'I' for Inactive)
REMARK    1  A    between atoms: O_3  and  C_2 
REMARK    2  A    between atoms: C_4  and  C_2 
REMARK    3  A    between atoms: C_4  and  N_5 
REMARK    4  A    between atoms: C_6  and  C_4 
ROOT
HETATM    1  C   UNK N   1      34.829  15.042  11.321  0.00  0.00     0.176 C 
ENDROOT
BRANCH   1   2
HETATM    2  C   UNK N   1      35.694  16.208  10.927  0.00  0.00     0.163 C 
HETATM    3  O   UNK N   1      35.195  17.293  10.688  0.00  0.00    -0.648 OA
BRANCH   2   4
HETATM    4  O   UNK N   1      37.028  16.056  10.836  0.00  0.00    -0.775 OA
HETATM    5  H   UNK N   1      37.392  15.214  10.647  0.00  0.00     0.167 HD
ENDBRANCH   2   4
ENDBRANCH   1   2
BRANCH   1   6
HETATM    6  N   UNK N   1      33.462  15.022  10.824  0.00  0.00    -0.417 N 
HETATM    7  H   UNK N   1      33.074  15.845  10.362  0.00  0.00     0.150 HD
HETATM    8  H   UNK N   1      32.890  14.185  10.938  0.00  0.00     0.150 HD
ENDBRANCH   1   6
BRANCH   1   9
HETATM    9  C   UNK N   1      35.292  13.880  12.207  0.00  0.00     0.010 C 
HETATM   10  C   UNK N   1      35.972  14.131  13.539  0.00  0.00     0.012 C 
HETATM   11  C   UNK N   1      35.083  12.442  11.773  0.00  0.00     0.012 C 
ENDBRANCH   1   9
TORSDOF 4
ENDMDL
MODEL 7
REMARK VINA RESULT:      -3.8     11.527     12.476
REMARK  4 active torsions:
REMARK  status: ('A' for Active; 'I' for Inactive)
REMARK    1  A    between atoms: O_3  and  C_2 
REMARK    2  A    between atoms: C_4  and  C_2 
REMARK    3  A    between atoms: C_4  and  N_5 
REMARK    4  A    between atoms: C_6  and  C_4 
ROOT
HETATM    1  C   UNK N   1      44.378  21.997   3.648  0.00  0.00     0.176 C 
ENDROOT
BRANCH   1   2
HETATM    2  C   UNK N   1      43.587  23.262   3.461  0.00  0.00     0.163 C 
HETATM    3  O   UNK N   1      43.013  23.482   2.409  0.00  0.00    -0.648 OA
BRANCH   2   4
HETATM    4  O   UNK N   1      43.510  24.162   4.460  0.00  0.00    -0.775 OA
HETATM    5  H   UNK N   1      43.879  25.016   4.352  0.00  0.00     0.167 HD
ENDBRANCH   2   4
ENDBRANCH   1   2
BRANCH   1   6
HETATM    6  N   UNK N   1      45.733  22.121   4.161  0.00  0.00    -0.417 N 
HETATM    7  H   UNK N   1      46.322  21.293   4.254  0.00  0.00     0.150 HD
HETATM    8  H   UNK N   1      46.095  23.036   4.428  0.00  0.00     0.150 HD
ENDBRANCH   1   6
BRANCH   1   9
HETATM    9  C   UNK N   1      43.850  20.592   3.334  0.00  0.00     0.010 C 
HETATM   10  C   UNK N   1      42.365  20.289   3.353  0.00  0.00     0.012 C 
HETATM   11  C   UNK N   1      44.804  19.463   2.994  0.00  0.00     0.012 C 
ENDBRANCH   1   9
TORSDOF 4
ENDMDL
MODEL 8
REMARK VINA RESULT:      -3.8      7.775      8.303
REMARK  4 active torsions:
REMARK  status: ('A' for Active; 'I' for Inactive)
REMARK    1  A    between atoms: O_3  and  C_2 
REMARK    2  A    between atoms: C_4  and  C_2 
REMARK    3  A    between atoms: C_4  and  N_5 
REMARK    4  A    between atoms: C_6  and  C_4 
ROOT
HETATM    1  C   UNK N   1      36.409  13.821  15.129  0.00  0.00     0.176 C 
ENDROOT
BRANCH   1   2
HETATM    2  C   UNK N   1      36.018  13.802  13.676  0.00  0.00     0.163 C 
HETATM    3  O   UNK N   1      34.864  13.588  13.350  0.00  0.00    -0.648 OA
BRANCH   2   4
HETATM    4  O   UNK N   1      36.947  14.023  12.726  0.00  0.00    -0.775 OA
HETATM    5  H   UNK N   1      36.692  14.364  11.892  0.00  0.00     0.167 HD
ENDBRANCH   2   4
ENDBRANCH   1   2
BRANCH   1   6
HETATM    6  N   UNK N   1      37.365  14.831  15.554  0.00  0.00    -0.417 N 
HETATM    7  H   UNK N   1      37.123  15.482  16.301  0.00  0.00     0.150 HD
HETATM    8  H   UNK N   1      38.279  14.889  15.105  0.00  0.00     0.150 HD
ENDBRANCH   1   6
BRANCH   1   9
HETATM    9  C   UNK N   1      35.866  12.851  16.183  0.00  0.00     0.010 C 
HETATM   10  C   UNK N   1      34.969  13.332  17.306  0.00  0.00     0.012 C 
HETATM   11  C   UNK N   1      36.214  11.375  16.131  0.00  0.00     0.012 C 
ENDBRANCH   1   9
TORSDOF 4
ENDMDL
MODEL 9
REMARK VINA RESULT:      -3.7      2.144      2.761
REMARK  4 active torsions:
REMARK  status: ('A' for Active; 'I' for Inactive)
REMARK    1  A    between atoms: O_3  and  C_2 
REMARK    2  A    between atoms: C_4  and  C_2 
REMARK    3  A    between atoms: C_4  and  N_5 
REMARK    4  A    between atoms: C_6  and  C_4 
ROOT
HETATM    1  C   UNK N   1      33.735  17.579   8.003  0.00  0.00     0.176 C 
ENDROOT
BRANCH   1   2
HETATM    2  C   UNK N   1      34.854  18.199   8.795  0.00  0.00     0.163 C 
HETATM    3  O   UNK N   1      35.320  19.275   8.466  0.00  0.00    -0.648 OA
BRANCH   2   4
HETATM    4  O   UNK N   1      35.347  17.564   9.875  0.00  0.00    -0.775 OA
HETATM    5  H   UNK N   1      36.249  17.314   9.900  0.00  0.00     0.167 HD
ENDBRANCH   2   4
ENDBRANCH   1   2
BRANCH   1   6
HETATM    6  N   UNK N   1      32.409  17.581   8.600  0.00  0.00    -0.417 N 
HETATM    7  H   UNK N   1      31.978  16.703   8.890  0.00  0.00     0.150 HD
HETATM    8  H   UNK N   1      31.909  18.461   8.728  0.00  0.00     0.150 HD
ENDBRANCH   1   6
BRANCH   1   9
HETATM    9  C   UNK N   1      33.902  16.948   6.616  0.00  0.00     0.010 C 
HETATM   10  C   UNK N   1      33.239  17.552   5.394  0.00  0.00     0.012 C 
HETATM   11  C   UNK N   1      34.739  15.698   6.428  0.00  0.00     0.012 C 
ENDBRANCH   1   9
TORSDOF 4
ENDMDL
