MODEL 1
REMARK VINA RESULT:      -4.2      0.000      0.000
REMARK  5 active torsions:
REMARK  status: ('A' for Active; 'I' for Inactive)
REMARK    1  A    between atoms: O_1  and  C_4 
REMARK    2  A    between atoms: C_3  and  C_6 
REMARK    3  A    between atoms: C_8  and  C_3 
REMARK    4  A    between atoms: C_6  and  C_4 
REMARK    5  A    between atoms: C_6  and  N_7 
ROOT
HETATM    1  C   UNK N   1      33.096  17.427   8.333  0.00  0.00     0.173 C 
ENDROOT
BRANCH   1   2
HETATM    2  C   UNK N   1      34.243  18.137   7.672  0.00  0.00     0.163 C 
HETATM    3  O   UNK N   1      34.537  17.874   6.517  0.00  0.00    -0.648 OA
BRANCH   2   4
HETATM    4  O   UNK N   1      34.977  19.039   8.356  0.00  0.00    -0.775 OA
HETATM    5  H   UNK N   1      35.886  19.201   8.193  0.00  0.00     0.167 HD
ENDBRANCH   2   4
ENDBRANCH   1   2
BRANCH   1   6
HETATM    6  C   UNK N   1      31.925  18.378   8.572  0.00  0.00     0.039 C 
BRANCH   6   7
HETATM    7  C   UNK N   1      30.626  17.612   8.793  0.00  0.00    -0.020 C 
HETATM    8  C   UNK N   1      30.015  17.250   7.456  0.00  0.00     0.009 C 
HETATM    9  C   UNK N   1      29.630  18.447   9.578  0.00  0.00     0.009 C 
ENDBRANCH   6   7
ENDBRANCH   1   6
BRANCH   1  10
HETATM   10  N   UNK N   1      33.523  16.828   9.588  0.00  0.00    -0.418 N 
HETATM   11  H   UNK N   1      33.194  15.906   9.873  0.00  0.00     0.150 HD
HETATM   12  H   UNK N   1      34.164  17.340  10.194  0.00  0.00     0.150 HD
ENDBRANCH   1  10
TORSDOF 5
ENDMDL
MODEL 2
REMARK VINA RESULT:      -4.2      1.280      1.999
REMARK  5 active torsions:
REMARK  status: ('A' for Active; 'I' for Inactive)
REMARK    1  A    between atoms: O_1  and  C_4 
REMARK    2  A    between atoms: C_3  and  C_6 
REMARK    3  A    between atoms: C_8  and  C_3 
REMARK    4  A    between atoms: C_6  and  C_4 
REMARK    5  A    between atoms: C_6  and  N_7 
ROOT
HETATM    1  C   UNK N   1      33.696  17.126   8.659  0.00  0.00     0.173 C 
ENDROOT
BRANCH   1   2
HETATM    2  C   UNK N   1      34.434  18.127   7.816  0.00  0.00     0.163 C 
HETATM    3  O   UNK N   1      35.009  19.063   8.347  0.00  0.00    -0.648 OA
BRANCH   2   4
HETATM    4  O   UNK N   1      34.436  18.023   6.471  0.00  0.00    -0.775 OA
HETATM    5  H   UNK N   1      33.776  18.393   5.919  0.00  0.00     0.167 HD
ENDBRANCH   2   4
ENDBRANCH   1   2
BRANCH   1   6
HETATM    6  C   UNK N   1      32.209  17.464   8.738  0.00  0.00     0.039 C 
BRANCH   6   7
HETATM    7  C   UNK N   1      31.370  16.458   7.959  0.00  0.00    -0.020 C 
HETATM    8  C   UNK N   1      32.191  15.216   7.684  0.00  0.00     0.009 C 
HETATM    9  C   UNK N   1      30.908  17.044   6.637  0.00  0.00     0.009 C 
ENDBRANCH   6   7
ENDBRANCH   1   6
BRANCH   1  10
HETATM   10  N   UNK N   1      34.271  17.064   9.995  0.00  0.00    -0.418 N 
HETATM   11  H   UNK N   1      33.681  17.093  10.826  0.00  0.00     0.150 HD
HETATM   12  H   UNK N   1      35.283  16.989  10.101  0.00  0.00     0.150 HD
ENDBRANCH   1  10
TORSDOF 5
ENDMDL
MODEL 3
REMARK VINA RESULT:      -4.1      3.854      4.800
REMARK  5 active torsions:
REMARK  status: ('A' for Active; 'I' for Inactive)
REMARK    1  A    between atoms: O_1  and  C_4 
REMARK    2  A    between atoms: C_3  and  C_6 
REMARK    3  A    between atoms: C_8  and  C_3 
REMARK    4  A    between atoms: C_6  and  C_4 
REMARK    5  A    between atoms: C_6  and  N_7 
ROOT
HETATM    1  C   UNK N   1      29.403  18.136   9.911  0.00  0.00     0.173 C 
ENDROOT
BRANCH   1   2
HETATM    2  C   UNK N   1      28.064  18.005   9.241  0.00  0.00     0.163 C 
HETATM    3  O   UNK N   1      27.467  16.941   9.278  0.00  0.00    -0.648 OA
BRANCH   2   4
HETATM    4  O   UNK N   1      27.530  19.044   8.566  0.00  0.00    -0.775 OA
HETATM    5  H   UNK N   1      28.022  19.605   8.000  0.00  0.00     0.167 HD
ENDBRANCH   2   4
ENDBRANCH   1   2
BRANCH   1   6
HETATM    6  C   UNK N   1      30.464  18.625   8.927  0.00  0.00     0.039 C 
BRANCH   6   7
HETATM    7  C   UNK N   1      31.275  17.463   8.365  0.00  0.00    -0.020 C 
HETATM    8  C   UNK N   1      32.737  17.851   8.294  0.00  0.00     0.009 C 
HETATM    9  C   UNK N   1      30.798  17.090   6.973  0.00  0.00     0.009 C 
ENDBRANCH   6   7
ENDBRANCH   1   6
BRANCH   1  10
HETATM   10  N   UNK N   1      29.806  16.866  10.496  0.00  0.00    -0.418 N 
HETATM   11  H   UNK N   1      30.380  16.830  11.338  0.00  0.00     0.150 HD
HETATM   12  H   UNK N   1      29.506  15.996  10.057  0.00  0.00     0.150 HD
ENDBRANCH   1  10
TORSDOF 5
ENDMDL
MODEL 4
REMARK VINA RESULT:      -4.1      2.615      4.005
REMARK  5 active torsions:
REMARK  status: ('A' for Active; 'I' for Inactive)
REMARK    1  A    between atoms: O_1  and  C_4 
REMARK    2  A    between atoms: C_3  and  C_6 
REMARK    3  A    between atoms: C_8  and  C_3 
REMARK    4  A    between atoms: C_6  and  C_4 
REMARK    5  A    between atoms: C_6  and  N_7 
ROOT
HETATM    1  C   UNK N   1      34.053  17.255   9.050  0.00  0.00     0.173 C 
ENDROOT
BRANCH   1   2
HETATM    2  C   UNK N   1      34.625  18.258   8.089  0.00  0.00     0.163 C 
HETATM    3  O   UNK N   1      35.261  19.210   8.511  0.00  0.00    -0.648 OA
BRANCH   2   4
HETATM    4  O   UNK N   1      34.409  18.139   6.763  0.00  0.00    -0.775 OA
HETATM    5  H   UNK N   1      33.679  17.683   6.393  0.00  0.00     0.167 HD
ENDBRANCH   2   4
ENDBRANCH   1   2
BRANCH   1   6
HETATM    6  C   UNK N   1      34.611  15.859   8.783  0.00  0.00     0.039 C 
BRANCH   6   7
HETATM    7  C   UNK N   1      35.580  15.431   9.880  0.00  0.00    -0.020 C 
HETATM    8  C   UNK N   1      35.329  13.983  10.244  0.00  0.00     0.009 C 
HETATM    9  C   UNK N   1      35.409  16.286  11.121  0.00  0.00     0.009 C 
ENDBRANCH   6   7
ENDBRANCH   1   6
BRANCH   1  10
HETATM   10  N   UNK N   1      32.600  17.241   8.968  0.00  0.00    -0.418 N 
HETATM   11  H   UNK N   1      32.034  16.782   9.681  0.00  0.00     0.150 HD
HETATM   12  H   UNK N   1      32.139  17.700   8.182  0.00  0.00     0.150 HD
ENDBRANCH   1  10
TORSDOF 5
ENDMDL
MODEL 5
REMARK VINA RESULT:      -4.0      2.385      3.295
REMARK  5 active torsions:
REMARK  status: ('A' for Active; 'I' for Inactive)
REMARK    1  A    between atoms: O_1  and  C_4 
REMARK    2  A    between atoms: C_3  and  C_6 
REMARK    3  A    between atoms: C_8  and  C_3 
REMARK    4  A    between atoms: C_6  and  C_4 
REMARK    5  A    between atoms: C_6  and  N_7 
ROOT
HETATM    1  C   UNK N   1      33.781  16.993   8.196  0.00  0.00     0.173 C 
ENDROOT
BRANCH   1   2
HETATM    2  C   UNK N   1      34.781  17.898   8.859  0.00  0.00     0.163 C 
HETATM    3  O   UNK N   1      35.345  17.537   9.879  0.00  0.00    -0.648 OA
BRANCH   2   4
HETATM    4  O   UNK N   1      35.035  19.124   8.358  0.00  0.00    -0.775 OA
HETATM    5  H   UNK N   1      34.929  19.350   7.455  0.00  0.00     0.167 HD
ENDBRANCH   2   4
ENDBRANCH   1   2
BRANCH   1   6
HETATM    6  C   UNK N   1      33.106  17.690   7.017  0.00  0.00     0.039 C 
BRANCH   6   7
HETATM    7  C   UNK N   1      33.759  17.302   5.695  0.00  0.00    -0.020 C 
HETATM    8  C   UNK N   1      32.771  17.493   4.565  0.00  0.00     0.009 C 
HETATM    9  C   UNK N   1      34.206  15.852   5.716  0.00  0.00     0.009 C 
ENDBRANCH   6   7
ENDBRANCH   1   6
BRANCH   1  10
HETATM   10  N   UNK N   1      32.783  16.547   9.156  0.00  0.00    -0.418 N 
HETATM   11  H   UNK N   1      32.050  15.890   8.890  0.00  0.00     0.150 HD
HETATM   12  H   UNK N   1      32.819  16.896  10.114  0.00  0.00     0.150 HD
ENDBRANCH   1  10
TORSDOF 5
ENDMDL
MODEL 6
REMARK VINA RESULT:      -4.0     13.455     14.080
REMARK  5 active torsions:
REMARK  status: ('A' for Active; 'I' for Inactive)
REMARK    1  A    between atoms: O_1  and  C_4 
REMARK    2  A    between atoms: C_3  and  C_6 
REMARK    3  A    between atoms: C_8  and  C_3 
REMARK    4  A    between atoms: C_6  and  C_4 
REMARK    5  A    between atoms: C_6  and  N_7 
ROOT
HETATM    1  C   UNK N   1      20.040  19.196   2.572  0.00  0.00     0.173 C 
ENDROOT
BRANCH   1   2
HETATM    2  C   UNK N   1      20.654  20.057   1.505  0.00  0.00     0.163 C 
HETATM    3  O   UNK N   1      21.221  21.094   1.811  0.00  0.00    -0.648 OA
BRANCH   2   4
HETATM    4  O   UNK N   1      20.554  19.714   0.204  0.00  0.00    -0.775 OA
HETATM    5  H   UNK N   1      20.010  20.163  -0.412  0.00  0.00     0.167 HD
ENDBRANCH   2   4
ENDBRANCH   1   2
BRANCH   1   6
HETATM    6  C   UNK N   1      20.843  17.912   2.771  0.00  0.00     0.039 C 
BRANCH   6   7
HETATM    7  C   UNK N   1      20.034  16.685   2.366  0.00  0.00    -0.020 C 
HETATM    8  C   UNK N   1      20.012  15.690   3.506  0.00  0.00     0.009 C 
HETATM    9  C   UNK N   1      20.636  16.018   1.143  0.00  0.00     0.009 C 
ENDBRANCH   6   7
ENDBRANCH   1   6
BRANCH   1  10
HETATM   10  N   UNK N   1      18.659  18.881   2.240  0.00  0.00    -0.418 N 
HETATM   11  H   UNK N   1      18.427  18.312   1.426  0.00  0.00     0.150 HD
HETATM   12  H   UNK N   1      17.908  19.235   2.833  0.00  0.00     0.150 HD
ENDBRANCH   1  10
TORSDOF 5
ENDMDL
MODEL 7
REMARK VINA RESULT:      -3.9      8.709      9.271
REMARK  5 active torsions:
REMARK  status: ('A' for Active; 'I' for Inactive)
REMARK    1  A    between atoms: O_1  and  C_4 
REMARK    2  A    between atoms: C_3  and  C_6 
REMARK    3  A    between atoms: C_8  and  C_3 
REMARK    4  A    between atoms: C_6  and  C_4 
REMARK    5  A    between atoms: C_6  and  N_7 
ROOT
HETATM    1  C   UNK N   1      36.527  13.517  14.806  0.00  0.00     0.173 C 
ENDROOT
BRANCH   1   2
HETATM    2  C   UNK N   1      36.150  13.792  13.377  0.00  0.00     0.163 C 
HETATM    3  O   UNK N   1      34.974  13.881  13.065  0.00  0.00    -0.648 OA
BRANCH   2   4
HETATM    4  O   UNK N   1      37.100  13.906  12.426  0.00  0.00    -0.775 OA
HETATM    5  H   UNK N   1      37.994  14.120  12.607  0.00  0.00     0.167 HD
ENDBRANCH   2   4
ENDBRANCH   1   2
BRANCH   1   6
HETATM    6  C   UNK N   1      35.296  13.175  15.642  0.00  0.00     0.039 C 
BRANCH   6   7
HETATM    7  C   UNK N   1      35.690  12.650  17.018  0.00  0.00    -0.020 C 
HETATM    8  C   UNK N   1      35.182  11.234  17.187  0.00  0.00     0.009 C 
HETATM    9  C   UNK N   1      35.104  13.516  18.118  0.00  0.00     0.009 C 
ENDBRANCH   6   7
ENDBRANCH   1   6
BRANCH   1  10
HETATM   10  N   UNK N   1      37.223  14.660  15.378  0.00  0.00    -0.418 N 
HETATM   11  H   UNK N   1      37.235  15.563  14.904  0.00  0.00     0.150 HD
HETATM   12  H   UNK N   1      37.706  14.556  16.270  0.00  0.00     0.150 HD
ENDBRANCH   1  10
TORSDOF 5
ENDMDL
MODEL 8
REMARK VINA RESULT:      -3.9      2.484      3.094
REMARK  5 active torsions:
REMARK  status: ('A' for Active; 'I' for Inactive)
REMARK    1  A    between atoms: O_1  and  C_4 
REMARK    2  A    between atoms: C_3  and  C_6 
REMARK    3  A    between atoms: C_8  and  C_3 
REMARK    4  A    between atoms: C_6  and  C_4 
REMARK    5  A    between atoms: C_6  and  N_7 
ROOT
HETATM    1  C   UNK N   1      33.961  17.190   8.950  0.00  0.00     0.173 C 
ENDROOT
BRANCH   1   2
HETATM    2  C   UNK N   1      34.567  18.224   8.043  0.00  0.00     0.163 C 
HETATM    3  O   UNK N   1      34.434  18.124   6.834  0.00  0.00    -0.648 OA
BRANCH   2   4
HETATM    4  O   UNK N   1      35.290  19.244   8.550  0.00  0.00    -0.775 OA
HETATM    5  H   UNK N   1      34.926  19.929   9.075  0.00  0.00     0.167 HD
ENDBRANCH   2   4
ENDBRANCH   1   2
BRANCH   1   6
HETATM    6  C   UNK N   1      34.290  15.778   8.470  0.00  0.00     0.039 C 
BRANCH   6   7
HETATM    7  C   UNK N   1      33.032  15.034   8.037  0.00  0.00    -0.020 C 
HETATM    8  C   UNK N   1      32.929  13.727   8.793  0.00  0.00     0.009 C 
HETATM    9  C   UNK N   1      33.061  14.739   6.548  0.00  0.00     0.009 C 
ENDBRANCH   6   7
ENDBRANCH   1   6
BRANCH   1  10
HETATM   10  N   UNK N   1      32.520  17.371   9.036  0.00  0.00    -0.418 N 
HETATM   11  H   UNK N   1      32.112  18.093   9.629  0.00  0.00     0.150 HD
HETATM   12  H   UNK N   1      31.906  16.764   8.492  0.00  0.00     0.150 HD
ENDBRANCH   1  10
TORSDOF 5
ENDMDL
MODEL 9
REMARK VINA RESULT:      -3.8      4.977      5.991
REMARK  5 active torsions:
REMARK  status: ('A' for Active; 'I' for Inactive)
REMARK    1  A    between atoms: O_1  and  C_4 
REMARK    2  A    between atoms: C_3  and  C_6 
REMARK    3  A    between atoms: C_8  and  C_3 
REMARK    4  A    between atoms: C_6  and  C_4 
REMARK    5  A    between atoms: C_6  and  N_7 
ROOT
HETATM    1  C   UNK N   1      34.733  15.132  11.370  0.00  0.00     0.173 C 
ENDROOT
BRANCH   1   2
HETATM    2  C   UNK N   1      35.345  16.325  10.691  0.00  0.00     0.163 C 
HETATM    3  O   UNK N   1      36.557  16.471  10.693  0.00  0.00    -0.648 OA
BRANCH   2   4
HETATM    4  O   UNK N   1      34.565  17.260  10.110  0.00  0.00    -0.775 OA
HETATM    5  H   UNK N   1      34.041  17.872  10.588  0.00  0.00     0.167 HD
ENDBRANCH   2   4
ENDBRANCH   1   2
BRANCH   1   6
HETATM    6  C   UNK N   1      35.607  13.892  11.194  0.00  0.00     0.039 C 
BRANCH   6   7
HETATM    7  C   UNK N   1      36.008  13.303  12.541  0.00  0.00    -0.020 C 
HETATM    8  C   UNK N   1      34.911  12.388  13.043  0.00  0.00     0.009 C 
HETATM    9  C   UNK N   1      36.243  14.397  13.566  0.00  0.00     0.009 C 
ENDBRANCH   6   7
ENDBRANCH   1   6
BRANCH   1  10
HETATM   10  N   UNK N   1      33.395  14.883  10.853  0.00  0.00    -0.418 N 
HETATM   11  H   UNK N   1      33.086  13.941  10.618  0.00  0.00     0.150 HD
HETATM   12  H   UNK N   1      32.755  15.667  10.724  0.00  0.00     0.150 HD
ENDBRANCH   1  10
TORSDOF 5
ENDMDL
