MODEL 1
REMARK VINA RESULT:      -4.9      0.000      0.000
REMARK  14 active torsions:
REMARK  status: ('A' for Active; 'I' for Inactive)
REMARK    1  A    between atoms: O_1  and  C_11 
REMARK    2  A    between atoms: C_3  and  C_4 
REMARK    3  A    between atoms: C_3  and  C_5 
REMARK    4  A    between atoms: C_4  and  C_6 
REMARK    5  A    between atoms: C_5  and  C_7 
REMARK    6  A    between atoms: C_6  and  C_8 
REMARK    7  A    between atoms: C_7  and  C_9 
REMARK    8  A    between atoms: C_8  and  C_10 
REMARK    9  A    between atoms: C_9  and  C_11 
REMARK   10  A    between atoms: C_12  and  C_13 
REMARK   11  A    between atoms: C_13  and  C_14 
REMARK   12  A    between atoms: C_15  and  C_16 
REMARK   13  A    between atoms: C_16  and  C_17 
REMARK   14  A    between atoms: C_18  and  C_19 
ROOT
HETATM    1  C   UNK N   1      27.597  28.503  -6.093  0.00  0.00     0.027 C 
ENDROOT
BRANCH   1   2
HETATM    2  C   UNK N   1      29.107  28.451  -5.995  0.00  0.00     0.004 C 
BRANCH   2   3
HETATM    3  C   UNK N   1      29.484  27.706  -4.733  0.00  0.00     0.000 C 
BRANCH   3   4
HETATM    4  C   UNK N   1      29.985  26.316  -5.060  0.00  0.00     0.000 C 
BRANCH   4   5
HETATM    5  C   UNK N   1      30.578  25.712  -3.801  0.00  0.00     0.001 C 
BRANCH   5   6
HETATM    6  C   UNK N   1      31.283  24.412  -4.131  0.00  0.00     0.010 C 
BRANCH   6   7
HETATM    7  C   UNK N   1      30.431  23.226  -3.721  0.00  0.00     0.110 C 
BRANCH   7   8
HETATM    8  C   UNK N   1      30.874  22.723  -2.387  0.00  0.00     0.139 C 
HETATM    9  O   UNK N   1      30.258  23.038  -1.380  0.00  0.00    -0.650 OA
BRANCH   8  10
HETATM   10  O   UNK N   1      31.943  21.913  -2.293  0.00  0.00    -0.776 OA
HETATM   11  H   UNK N   1      32.452  21.879  -1.506  0.00  0.00     0.167 HD
ENDBRANCH   8  10
ENDBRANCH   7   8
ENDBRANCH   6   7
ENDBRANCH   5   6
ENDBRANCH   4   5
ENDBRANCH   3   4
ENDBRANCH   2   3
ENDBRANCH   1   2
BRANCH   1  12
HETATM   12  C   UNK N   1      27.041  29.395  -5.031  0.00  0.00    -0.030 C 
HETATM   13  C   UNK N   1      26.139  28.968  -4.138  0.00  0.00    -0.027 C 
BRANCH  13  14
HETATM   14  C   UNK N   1      25.610  27.566  -4.136  0.00  0.00     0.053 C 
BRANCH  14  15
HETATM   15  C   UNK N   1      26.446  26.702  -3.244  0.00  0.00    -0.027 C 
HETATM   16  C   UNK N   1      26.624  25.396  -3.469  0.00  0.00    -0.027 C 
BRANCH  16  17
HETATM   17  C   UNK N   1      26.013  24.700  -4.640  0.00  0.00     0.053 C 
BRANCH  17  18
HETATM   18  C   UNK N   1      27.056  24.454  -5.683  0.00  0.00    -0.027 C 
HETATM   19  C   UNK N   1      26.925  24.905  -6.935  0.00  0.00    -0.031 C 
BRANCH  19  20
HETATM   20  C   UNK N   1      25.734  25.694  -7.376  0.00  0.00     0.022 C 
HETATM   21  C   UNK N   1      25.891  26.085  -8.830  0.00  0.00     0.009 C 
ENDBRANCH  19  20
ENDBRANCH  17  18
ENDBRANCH  16  17
ENDBRANCH  14  15
ENDBRANCH  13  14
ENDBRANCH   1  12
TORSDOF 14
ENDMDL
MODEL 2
REMARK VINA RESULT:      -4.6     20.606     25.184
REMARK  14 active torsions:
REMARK  status: ('A' for Active; 'I' for Inactive)
REMARK    1  A    between atoms: O_1  and  C_11 
REMARK    2  A    between atoms: C_3  and  C_4 
REMARK    3  A    between atoms: C_3  and  C_5 
REMARK    4  A    between atoms: C_4  and  C_6 
REMARK    5  A    between atoms: C_5  and  C_7 
REMARK    6  A    between atoms: C_6  and  C_8 
REMARK    7  A    between atoms: C_7  and  C_9 
REMARK    8  A    between atoms: C_8  and  C_10 
REMARK    9  A    between atoms: C_9  and  C_11 
REMARK   10  A    between atoms: C_12  and  C_13 
REMARK   11  A    between atoms: C_13  and  C_14 
REMARK   12  A    between atoms: C_15  and  C_16 
REMARK   13  A    between atoms: C_16  and  C_17 
REMARK   14  A    between atoms: C_18  and  C_19 
ROOT
HETATM    1  C   UNK N   1      34.887  10.997  15.412  0.00  0.00     0.027 C 
ENDROOT
BRANCH   1   2
HETATM    2  C   UNK N   1      35.160  12.363  14.817  0.00  0.00     0.004 C 
BRANCH   2   3
HETATM    3  C   UNK N   1      36.613  12.427  14.400  0.00  0.00     0.000 C 
BRANCH   3   4
HETATM    4  C   UNK N   1      36.760  13.154  13.080  0.00  0.00     0.000 C 
BRANCH   4   5
HETATM    5  C   UNK N   1      35.708  14.246  13.016  0.00  0.00     0.001 C 
BRANCH   5   6
HETATM    6  C   UNK N   1      35.231  14.424  11.589  0.00  0.00     0.010 C 
BRANCH   6   7
HETATM    7  C   UNK N   1      36.075  15.461  10.871  0.00  0.00     0.110 C 
BRANCH   7   8
HETATM    8  C   UNK N   1      35.207  16.582  10.405  0.00  0.00     0.139 C 
HETATM    9  O   UNK N   1      35.670  17.706  10.291  0.00  0.00    -0.650 OA
BRANCH   8  10
HETATM   10  O   UNK N   1      33.918  16.353  10.096  0.00  0.00    -0.776 OA
HETATM   11  H   UNK N   1      33.298  17.056  10.072  0.00  0.00     0.167 HD
ENDBRANCH   8  10
ENDBRANCH   7   8
ENDBRANCH   6   7
ENDBRANCH   5   6
ENDBRANCH   4   5
ENDBRANCH   3   4
ENDBRANCH   2   3
ENDBRANCH   1   2
BRANCH   1  12
HETATM   12  C   UNK N   1      36.114  10.472  16.083  0.00  0.00    -0.030 C 
HETATM   13  C   UNK N   1      36.163  10.234  17.400  0.00  0.00    -0.027 C 
BRANCH  13  14
HETATM   14  C   UNK N   1      34.996  10.483  18.306  0.00  0.00     0.053 C 
BRANCH  14  15
HETATM   15  C   UNK N   1      35.425  11.301  19.484  0.00  0.00    -0.027 C 
HETATM   16  C   UNK N   1      35.468  12.637  19.455  0.00  0.00    -0.027 C 
BRANCH  16  17
HETATM   17  C   UNK N   1      35.075  13.419  18.245  0.00  0.00     0.053 C 
BRANCH  17  18
HETATM   18  C   UNK N   1      35.256  14.880  18.504  0.00  0.00    -0.027 C 
HETATM   19  C   UNK N   1      36.192  15.599  17.875  0.00  0.00    -0.031 C 
BRANCH  19  20
HETATM   20  C   UNK N   1      37.113  14.995  16.864  0.00  0.00     0.022 C 
HETATM   21  C   UNK N   1      37.466  16.029  15.815  0.00  0.00     0.009 C 
ENDBRANCH  19  20
ENDBRANCH  17  18
ENDBRANCH  16  17
ENDBRANCH  14  15
ENDBRANCH  13  14
ENDBRANCH   1  12
TORSDOF 14
ENDMDL
MODEL 3
REMARK VINA RESULT:      -4.6      1.354      1.924
REMARK  14 active torsions:
REMARK  status: ('A' for Active; 'I' for Inactive)
REMARK    1  A    between atoms: O_1  and  C_11 
REMARK    2  A    between atoms: C_3  and  C_4 
REMARK    3  A    between atoms: C_3  and  C_5 
REMARK    4  A    between atoms: C_4  and  C_6 
REMARK    5  A    between atoms: C_5  and  C_7 
REMARK    6  A    between atoms: C_6  and  C_8 
REMARK    7  A    between atoms: C_7  and  C_9 
REMARK    8  A    between atoms: C_8  and  C_10 
REMARK    9  A    between atoms: C_9  and  C_11 
REMARK   10  A    between atoms: C_12  and  C_13 
REMARK   11  A    between atoms: C_13  and  C_14 
REMARK   12  A    between atoms: C_15  and  C_16 
REMARK   13  A    between atoms: C_16  and  C_17 
REMARK   14  A    between atoms: C_18  and  C_19 
ROOT
HETATM    1  C   UNK N   1      28.282  28.176  -6.970  0.00  0.00     0.027 C 
ENDROOT
BRANCH   1   2
HETATM    2  C   UNK N   1      29.779  28.026  -7.143  0.00  0.00     0.004 C 
BRANCH   2   3
HETATM    3  C   UNK N   1      30.293  27.066  -6.092  0.00  0.00     0.000 C 
BRANCH   3   4
HETATM    4  C   UNK N   1      29.329  25.914  -5.902  0.00  0.00     0.000 C 
BRANCH   4   5
HETATM    5  C   UNK N   1      29.183  25.652  -4.415  0.00  0.00     0.001 C 
BRANCH   5   6
HETATM    6  C   UNK N   1      29.416  24.185  -4.121  0.00  0.00     0.010 C 
BRANCH   6   7
HETATM    7  C   UNK N   1      30.781  23.978  -3.492  0.00  0.00     0.110 C 
BRANCH   7   8
HETATM    8  C   UNK N   1      30.729  22.828  -2.542  0.00  0.00     0.139 C 
HETATM    9  O   UNK N   1      30.417  23.012  -1.376  0.00  0.00    -0.650 OA
BRANCH   8  10
HETATM   10  O   UNK N   1      31.014  21.585  -2.971  0.00  0.00    -0.776 OA
HETATM   11  H   UNK N   1      31.807  21.158  -2.711  0.00  0.00     0.167 HD
ENDBRANCH   8  10
ENDBRANCH   7   8
ENDBRANCH   6   7
ENDBRANCH   5   6
ENDBRANCH   4   5
ENDBRANCH   3   4
ENDBRANCH   2   3
ENDBRANCH   1   2
BRANCH   1  12
HETATM   12  C   UNK N   1      27.973  29.430  -6.219  0.00  0.00    -0.030 C 
HETATM   13  C   UNK N   1      27.254  29.428  -5.089  0.00  0.00    -0.027 C 
BRANCH  13  14
HETATM   14  C   UNK N   1      26.696  28.173  -4.492  0.00  0.00     0.053 C 
BRANCH  14  15
HETATM   15  C   UNK N   1      25.239  28.054  -4.812  0.00  0.00    -0.027 C 
HETATM   16  C   UNK N   1      24.745  27.066  -5.566  0.00  0.00    -0.027 C 
BRANCH  16  17
HETATM   17  C   UNK N   1      25.613  25.993  -6.137  0.00  0.00     0.053 C 
BRANCH  17  18
HETATM   18  C   UNK N   1      25.614  24.806  -5.229  0.00  0.00    -0.027 C 
HETATM   19  C   UNK N   1      25.979  23.591  -5.653  0.00  0.00    -0.031 C 
BRANCH  19  20
HETATM   20  C   UNK N   1      26.422  23.339  -7.059  0.00  0.00     0.022 C 
HETATM   21  C   UNK N   1      27.737  22.589  -7.052  0.00  0.00     0.009 C 
ENDBRANCH  19  20
ENDBRANCH  17  18
ENDBRANCH  16  17
ENDBRANCH  14  15
ENDBRANCH  13  14
ENDBRANCH   1  12
TORSDOF 14
ENDMDL
MODEL 4
REMARK VINA RESULT:      -4.6      2.828      5.683
REMARK  14 active torsions:
REMARK  status: ('A' for Active; 'I' for Inactive)
REMARK    1  A    between atoms: O_1  and  C_11 
REMARK    2  A    between atoms: C_3  and  C_4 
REMARK    3  A    between atoms: C_3  and  C_5 
REMARK    4  A    between atoms: C_4  and  C_6 
REMARK    5  A    between atoms: C_5  and  C_7 
REMARK    6  A    between atoms: C_6  and  C_8 
REMARK    7  A    between atoms: C_7  and  C_9 
REMARK    8  A    between atoms: C_8  and  C_10 
REMARK    9  A    between atoms: C_9  and  C_11 
REMARK   10  A    between atoms: C_12  and  C_13 
REMARK   11  A    between atoms: C_13  and  C_14 
REMARK   12  A    between atoms: C_15  and  C_16 
REMARK   13  A    between atoms: C_16  and  C_17 
REMARK   14  A    between atoms: C_18  and  C_19 
ROOT
HETATM    1  C   UNK N   1      26.551  23.816  -6.626  0.00  0.00     0.027 C 
ENDROOT
BRANCH   1   2
HETATM    2  C   UNK N   1      25.839  24.224  -7.900  0.00  0.00     0.004 C 
BRANCH   2   3
HETATM    3  C   UNK N   1      25.991  25.718  -8.081  0.00  0.00     0.000 C 
BRANCH   3   4
HETATM    4  C   UNK N   1      27.345  26.182  -7.589  0.00  0.00     0.000 C 
BRANCH   4   5
HETATM    5  C   UNK N   1      27.208  27.606  -7.081  0.00  0.00     0.001 C 
BRANCH   5   6
HETATM    6  C   UNK N   1      27.206  27.618  -5.566  0.00  0.00     0.010 C 
BRANCH   6   7
HETATM    7  C   UNK N   1      25.805  27.862  -5.038  0.00  0.00     0.110 C 
BRANCH   7   8
HETATM    8  C   UNK N   1      25.873  28.303  -3.614  0.00  0.00     0.139 C 
HETATM    9  O   UNK N   1      25.818  27.478  -2.715  0.00  0.00    -0.650 OA
BRANCH   8  10
HETATM   10  O   UNK N   1      26.008  29.609  -3.318  0.00  0.00    -0.776 OA
HETATM   11  H   UNK N   1      26.086  30.250  -3.997  0.00  0.00     0.167 HD
ENDBRANCH   8  10
ENDBRANCH   7   8
ENDBRANCH   6   7
ENDBRANCH   5   6
ENDBRANCH   4   5
ENDBRANCH   3   4
ENDBRANCH   2   3
ENDBRANCH   1   2
BRANCH   1  12
HETATM   12  C   UNK N   1      25.688  24.098  -5.439  0.00  0.00    -0.030 C 
HETATM   13  C   UNK N   1      26.196  24.301  -4.218  0.00  0.00    -0.027 C 
BRANCH  13  14
HETATM   14  C   UNK N   1      27.668  24.253  -3.940  0.00  0.00     0.053 C 
BRANCH  14  15
HETATM   15  C   UNK N   1      27.918  23.651  -2.592  0.00  0.00    -0.027 C 
HETATM   16  C   UNK N   1      29.063  23.036  -2.280  0.00  0.00    -0.027 C 
BRANCH  16  17
HETATM   17  C   UNK N   1      30.191  22.915  -3.252  0.00  0.00     0.053 C 
BRANCH  17  18
HETATM   18  C   UNK N   1      30.542  21.475  -3.444  0.00  0.00    -0.027 C 
HETATM   19  C   UNK N   1      30.736  20.950  -4.658  0.00  0.00    -0.031 C 
BRANCH  19  20
HETATM   20  C   UNK N   1      30.625  21.767  -5.906  0.00  0.00     0.022 C 
HETATM   21  C   UNK N   1      29.352  21.403  -6.641  0.00  0.00     0.009 C 
ENDBRANCH  19  20
ENDBRANCH  17  18
ENDBRANCH  16  17
ENDBRANCH  14  15
ENDBRANCH  13  14
ENDBRANCH   1  12
TORSDOF 14
ENDMDL
MODEL 5
REMARK VINA RESULT:      -4.6      3.427      5.795
REMARK  14 active torsions:
REMARK  status: ('A' for Active; 'I' for Inactive)
REMARK    1  A    between atoms: O_1  and  C_11 
REMARK    2  A    between atoms: C_3  and  C_4 
REMARK    3  A    between atoms: C_3  and  C_5 
REMARK    4  A    between atoms: C_4  and  C_6 
REMARK    5  A    between atoms: C_5  and  C_7 
REMARK    6  A    between atoms: C_6  and  C_8 
REMARK    7  A    between atoms: C_7  and  C_9 
REMARK    8  A    between atoms: C_8  and  C_10 
REMARK    9  A    between atoms: C_9  and  C_11 
REMARK   10  A    between atoms: C_12  and  C_13 
REMARK   11  A    between atoms: C_13  and  C_14 
REMARK   12  A    between atoms: C_15  and  C_16 
REMARK   13  A    between atoms: C_16  and  C_17 
REMARK   14  A    between atoms: C_18  and  C_19 
ROOT
HETATM    1  C   UNK N   1      26.983  26.581  -4.243  0.00  0.00     0.027 C 
ENDROOT
BRANCH   1   2
HETATM    2  C   UNK N   1      25.712  27.264  -4.704  0.00  0.00     0.004 C 
BRANCH   2   3
HETATM    3  C   UNK N   1      25.163  26.509  -5.895  0.00  0.00     0.000 C 
BRANCH   3   4
HETATM    4  C   UNK N   1      26.218  26.368  -6.972  0.00  0.00     0.000 C 
BRANCH   4   5
HETATM    5  C   UNK N   1      26.088  24.989  -7.592  0.00  0.00     0.001 C 
BRANCH   5   6
HETATM    6  C   UNK N   1      25.625  23.993  -6.549  0.00  0.00     0.010 C 
BRANCH   6   7
HETATM    7  C   UNK N   1      26.038  22.585  -6.938  0.00  0.00     0.110 C 
BRANCH   7   8
HETATM    8  C   UNK N   1      24.892  21.886  -7.592  0.00  0.00     0.139 C 
HETATM    9  O   UNK N   1      24.861  21.770  -8.807  0.00  0.00    -0.650 OA
BRANCH   8  10
HETATM   10  O   UNK N   1      23.900  21.373  -6.843  0.00  0.00    -0.776 OA
HETATM   11  H   UNK N   1      24.064  21.067  -5.972  0.00  0.00     0.167 HD
ENDBRANCH   8  10
ENDBRANCH   7   8
ENDBRANCH   6   7
ENDBRANCH   5   6
ENDBRANCH   4   5
ENDBRANCH   3   4
ENDBRANCH   2   3
ENDBRANCH   1   2
BRANCH   1  12
HETATM   12  C   UNK N   1      26.655  25.405  -3.382  0.00  0.00    -0.030 C 
HETATM   13  C   UNK N   1      27.392  24.288  -3.385  0.00  0.00    -0.027 C 
BRANCH  13  14
HETATM   14  C   UNK N   1      28.598  24.122  -4.258  0.00  0.00     0.053 C 
BRANCH  14  15
HETATM   15  C   UNK N   1      29.846  24.284  -3.447  0.00  0.00    -0.027 C 
HETATM   16  C   UNK N   1      30.538  23.242  -2.974  0.00  0.00    -0.027 C 
BRANCH  16  17
HETATM   17  C   UNK N   1      30.124  21.831  -3.232  0.00  0.00     0.053 C 
BRANCH  17  18
HETATM   18  C   UNK N   1      31.197  21.119  -3.992  0.00  0.00    -0.027 C 
HETATM   19  C   UNK N   1      31.040  20.763  -5.271  0.00  0.00    -0.031 C 
BRANCH  19  20
HETATM   20  C   UNK N   1      29.788  21.060  -6.032  0.00  0.00     0.022 C 
HETATM   21  C   UNK N   1      30.047  22.174  -7.025  0.00  0.00     0.009 C 
ENDBRANCH  19  20
ENDBRANCH  17  18
ENDBRANCH  16  17
ENDBRANCH  14  15
ENDBRANCH  13  14
ENDBRANCH   1  12
TORSDOF 14
ENDMDL
MODEL 6
REMARK VINA RESULT:      -4.6     11.244     14.516
REMARK  14 active torsions:
REMARK  status: ('A' for Active; 'I' for Inactive)
REMARK    1  A    between atoms: O_1  and  C_11 
REMARK    2  A    between atoms: C_3  and  C_4 
REMARK    3  A    between atoms: C_3  and  C_5 
REMARK    4  A    between atoms: C_4  and  C_6 
REMARK    5  A    between atoms: C_5  and  C_7 
REMARK    6  A    between atoms: C_6  and  C_8 
REMARK    7  A    between atoms: C_7  and  C_9 
REMARK    8  A    between atoms: C_8  and  C_10 
REMARK    9  A    between atoms: C_9  and  C_11 
REMARK   10  A    between atoms: C_12  and  C_13 
REMARK   11  A    between atoms: C_13  and  C_14 
REMARK   12  A    between atoms: C_15  and  C_16 
REMARK   13  A    between atoms: C_16  and  C_17 
REMARK   14  A    between atoms: C_18  and  C_19 
ROOT
HETATM    1  C   UNK N   1      30.141  17.319   8.007  0.00  0.00     0.027 C 
ENDROOT
BRANCH   1   2
HETATM    2  C   UNK N   1      28.973  18.236   7.708  0.00  0.00     0.004 C 
BRANCH   2   3
HETATM    3  C   UNK N   1      28.170  17.641   6.572  0.00  0.00     0.000 C 
BRANCH   3   4
HETATM    4  C   UNK N   1      28.623  18.206   5.242  0.00  0.00     0.000 C 
BRANCH   4   5
HETATM    5  C   UNK N   1      27.393  18.498   4.402  0.00  0.00     0.001 C 
BRANCH   5   6
HETATM    6  C   UNK N   1      27.279  19.987   4.149  0.00  0.00     0.010 C 
BRANCH   6   7
HETATM    7  C   UNK N   1      26.163  20.585   4.985  0.00  0.00     0.110 C 
BRANCH   7   8
HETATM    8  C   UNK N   1      26.710  21.055   6.293  0.00  0.00     0.139 C 
HETATM    9  O   UNK N   1      27.610  21.879   6.317  0.00  0.00    -0.650 OA
BRANCH   8  10
HETATM   10  O   UNK N   1      26.203  20.581   7.445  0.00  0.00    -0.776 OA
HETATM   11  H   UNK N   1      25.521  21.041   7.895  0.00  0.00     0.167 HD
ENDBRANCH   8  10
ENDBRANCH   7   8
ENDBRANCH   6   7
ENDBRANCH   5   6
ENDBRANCH   4   5
ENDBRANCH   3   4
ENDBRANCH   2   3
ENDBRANCH   1   2
BRANCH   1  12
HETATM   12  C   UNK N   1      31.289  18.105   8.552  0.00  0.00    -0.030 C 
HETATM   13  C   UNK N   1      32.558  17.844   8.216  0.00  0.00    -0.027 C 
BRANCH  13  14
HETATM   14  C   UNK N   1      32.931  16.740   7.274  0.00  0.00     0.053 C 
BRANCH  14  15
HETATM   15  C   UNK N   1      33.799  17.270   6.176  0.00  0.00    -0.027 C 
HETATM   16  C   UNK N   1      33.316  17.609   4.976  0.00  0.00    -0.027 C 
BRANCH  16  17
HETATM   17  C   UNK N   1      31.864  17.497   4.643  0.00  0.00     0.053 C 
BRANCH  17  18
HETATM   18  C   UNK N   1      31.668  16.471   3.575  0.00  0.00    -0.027 C 
HETATM   19  C   UNK N   1      31.060  15.304   3.817  0.00  0.00    -0.031 C 
BRANCH  19  20
HETATM   20  C   UNK N   1      30.527  14.951   5.169  0.00  0.00     0.022 C 
HETATM   21  C   UNK N   1      29.120  14.408   5.036  0.00  0.00     0.009 C 
ENDBRANCH  19  20
ENDBRANCH  17  18
ENDBRANCH  16  17
ENDBRANCH  14  15
ENDBRANCH  13  14
ENDBRANCH   1  12
TORSDOF 14
ENDMDL
MODEL 7
REMARK VINA RESULT:      -4.6     10.815     13.276
REMARK  14 active torsions:
REMARK  status: ('A' for Active; 'I' for Inactive)
REMARK    1  A    between atoms: O_1  and  C_11 
REMARK    2  A    between atoms: C_3  and  C_4 
REMARK    3  A    between atoms: C_3  and  C_5 
REMARK    4  A    between atoms: C_4  and  C_6 
REMARK    5  A    between atoms: C_5  and  C_7 
REMARK    6  A    between atoms: C_6  and  C_8 
REMARK    7  A    between atoms: C_7  and  C_9 
REMARK    8  A    between atoms: C_8  and  C_10 
REMARK    9  A    between atoms: C_9  and  C_11 
REMARK   10  A    between atoms: C_12  and  C_13 
REMARK   11  A    between atoms: C_13  and  C_14 
REMARK   12  A    between atoms: C_15  and  C_16 
REMARK   13  A    between atoms: C_16  and  C_17 
REMARK   14  A    between atoms: C_18  and  C_19 
ROOT
HETATM    1  C   UNK N   1      24.010  18.240   4.772  0.00  0.00     0.027 C 
ENDROOT
BRANCH   1   2
HETATM    2  C   UNK N   1      22.898  17.221   4.913  0.00  0.00     0.004 C 
BRANCH   2   3
HETATM    3  C   UNK N   1      22.697  16.538   3.578  0.00  0.00     0.000 C 
BRANCH   3   4
HETATM    4  C   UNK N   1      21.262  16.082   3.420  0.00  0.00     0.000 C 
BRANCH   4   5
HETATM    5  C   UNK N   1      20.361  17.300   3.504  0.00  0.00     0.001 C 
BRANCH   5   6
HETATM    6  C   UNK N   1      20.415  18.077   2.205  0.00  0.00     0.010 C 
BRANCH   6   7
HETATM    7  C   UNK N   1      20.131  19.547   2.452  0.00  0.00     0.110 C 
BRANCH   7   8
HETATM    8  C   UNK N   1      20.797  20.372   1.402  0.00  0.00     0.139 C 
HETATM    9  O   UNK N   1      21.451  21.353   1.719  0.00  0.00    -0.650 OA
BRANCH   8  10
HETATM   10  O   UNK N   1      20.688  20.030   0.105  0.00  0.00    -0.776 OA
HETATM   11  H   UNK N   1      20.531  19.140  -0.145  0.00  0.00     0.167 HD
ENDBRANCH   8  10
ENDBRANCH   7   8
ENDBRANCH   6   7
ENDBRANCH   5   6
ENDBRANCH   4   5
ENDBRANCH   3   4
ENDBRANCH   2   3
ENDBRANCH   1   2
BRANCH   1  12
HETATM   12  C   UNK N   1      23.579  19.354   3.875  0.00  0.00    -0.030 C 
HETATM   13  C   UNK N   1      24.454  20.096   3.185  0.00  0.00    -0.027 C 
BRANCH  13  14
HETATM   14  C   UNK N   1      25.934  19.876   3.264  0.00  0.00     0.053 C 
BRANCH  14  15
HETATM   15  C   UNK N   1      26.513  20.667   4.396  0.00  0.00    -0.027 C 
HETATM   16  C   UNK N   1      27.585  20.261   5.083  0.00  0.00    -0.027 C 
BRANCH  16  17
HETATM   17  C   UNK N   1      28.299  18.989   4.762  0.00  0.00     0.053 C 
BRANCH  17  18
HETATM   18  C   UNK N   1      27.684  17.857   5.521  0.00  0.00    -0.027 C 
HETATM   19  C   UNK N   1      27.376  16.696   4.934  0.00  0.00    -0.031 C 
BRANCH  19  20
HETATM   20  C   UNK N   1      27.635  16.445   3.483  0.00  0.00     0.022 C 
HETATM   21  C   UNK N   1      26.326  16.182   2.769  0.00  0.00     0.009 C 
ENDBRANCH  19  20
ENDBRANCH  17  18
ENDBRANCH  16  17
ENDBRANCH  14  15
ENDBRANCH  13  14
ENDBRANCH   1  12
TORSDOF 14
ENDMDL
MODEL 8
REMARK VINA RESULT:      -4.5      3.460      6.264
REMARK  14 active torsions:
REMARK  status: ('A' for Active; 'I' for Inactive)
REMARK    1  A    between atoms: O_1  and  C_11 
REMARK    2  A    between atoms: C_3  and  C_4 
REMARK    3  A    between atoms: C_3  and  C_5 
REMARK    4  A    between atoms: C_4  and  C_6 
REMARK    5  A    between atoms: C_5  and  C_7 
REMARK    6  A    between atoms: C_6  and  C_8 
REMARK    7  A    between atoms: C_7  and  C_9 
REMARK    8  A    between atoms: C_8  and  C_10 
REMARK    9  A    between atoms: C_9  and  C_11 
REMARK   10  A    between atoms: C_12  and  C_13 
REMARK   11  A    between atoms: C_13  and  C_14 
REMARK   12  A    between atoms: C_15  and  C_16 
REMARK   13  A    between atoms: C_16  and  C_17 
REMARK   14  A    between atoms: C_18  and  C_19 
ROOT
HETATM    1  C   UNK N   1      29.185  24.869  -4.920  0.00  0.00     0.027 C 
ENDROOT
BRANCH   1   2
HETATM    2  C   UNK N   1      27.955  24.810  -5.802  0.00  0.00     0.004 C 
BRANCH   2   3
HETATM    3  C   UNK N   1      26.917  23.940  -5.126  0.00  0.00     0.000 C 
BRANCH   3   4
HETATM    4  C   UNK N   1      25.550  24.586  -5.195  0.00  0.00     0.000 C 
BRANCH   4   5
HETATM    5  C   UNK N   1      25.617  25.748  -6.168  0.00  0.00     0.001 C 
BRANCH   5   6
HETATM    6  C   UNK N   1      24.967  26.973  -5.559  0.00  0.00     0.010 C 
BRANCH   6   7
HETATM    7  C   UNK N   1      26.017  28.006  -5.194  0.00  0.00     0.110 C 
BRANCH   7   8
HETATM    8  C   UNK N   1      25.974  28.272  -3.726  0.00  0.00     0.139 C 
HETATM    9  O   UNK N   1      25.970  29.421  -3.312  0.00  0.00    -0.650 OA
BRANCH   8  10
HETATM   10  O   UNK N   1      25.926  27.247  -2.856  0.00  0.00    -0.776 OA
HETATM   11  H   UNK N   1      25.621  27.375  -1.979  0.00  0.00     0.167 HD
ENDBRANCH   8  10
ENDBRANCH   7   8
ENDBRANCH   6   7
ENDBRANCH   5   6
ENDBRANCH   4   5
ENDBRANCH   3   4
ENDBRANCH   2   3
ENDBRANCH   1   2
BRANCH   1  12
HETATM   12  C   UNK N   1      28.835  24.485  -3.519  0.00  0.00    -0.030 C 
HETATM   13  C   UNK N   1      29.604  23.671  -2.787  0.00  0.00    -0.027 C 
BRANCH  13  14
HETATM   14  C   UNK N   1      30.872  23.072  -3.314  0.00  0.00     0.053 C 
BRANCH  14  15
HETATM   15  C   UNK N   1      30.764  21.579  -3.343  0.00  0.00    -0.027 C 
HETATM   16  C   UNK N   1      30.718  20.882  -4.483  0.00  0.00    -0.027 C 
BRANCH  16  17
HETATM   17  C   UNK N   1      30.787  21.542  -5.821  0.00  0.00     0.053 C 
BRANCH  17  18
HETATM   18  C   UNK N   1      29.426  21.581  -6.438  0.00  0.00    -0.027 C 
HETATM   19  C   UNK N   1      29.059  20.726  -7.398  0.00  0.00    -0.031 C 
BRANCH  19  20
HETATM   20  C   UNK N   1      29.980  19.667  -7.914  0.00  0.00     0.022 C 
HETATM   21  C   UNK N   1      29.309  18.314  -7.813  0.00  0.00     0.009 C 
ENDBRANCH  19  20
ENDBRANCH  17  18
ENDBRANCH  16  17
ENDBRANCH  14  15
ENDBRANCH  13  14
ENDBRANCH   1  12
TORSDOF 14
ENDMDL
MODEL 9
REMARK VINA RESULT:      -4.4      1.412      4.187
REMARK  14 active torsions:
REMARK  status: ('A' for Active; 'I' for Inactive)
REMARK    1  A    between atoms: O_1  and  C_11 
REMARK    2  A    between atoms: C_3  and  C_4 
REMARK    3  A    between atoms: C_3  and  C_5 
REMARK    4  A    between atoms: C_4  and  C_6 
REMARK    5  A    between atoms: C_5  and  C_7 
REMARK    6  A    between atoms: C_6  and  C_8 
REMARK    7  A    between atoms: C_7  and  C_9 
REMARK    8  A    between atoms: C_8  and  C_10 
REMARK    9  A    between atoms: C_9  and  C_11 
REMARK   10  A    between atoms: C_12  and  C_13 
REMARK   11  A    between atoms: C_13  and  C_14 
REMARK   12  A    between atoms: C_15  and  C_16 
REMARK   13  A    between atoms: C_16  and  C_17 
REMARK   14  A    between atoms: C_18  and  C_19 
ROOT
HETATM    1  C   UNK N   1      26.878  24.223  -8.153  0.00  0.00     0.027 C 
ENDROOT
BRANCH   1   2
HETATM    2  C   UNK N   1      26.843  23.346  -6.919  0.00  0.00     0.004 C 
BRANCH   2   3
HETATM    3  C   UNK N   1      27.580  22.059  -7.219  0.00  0.00     0.000 C 
BRANCH   3   4
HETATM    4  C   UNK N   1      29.053  22.199  -6.899  0.00  0.00     0.000 C 
BRANCH   4   5
HETATM    5  C   UNK N   1      29.197  23.104  -5.690  0.00  0.00     0.001 C 
BRANCH   5   6
HETATM    6  C   UNK N   1      30.238  22.545  -4.744  0.00  0.00     0.010 C 
BRANCH   6   7
HETATM    7  C   UNK N   1      30.537  23.537  -3.635  0.00  0.00     0.110 C 
BRANCH   7   8
HETATM    8  C   UNK N   1      30.866  22.804  -2.378  0.00  0.00     0.139 C 
HETATM    9  O   UNK N   1      31.797  22.013  -2.357  0.00  0.00    -0.650 OA
BRANCH   8  10
HETATM   10  O   UNK N   1      30.148  23.022  -1.262  0.00  0.00    -0.776 OA
HETATM   11  H   UNK N   1      29.217  23.129  -1.303  0.00  0.00     0.167 HD
ENDBRANCH   8  10
ENDBRANCH   7   8
ENDBRANCH   6   7
ENDBRANCH   5   6
ENDBRANCH   4   5
ENDBRANCH   3   4
ENDBRANCH   2   3
ENDBRANCH   1   2
BRANCH   1  12
HETATM   12  C   UNK N   1      25.903  25.347  -8.017  0.00  0.00    -0.030 C 
HETATM   13  C   UNK N   1      26.261  26.554  -7.563  0.00  0.00    -0.027 C 
BRANCH  13  14
HETATM   14  C   UNK N   1      27.665  26.874  -7.148  0.00  0.00     0.053 C 
BRANCH  14  15
HETATM   15  C   UNK N   1      27.931  28.337  -7.317  0.00  0.00    -0.027 C 
HETATM   16  C   UNK N   1      27.946  29.190  -6.287  0.00  0.00    -0.027 C 
BRANCH  16  17
HETATM   17  C   UNK N   1      27.713  28.742  -4.881  0.00  0.00     0.053 C 
BRANCH  17  18
HETATM   18  C   UNK N   1      26.249  28.765  -4.580  0.00  0.00    -0.027 C 
HETATM   19  C   UNK N   1      25.668  27.829  -3.822  0.00  0.00    -0.031 C 
BRANCH  19  20
HETATM   20  C   UNK N   1      26.443  26.702  -3.216  0.00  0.00     0.022 C 
HETATM   21  C   UNK N   1      26.255  25.450  -4.047  0.00  0.00     0.009 C 
ENDBRANCH  19  20
ENDBRANCH  17  18
ENDBRANCH  16  17
ENDBRANCH  14  15
ENDBRANCH  13  14
ENDBRANCH   1  12
TORSDOF 14
ENDMDL
