MODEL 1
REMARK VINA RESULT:      -4.1      0.000      0.000
REMARK  5 active torsions:
REMARK  status: ('A' for Active; 'I' for Inactive)
REMARK    1  A    between atoms: O_3  and  C_2 
REMARK    2  A    between atoms: C_4  and  C_2 
REMARK    3  A    between atoms: C_4  and  N_5 
REMARK    4  A    between atoms: C_6  and  C_4 
REMARK    5  A    between atoms: C_6  and  O_7 
ROOT
HETATM    1  C   UNK N   1      20.227  19.350   2.032  0.00  0.00     0.202 C 
ENDROOT
BRANCH   1   2
HETATM    2  C   UNK N   1      20.867  20.471   1.247  0.00  0.00     0.165 C 
HETATM    3  O   UNK N   1      21.561  21.295   1.804  0.00  0.00    -0.648 OA
BRANCH   2   4
HETATM    4  O   UNK N   1      20.634  20.587  -0.081  0.00  0.00    -0.775 OA
HETATM    5  H   UNK N   1      20.042  20.021  -0.535  0.00  0.00     0.167 HD
ENDBRANCH   2   4
ENDBRANCH   1   2
BRANCH   1   6
HETATM    6  N   UNK N   1      20.122  18.158   1.204  0.00  0.00    -0.416 N 
HETATM    7  H   UNK N   1      20.040  18.232   0.191  0.00  0.00     0.150 HD
HETATM    8  H   UNK N   1      20.131  17.237   1.643  0.00  0.00     0.150 HD
ENDBRANCH   1   6
BRANCH   1   9
HETATM    9  C   UNK N   1      20.992  19.028   3.322  0.00  0.00     0.146 C 
HETATM   10  C   UNK N   1      20.554  17.684   3.879  0.00  0.00     0.042 C 
BRANCH   9  11
HETATM   11  O   UNK N   1      20.735  20.004   4.288  0.00  0.00    -0.393 OA
HETATM   12  H   UNK N   1      19.828  20.245   4.534  0.00  0.00     0.210 HD
ENDBRANCH   9  11
ENDBRANCH   1   9
TORSDOF 5
ENDMDL
MODEL 2
REMARK VINA RESULT:      -4.0     14.258     14.789
REMARK  5 active torsions:
REMARK  status: ('A' for Active; 'I' for Inactive)
REMARK    1  A    between atoms: O_3  and  C_2 
REMARK    2  A    between atoms: C_4  and  C_2 
REMARK    3  A    between atoms: C_4  and  N_5 
REMARK    4  A    between atoms: C_6  and  C_4 
REMARK    5  A    between atoms: C_6  and  O_7 
ROOT
HETATM    1  C   UNK N   1      34.288  16.973   8.898  0.00  0.00     0.202 C 
ENDROOT
BRANCH   1   2
HETATM    2  C   UNK N   1      34.592  18.157   8.008  0.00  0.00     0.165 C 
HETATM    3  O   UNK N   1      35.009  19.192   8.484  0.00  0.00    -0.648 OA
BRANCH   2   4
HETATM    4  O   UNK N   1      34.358  18.082   6.678  0.00  0.00    -0.775 OA
HETATM    5  H   UNK N   1      33.724  17.496   6.314  0.00  0.00     0.167 HD
ENDBRANCH   2   4
ENDBRANCH   1   2
BRANCH   1   6
HETATM    6  N   UNK N   1      34.858  17.184  10.220  0.00  0.00    -0.416 N 
HETATM    7  H   UNK N   1      34.673  16.528  10.978  0.00  0.00     0.150 HD
HETATM    8  H   UNK N   1      35.449  17.997  10.390  0.00  0.00     0.150 HD
ENDBRANCH   1   6
BRANCH   1   9
HETATM    9  C   UNK N   1      32.783  16.697   9.011  0.00  0.00     0.146 C 
HETATM   10  C   UNK N   1      32.363  15.626   8.019  0.00  0.00     0.042 C 
BRANCH   9  11
HETATM   11  O   UNK N   1      32.061  17.859   8.730  0.00  0.00    -0.393 OA
HETATM   12  H   UNK N   1      32.308  18.714   9.115  0.00  0.00     0.210 HD
ENDBRANCH   9  11
ENDBRANCH   1   9
TORSDOF 5
ENDMDL
MODEL 3
REMARK VINA RESULT:      -4.0     14.994     15.493
REMARK  5 active torsions:
REMARK  status: ('A' for Active; 'I' for Inactive)
REMARK    1  A    between atoms: O_3  and  C_2 
REMARK    2  A    between atoms: C_4  and  C_2 
REMARK    3  A    between atoms: C_4  and  N_5 
REMARK    4  A    between atoms: C_6  and  C_4 
REMARK    5  A    between atoms: C_6  and  O_7 
ROOT
HETATM    1  C   UNK N   1      33.909  17.212   8.939  0.00  0.00     0.202 C 
ENDROOT
BRANCH   1   2
HETATM    2  C   UNK N   1      34.505  18.227   7.992  0.00  0.00     0.165 C 
HETATM    3  O   UNK N   1      35.085  19.203   8.420  0.00  0.00    -0.648 OA
BRANCH   2   4
HETATM    4  O   UNK N   1      34.356  18.076   6.655  0.00  0.00    -0.775 OA
HETATM    5  H   UNK N   1      34.646  17.307   6.204  0.00  0.00     0.167 HD
ENDBRANCH   2   4
ENDBRANCH   1   2
BRANCH   1   6
HETATM    6  N   UNK N   1      33.044  16.297   8.210  0.00  0.00    -0.416 N 
HETATM    7  H   UNK N   1      32.093  16.113   8.528  0.00  0.00     0.150 HD
HETATM    8  H   UNK N   1      33.393  15.834   7.370  0.00  0.00     0.150 HD
ENDBRANCH   1   6
BRANCH   1   9
HETATM    9  C   UNK N   1      34.981  16.425   9.704  0.00  0.00     0.146 C 
HETATM   10  C   UNK N   1      34.339  15.352  10.566  0.00  0.00     0.042 C 
BRANCH   9  11
HETATM   11  O   UNK N   1      35.700  17.283  10.539  0.00  0.00    -0.393 OA
HETATM   12  H   UNK N   1      36.336  16.942  11.187  0.00  0.00     0.210 HD
ENDBRANCH   9  11
ENDBRANCH   1   9
TORSDOF 5
ENDMDL
MODEL 4
REMARK VINA RESULT:      -3.8     17.242     18.009
REMARK  5 active torsions:
REMARK  status: ('A' for Active; 'I' for Inactive)
REMARK    1  A    between atoms: O_3  and  C_2 
REMARK    2  A    between atoms: C_4  and  C_2 
REMARK    3  A    between atoms: C_4  and  N_5 
REMARK    4  A    between atoms: C_6  and  C_4 
REMARK    5  A    between atoms: C_6  and  O_7 
ROOT
HETATM    1  C   UNK N   1      34.862  14.871  11.061  0.00  0.00     0.202 C 
ENDROOT
BRANCH   1   2
HETATM    2  C   UNK N   1      35.170  14.195  12.378  0.00  0.00     0.165 C 
HETATM    3  O   UNK N   1      36.067  14.604  13.084  0.00  0.00    -0.648 OA
BRANCH   2   4
HETATM    4  O   UNK N   1      34.471  13.100  12.757  0.00  0.00    -0.775 OA
HETATM    5  H   UNK N   1      33.565  13.143  12.993  0.00  0.00     0.167 HD
ENDBRANCH   2   4
ENDBRANCH   1   2
BRANCH   1   6
HETATM    6  N   UNK N   1      33.423  14.949  10.865  0.00  0.00    -0.416 N 
HETATM    7  H   UNK N   1      32.904  15.785  11.132  0.00  0.00     0.150 HD
HETATM    8  H   UNK N   1      32.926  14.158  10.455  0.00  0.00     0.150 HD
ENDBRANCH   1   6
BRANCH   1   9
HETATM    9  C   UNK N   1      35.484  16.269  10.962  0.00  0.00     0.146 C 
HETATM   10  C   UNK N   1      34.940  17.008   9.751  0.00  0.00     0.042 C 
BRANCH   9  11
HETATM   11  O   UNK N   1      36.870  16.169  10.824  0.00  0.00    -0.393 OA
HETATM   12  H   UNK N   1      37.468  16.380  11.558  0.00  0.00     0.210 HD
ENDBRANCH   9  11
ENDBRANCH   1   9
TORSDOF 5
ENDMDL
MODEL 5
REMARK VINA RESULT:      -3.7     14.483     15.124
REMARK  5 active torsions:
REMARK  status: ('A' for Active; 'I' for Inactive)
REMARK    1  A    between atoms: O_3  and  C_2 
REMARK    2  A    between atoms: C_4  and  C_2 
REMARK    3  A    between atoms: C_4  and  N_5 
REMARK    4  A    between atoms: C_6  and  C_4 
REMARK    5  A    between atoms: C_6  and  O_7 
ROOT
HETATM    1  C   UNK N   1      33.568  17.206   8.317  0.00  0.00     0.202 C 
ENDROOT
BRANCH   1   2
HETATM    2  C   UNK N   1      34.764  17.906   8.919  0.00  0.00     0.165 C 
HETATM    3  O   UNK N   1      35.329  17.438   9.886  0.00  0.00    -0.648 OA
BRANCH   2   4
HETATM    4  O   UNK N   1      35.187  19.086   8.410  0.00  0.00    -0.775 OA
HETATM    5  H   UNK N   1      35.572  19.153   7.558  0.00  0.00     0.167 HD
ENDBRANCH   2   4
ENDBRANCH   1   2
BRANCH   1   6
HETATM    6  N   UNK N   1      32.400  18.071   8.380  0.00  0.00    -0.416 N 
HETATM    7  H   UNK N   1      31.592  17.817   8.947  0.00  0.00     0.150 HD
HETATM    8  H   UNK N   1      32.389  18.943   7.850  0.00  0.00     0.150 HD
ENDBRANCH   1   6
BRANCH   1   9
HETATM    9  C   UNK N   1      33.817  16.763   6.870  0.00  0.00     0.146 C 
HETATM   10  C   UNK N   1      34.878  15.676   6.822  0.00  0.00     0.042 C 
BRANCH   9  11
HETATM   11  O   UNK N   1      34.267  17.844   6.108  0.00  0.00    -0.393 OA
HETATM   12  H   UNK N   1      35.173  17.878   5.764  0.00  0.00     0.210 HD
ENDBRANCH   9  11
ENDBRANCH   1   9
TORSDOF 5
ENDMDL
MODEL 6
REMARK VINA RESULT:      -3.6     16.490     17.315
REMARK  5 active torsions:
REMARK  status: ('A' for Active; 'I' for Inactive)
REMARK    1  A    between atoms: O_3  and  C_2 
REMARK    2  A    between atoms: C_4  and  C_2 
REMARK    3  A    between atoms: C_4  and  N_5 
REMARK    4  A    between atoms: C_6  and  C_4 
REMARK    5  A    between atoms: C_6  and  O_7 
ROOT
HETATM    1  C   UNK N   1      34.850  15.510  10.224  0.00  0.00     0.202 C 
ENDROOT
BRANCH   1   2
HETATM    2  C   UNK N   1      36.031  15.577  11.165  0.00  0.00     0.165 C 
HETATM    3  O   UNK N   1      35.867  15.512  12.365  0.00  0.00    -0.648 OA
BRANCH   2   4
HETATM    4  O   UNK N   1      37.280  15.754  10.673  0.00  0.00    -0.775 OA
HETATM    5  H   UNK N   1      38.043  15.465  11.133  0.00  0.00     0.167 HD
ENDBRANCH   2   4
ENDBRANCH   1   2
BRANCH   1   6
HETATM    6  N   UNK N   1      33.684  14.994  10.925  0.00  0.00    -0.416 N 
HETATM    7  H   UNK N   1      33.164  14.199  10.558  0.00  0.00     0.150 HD
HETATM    8  H   UNK N   1      33.383  15.435  11.795  0.00  0.00     0.150 HD
ENDBRANCH   1   6
BRANCH   1   9
HETATM    9  C   UNK N   1      34.527  16.870   9.593  0.00  0.00     0.146 C 
HETATM   10  C   UNK N   1      34.568  16.776   8.078  0.00  0.00     0.042 C 
BRANCH   9  11
HETATM   11  O   UNK N   1      35.466  17.821   9.997  0.00  0.00    -0.393 OA
HETATM   12  H   UNK N   1      36.392  17.770   9.712  0.00  0.00     0.210 HD
ENDBRANCH   9  11
ENDBRANCH   1   9
TORSDOF 5
ENDMDL
MODEL 7
REMARK VINA RESULT:      -3.6     11.326     12.163
REMARK  5 active torsions:
REMARK  status: ('A' for Active; 'I' for Inactive)
REMARK    1  A    between atoms: O_3  and  C_2 
REMARK    2  A    between atoms: C_4  and  C_2 
REMARK    3  A    between atoms: C_4  and  N_5 
REMARK    4  A    between atoms: C_6  and  C_4 
REMARK    5  A    between atoms: C_6  and  O_7 
ROOT
HETATM    1  C   UNK N   1      30.795  21.407  -3.316  0.00  0.00     0.202 C 
ENDROOT
BRANCH   1   2
HETATM    2  C   UNK N   1      30.135  22.606  -2.676  0.00  0.00     0.165 C 
HETATM    3  O   UNK N   1      29.288  23.235  -3.276  0.00  0.00    -0.648 OA
BRANCH   2   4
HETATM    4  O   UNK N   1      30.518  23.013  -1.444  0.00  0.00    -0.775 OA
HETATM    5  H   UNK N   1      29.934  23.000  -0.710  0.00  0.00     0.167 HD
ENDBRANCH   2   4
ENDBRANCH   1   2
BRANCH   1   6
HETATM    6  N   UNK N   1      30.369  21.283  -4.701  0.00  0.00    -0.416 N 
HETATM    7  H   UNK N   1      31.001  20.913  -5.411  0.00  0.00     0.150 HD
HETATM    8  H   UNK N   1      29.426  21.570  -4.966  0.00  0.00     0.150 HD
ENDBRANCH   1   6
BRANCH   1   9
HETATM    9  C   UNK N   1      32.326  21.471  -3.240  0.00  0.00     0.146 C 
HETATM   10  C   UNK N   1      32.948  20.469  -4.198  0.00  0.00     0.042 C 
BRANCH   9  11
HETATM   11  O   UNK N   1      32.755  21.162  -1.947  0.00  0.00    -0.393 OA
HETATM   12  H   UNK N   1      32.290  21.500  -1.166  0.00  0.00     0.210 HD
ENDBRANCH   9  11
ENDBRANCH   1   9
TORSDOF 5
ENDMDL
MODEL 8
REMARK VINA RESULT:      -3.6     16.102     16.875
REMARK  5 active torsions:
REMARK  status: ('A' for Active; 'I' for Inactive)
REMARK    1  A    between atoms: O_3  and  C_2 
REMARK    2  A    between atoms: C_4  and  C_2 
REMARK    3  A    between atoms: C_4  and  N_5 
REMARK    4  A    between atoms: C_6  and  C_4 
REMARK    5  A    between atoms: C_6  and  O_7 
ROOT
HETATM    1  C   UNK N   1      35.092  15.335   9.388  0.00  0.00     0.202 C 
ENDROOT
BRANCH   1   2
HETATM    2  C   UNK N   1      35.730  16.348  10.310  0.00  0.00     0.165 C 
HETATM    3  O   UNK N   1      35.306  17.484  10.362  0.00  0.00    -0.648 OA
BRANCH   2   4
HETATM    4  O   UNK N   1      36.808  16.006  11.052  0.00  0.00    -0.775 OA
HETATM    5  H   UNK N   1      37.193  16.592  11.673  0.00  0.00     0.167 HD
ENDBRANCH   2   4
ENDBRANCH   1   2
BRANCH   1   6
HETATM    6  N   UNK N   1      36.062  14.313   9.024  0.00  0.00    -0.416 N 
HETATM    7  H   UNK N   1      35.788  13.334   8.956  0.00  0.00     0.150 HD
HETATM    8  H   UNK N   1      37.029  14.580   8.834  0.00  0.00     0.150 HD
ENDBRANCH   1   6
BRANCH   1   9
HETATM    9  C   UNK N   1      33.848  14.683  10.004  0.00  0.00     0.146 C 
HETATM   10  C   UNK N   1      32.591  15.173   9.307  0.00  0.00     0.042 C 
BRANCH   9  11
HETATM   11  O   UNK N   1      33.754  15.016  11.357  0.00  0.00    -0.393 OA
HETATM   12  H   UNK N   1      34.085  15.864  11.693  0.00  0.00     0.210 HD
ENDBRANCH   9  11
ENDBRANCH   1   9
TORSDOF 5
ENDMDL
MODEL 9
REMARK VINA RESULT:      -3.6     17.242     18.231
REMARK  5 active torsions:
REMARK  status: ('A' for Active; 'I' for Inactive)
REMARK    1  A    between atoms: O_3  and  C_2 
REMARK    2  A    between atoms: C_4  and  C_2 
REMARK    3  A    between atoms: C_4  and  N_5 
REMARK    4  A    between atoms: C_6  and  C_4 
REMARK    5  A    between atoms: C_6  and  O_7 
ROOT
HETATM    1  C   UNK N   1      35.477  15.345  11.667  0.00  0.00     0.202 C 
ENDROOT
BRANCH   1   2
HETATM    2  C   UNK N   1      35.706  14.228  12.659  0.00  0.00     0.165 C 
HETATM    3  O   UNK N   1      34.767  13.615  13.122  0.00  0.00    -0.648 OA
BRANCH   2   4
HETATM    4  O   UNK N   1      36.961  13.934  13.070  0.00  0.00    -0.775 OA
HETATM    5  H   UNK N   1      37.196  13.906  13.977  0.00  0.00     0.167 HD
ENDBRANCH   2   4
ENDBRANCH   1   2
BRANCH   1   6
HETATM    6  N   UNK N   1      36.733  15.712  11.031  0.00  0.00    -0.416 N 
HETATM    7  H   UNK N   1      37.549  15.958  11.590  0.00  0.00     0.150 HD
HETATM    8  H   UNK N   1      36.797  15.723  10.013  0.00  0.00     0.150 HD
ENDBRANCH   1   6
BRANCH   1   9
HETATM    9  C   UNK N   1      34.435  14.978  10.603  0.00  0.00     0.146 C 
HETATM   10  C   UNK N   1      34.451  15.992   9.472  0.00  0.00     0.042 C 
BRANCH   9  11
HETATM   11  O   UNK N   1      33.157  14.972  11.165  0.00  0.00    -0.393 OA
HETATM   12  H   UNK N   1      32.493  14.316  10.904  0.00  0.00     0.210 HD
ENDBRANCH   9  11
ENDBRANCH   1   9
TORSDOF 5
ENDMDL
