MODEL 1
REMARK VINA RESULT:      -4.5      0.000      0.000
REMARK  8 active torsions:
REMARK  status: ('A' for Active; 'I' for Inactive)
REMARK    1  A    between atoms: O_1  and  C_7 
REMARK    2  A    between atoms: C_2  and  C_9 
REMARK    3  A    between atoms: C_3  and  C_2 
REMARK    4  A    between atoms: C_4  and  C_3 
REMARK    5  A    between atoms: C_5  and  C_4 
REMARK    6  A    between atoms: N_6  and  C_5 
REMARK    7  A    between atoms: C_9  and  C_7 
REMARK    8  A    between atoms: C_9  and  N_10 
ROOT
HETATM    1  C   UNK N   1      33.175  17.801   8.689  0.00  0.00     0.173 C 
ENDROOT
BRANCH   1   2
HETATM    2  C   UNK N   1      34.369  18.280   7.906  0.00  0.00     0.163 C 
HETATM    3  O   UNK N   1      34.515  17.955   6.736  0.00  0.00    -0.648 OA
BRANCH   2   4
HETATM    4  O   UNK N   1      35.239  19.143   8.466  0.00  0.00    -0.775 OA
HETATM    5  H   UNK N   1      35.102  20.066   8.389  0.00  0.00     0.167 HD
ENDBRANCH   2   4
ENDBRANCH   1   2
BRANCH   1   6
HETATM    6  C   UNK N   1      31.956  17.547   7.801  0.00  0.00     0.035 C 
BRANCH   6   7
HETATM    7  C   UNK N   1      30.672  17.641   8.610  0.00  0.00     0.004 C 
BRANCH   7   8
HETATM    8  C   UNK N   1      29.466  17.621   7.692  0.00  0.00     0.019 C 
BRANCH   8   9
HETATM    9  C   UNK N   1      28.564  18.794   8.021  0.00  0.00     0.111 C 
BRANCH   9  10
HETATM   10  N   UNK N   1      27.642  18.418   9.077  0.00  0.00    -0.430 N 
HETATM   11  H   UNK N   1      27.332  17.450   9.163  0.00  0.00     0.149 HD
HETATM   12  H   UNK N   1      27.305  19.122   9.734  0.00  0.00     0.149 HD
ENDBRANCH   9  10
ENDBRANCH   8   9
ENDBRANCH   7   8
ENDBRANCH   6   7
ENDBRANCH   1   6
BRANCH   1  13
HETATM   13  N   UNK N   1      33.520  16.599   9.434  0.00  0.00    -0.418 N 
HETATM   14  H   UNK N   1      34.403  16.458   9.926  0.00  0.00     0.150 HD
HETATM   15  H   UNK N   1      32.833  15.846   9.466  0.00  0.00     0.150 HD
ENDBRANCH   1  13
TORSDOF 8
ENDMDL
MODEL 2
REMARK VINA RESULT:      -4.3      1.356      1.624
REMARK  8 active torsions:
REMARK  status: ('A' for Active; 'I' for Inactive)
REMARK    1  A    between atoms: O_1  and  C_7 
REMARK    2  A    between atoms: C_2  and  C_9 
REMARK    3  A    between atoms: C_3  and  C_2 
REMARK    4  A    between atoms: C_4  and  C_3 
REMARK    5  A    between atoms: C_5  and  C_4 
REMARK    6  A    between atoms: N_6  and  C_5 
REMARK    7  A    between atoms: C_9  and  C_7 
REMARK    8  A    between atoms: C_9  and  N_10 
ROOT
HETATM    1  C   UNK N   1      33.852  17.375   9.051  0.00  0.00     0.173 C 
ENDROOT
BRANCH   1   2
HETATM    2  C   UNK N   1      34.588  18.265   8.085  0.00  0.00     0.163 C 
HETATM    3  O   UNK N   1      34.443  18.124   6.878  0.00  0.00    -0.648 OA
BRANCH   2   4
HETATM    4  O   UNK N   1      35.345  19.280   8.545  0.00  0.00    -0.775 OA
HETATM    5  H   UNK N   1      35.431  20.067   8.045  0.00  0.00     0.167 HD
ENDBRANCH   2   4
ENDBRANCH   1   2
BRANCH   1   6
HETATM    6  C   UNK N   1      33.331  16.098   8.391  0.00  0.00     0.035 C 
BRANCH   6   7
HETATM    7  C   UNK N   1      31.838  15.935   8.636  0.00  0.00     0.004 C 
BRANCH   7   8
HETATM    8  C   UNK N   1      31.051  16.872   7.742  0.00  0.00     0.019 C 
BRANCH   8   9
HETATM    9  C   UNK N   1      30.261  17.840   8.600  0.00  0.00     0.111 C 
BRANCH   9  10
HETATM   10  N   UNK N   1      29.962  17.224   9.880  0.00  0.00    -0.430 N 
HETATM   11  H   UNK N   1      30.033  17.771  10.739  0.00  0.00     0.149 HD
HETATM   12  H   UNK N   1      29.681  16.245   9.921  0.00  0.00     0.149 HD
ENDBRANCH   9  10
ENDBRANCH   8   9
ENDBRANCH   7   8
ENDBRANCH   6   7
ENDBRANCH   1   6
BRANCH   1  13
HETATM   13  N   UNK N   1      34.711  17.049  10.180  0.00  0.00    -0.418 N 
HETATM   14  H   UNK N   1      34.942  16.100  10.475  0.00  0.00     0.150 HD
HETATM   15  H   UNK N   1      35.111  17.822  10.712  0.00  0.00     0.150 HD
ENDBRANCH   1  13
TORSDOF 8
ENDMDL
MODEL 3
REMARK VINA RESULT:      -4.2     12.988     13.859
REMARK  8 active torsions:
REMARK  status: ('A' for Active; 'I' for Inactive)
REMARK    1  A    between atoms: O_1  and  C_7 
REMARK    2  A    between atoms: C_2  and  C_9 
REMARK    3  A    between atoms: C_3  and  C_2 
REMARK    4  A    between atoms: C_4  and  C_3 
REMARK    5  A    between atoms: C_5  and  C_4 
REMARK    6  A    between atoms: N_6  and  C_5 
REMARK    7  A    between atoms: C_9  and  C_7 
REMARK    8  A    between atoms: C_9  and  N_10 
ROOT
HETATM    1  C   UNK N   1      20.973  19.809   1.606  0.00  0.00     0.173 C 
ENDROOT
BRANCH   1   2
HETATM    2  C   UNK N   1      21.035  20.736   2.790  0.00  0.00     0.163 C 
HETATM    3  O   UNK N   1      20.341  20.531   3.776  0.00  0.00    -0.648 OA
BRANCH   2   4
HETATM    4  O   UNK N   1      21.921  21.751   2.807  0.00  0.00    -0.775 OA
HETATM    5  H   UNK N   1      22.027  22.295   2.052  0.00  0.00     0.167 HD
ENDBRANCH   2   4
ENDBRANCH   1   2
BRANCH   1   6
HETATM    6  C   UNK N   1      20.152  18.550   1.890  0.00  0.00     0.035 C 
BRANCH   6   7
HETATM    7  C   UNK N   1      20.099  17.653   0.662  0.00  0.00     0.004 C 
BRANCH   7   8
HETATM    8  C   UNK N   1      20.455  16.228   1.033  0.00  0.00     0.019 C 
BRANCH   8   9
HETATM    9  C   UNK N   1      19.338  15.301   0.596  0.00  0.00     0.111 C 
BRANCH   9  10
HETATM   10  N   UNK N   1      18.391  16.032  -0.226  0.00  0.00    -0.430 N 
HETATM   11  H   UNK N   1      17.778  16.728   0.200  0.00  0.00     0.149 HD
HETATM   12  H   UNK N   1      18.339  15.851  -1.228  0.00  0.00     0.149 HD
ENDBRANCH   9  10
ENDBRANCH   8   9
ENDBRANCH   7   8
ENDBRANCH   6   7
ENDBRANCH   1   6
BRANCH   1  13
HETATM   13  N   UNK N   1      20.439  20.514   0.450  0.00  0.00    -0.418 N 
HETATM   14  H   UNK N   1      19.994  20.060  -0.348  0.00  0.00     0.150 HD
HETATM   15  H   UNK N   1      20.514  21.531   0.437  0.00  0.00     0.150 HD
ENDBRANCH   1  13
TORSDOF 8
ENDMDL
MODEL 4
REMARK VINA RESULT:      -4.1      8.991     10.205
REMARK  8 active torsions:
REMARK  status: ('A' for Active; 'I' for Inactive)
REMARK    1  A    between atoms: O_1  and  C_7 
REMARK    2  A    between atoms: C_2  and  C_9 
REMARK    3  A    between atoms: C_3  and  C_2 
REMARK    4  A    between atoms: C_4  and  C_3 
REMARK    5  A    between atoms: C_5  and  C_4 
REMARK    6  A    between atoms: N_6  and  C_5 
REMARK    7  A    between atoms: C_9  and  C_7 
REMARK    8  A    between atoms: C_9  and  N_10 
ROOT
HETATM    1  C   UNK N   1      36.156  14.197  14.902  0.00  0.00     0.173 C 
ENDROOT
BRANCH   1   2
HETATM    2  C   UNK N   1      35.992  13.834  13.450  0.00  0.00     0.163 C 
HETATM    3  O   UNK N   1      34.878  13.656  12.976  0.00  0.00    -0.648 OA
BRANCH   2   4
HETATM    4  O   UNK N   1      37.069  13.788  12.641  0.00  0.00    -0.775 OA
HETATM    5  H   UNK N   1      37.645  13.051  12.667  0.00  0.00     0.167 HD
ENDBRANCH   2   4
ENDBRANCH   1   2
BRANCH   1   6
HETATM    6  C   UNK N   1      36.118  12.974  15.819  0.00  0.00     0.035 C 
BRANCH   6   7
HETATM    7  C   UNK N   1      34.900  13.021  16.730  0.00  0.00     0.004 C 
BRANCH   7   8
HETATM    8  C   UNK N   1      35.231  13.748  18.017  0.00  0.00     0.019 C 
BRANCH   8   9
HETATM    9  C   UNK N   1      35.242  12.759  19.165  0.00  0.00     0.111 C 
BRANCH   9  10
HETATM   10  N   UNK N   1      34.754  13.405  20.370  0.00  0.00    -0.430 N 
HETATM   11  H   UNK N   1      34.376  12.843  21.133  0.00  0.00     0.149 HD
HETATM   12  H   UNK N   1      34.789  14.421  20.454  0.00  0.00     0.149 HD
ENDBRANCH   9  10
ENDBRANCH   8   9
ENDBRANCH   7   8
ENDBRANCH   6   7
ENDBRANCH   1   6
BRANCH   1  13
HETATM   13  N   UNK N   1      37.394  14.937  15.092  0.00  0.00    -0.418 N 
HETATM   14  H   UNK N   1      37.454  15.866  15.509  0.00  0.00     0.150 HD
HETATM   15  H   UNK N   1      38.263  14.496  14.789  0.00  0.00     0.150 HD
ENDBRANCH   1  13
TORSDOF 8
ENDMDL
MODEL 5
REMARK VINA RESULT:      -4.0      3.302      5.736
REMARK  8 active torsions:
REMARK  status: ('A' for Active; 'I' for Inactive)
REMARK    1  A    between atoms: O_1  and  C_7 
REMARK    2  A    between atoms: C_2  and  C_9 
REMARK    3  A    between atoms: C_3  and  C_2 
REMARK    4  A    between atoms: C_4  and  C_3 
REMARK    5  A    between atoms: C_5  and  C_4 
REMARK    6  A    between atoms: N_6  and  C_5 
REMARK    7  A    between atoms: C_9  and  C_7 
REMARK    8  A    between atoms: C_9  and  N_10 
ROOT
HETATM    1  C   UNK N   1      34.156  17.006   8.816  0.00  0.00     0.173 C 
ENDROOT
BRANCH   1   2
HETATM    2  C   UNK N   1      34.538  18.187   7.963  0.00  0.00     0.163 C 
HETATM    3  O   UNK N   1      35.071  19.167   8.463  0.00  0.00    -0.648 OA
BRANCH   2   4
HETATM    4  O   UNK N   1      34.373  18.134   6.627  0.00  0.00    -0.775 OA
HETATM    5  H   UNK N   1      34.732  17.421   6.137  0.00  0.00     0.167 HD
ENDBRANCH   2   4
ENDBRANCH   1   2
BRANCH   1   6
HETATM    6  C   UNK N   1      35.049  16.862  10.049  0.00  0.00     0.035 C 
BRANCH   6   7
HETATM    7  C   UNK N   1      35.490  15.417  10.229  0.00  0.00     0.004 C 
BRANCH   7   8
HETATM    8  C   UNK N   1      35.125  14.922  11.613  0.00  0.00     0.019 C 
BRANCH   8   9
HETATM    9  C   UNK N   1      35.963  13.703  11.948  0.00  0.00     0.111 C 
BRANCH   9  10
HETATM   10  N   UNK N   1      36.839  14.005  13.065  0.00  0.00    -0.430 N 
HETATM   11  H   UNK N   1      36.550  13.776  14.016  0.00  0.00     0.149 HD
HETATM   12  H   UNK N   1      37.743  14.446  12.899  0.00  0.00     0.149 HD
ENDBRANCH   9  10
ENDBRANCH   8   9
ENDBRANCH   7   8
ENDBRANCH   6   7
ENDBRANCH   1   6
BRANCH   1  13
HETATM   13  N   UNK N   1      32.758  17.110   9.211  0.00  0.00    -0.418 N 
HETATM   14  H   UNK N   1      32.300  17.977   9.491  0.00  0.00     0.150 HD
HETATM   15  H   UNK N   1      32.199  16.257   9.206  0.00  0.00     0.150 HD
ENDBRANCH   1  13
TORSDOF 8
ENDMDL
MODEL 6
REMARK VINA RESULT:      -4.0     10.574     11.173
REMARK  8 active torsions:
REMARK  status: ('A' for Active; 'I' for Inactive)
REMARK    1  A    between atoms: O_1  and  C_7 
REMARK    2  A    between atoms: C_2  and  C_9 
REMARK    3  A    between atoms: C_3  and  C_2 
REMARK    4  A    between atoms: C_4  and  C_3 
REMARK    5  A    between atoms: C_5  and  C_4 
REMARK    6  A    between atoms: N_6  and  C_5 
REMARK    7  A    between atoms: C_9  and  C_7 
REMARK    8  A    between atoms: C_9  and  N_10 
ROOT
HETATM    1  C   UNK N   1      22.959  11.607  10.772  0.00  0.00     0.173 C 
ENDROOT
BRANCH   1   2
HETATM    2  C   UNK N   1      23.941  12.052  11.823  0.00  0.00     0.163 C 
HETATM    3  O   UNK N   1      23.642  12.014  13.008  0.00  0.00    -0.648 OA
BRANCH   2   4
HETATM    4  O   UNK N   1      25.190  12.414  11.468  0.00  0.00    -0.775 OA
HETATM    5  H   UNK N   1      25.732  11.821  10.986  0.00  0.00     0.167 HD
ENDBRANCH   2   4
ENDBRANCH   1   2
BRANCH   1   6
HETATM    6  C   UNK N   1      21.676  12.441  10.780  0.00  0.00     0.035 C 
BRANCH   6   7
HETATM    7  C   UNK N   1      21.820  13.659   9.881  0.00  0.00     0.004 C 
BRANCH   7   8
HETATM    8  C   UNK N   1      20.460  14.248   9.567  0.00  0.00     0.019 C 
BRANCH   8   9
HETATM    9  C   UNK N   1      20.571  15.151   8.355  0.00  0.00     0.111 C 
BRANCH   9  10
HETATM   10  N   UNK N   1      20.325  16.527   8.748  0.00  0.00    -0.430 N 
HETATM   11  H   UNK N   1      19.818  16.728   9.610  0.00  0.00     0.149 HD
HETATM   12  H   UNK N   1      20.661  17.292   8.163  0.00  0.00     0.149 HD
ENDBRANCH   9  10
ENDBRANCH   8   9
ENDBRANCH   7   8
ENDBRANCH   6   7
ENDBRANCH   1   6
BRANCH   1  13
HETATM   13  N   UNK N   1      23.583  11.649   9.458  0.00  0.00    -0.418 N 
HETATM   14  H   UNK N   1      23.075  11.595   8.575  0.00  0.00     0.150 HD
HETATM   15  H   UNK N   1      24.599  11.738   9.417  0.00  0.00     0.150 HD
ENDBRANCH   1  13
TORSDOF 8
ENDMDL
MODEL 7
REMARK VINA RESULT:      -4.0      2.469      2.841
REMARK  8 active torsions:
REMARK  status: ('A' for Active; 'I' for Inactive)
REMARK    1  A    between atoms: O_1  and  C_7 
REMARK    2  A    between atoms: C_2  and  C_9 
REMARK    3  A    between atoms: C_3  and  C_2 
REMARK    4  A    between atoms: C_4  and  C_3 
REMARK    5  A    between atoms: C_5  and  C_4 
REMARK    6  A    between atoms: N_6  and  C_5 
REMARK    7  A    between atoms: C_9  and  C_7 
REMARK    8  A    between atoms: C_9  and  N_10 
ROOT
HETATM    1  C   UNK N   1      33.222  17.759   8.711  0.00  0.00     0.173 C 
ENDROOT
BRANCH   1   2
HETATM    2  C   UNK N   1      34.401  18.278   7.932  0.00  0.00     0.163 C 
HETATM    3  O   UNK N   1      34.559  17.963   6.760  0.00  0.00    -0.648 OA
BRANCH   2   4
HETATM    4  O   UNK N   1      35.245  19.164   8.497  0.00  0.00    -0.775 OA
HETATM    5  H   UNK N   1      35.218  20.065   8.245  0.00  0.00     0.167 HD
ENDBRANCH   2   4
ENDBRANCH   1   2
BRANCH   1   6
HETATM    6  C   UNK N   1      31.986  17.551   7.833  0.00  0.00     0.035 C 
BRANCH   6   7
HETATM    7  C   UNK N   1      31.774  16.073   7.543  0.00  0.00     0.004 C 
BRANCH   7   8
HETATM    8  C   UNK N   1      31.498  15.858   6.069  0.00  0.00     0.019 C 
BRANCH   8   9
HETATM    9  C   UNK N   1      31.504  17.196   5.356  0.00  0.00     0.111 C 
BRANCH   9  10
HETATM   10  N   UNK N   1      32.635  17.258   4.446  0.00  0.00    -0.430 N 
HETATM   11  H   UNK N   1      32.727  16.568   3.700  0.00  0.00     0.149 HD
HETATM   12  H   UNK N   1      33.335  17.991   4.553  0.00  0.00     0.149 HD
ENDBRANCH   9  10
ENDBRANCH   8   9
ENDBRANCH   7   8
ENDBRANCH   6   7
ENDBRANCH   1   6
BRANCH   1  13
HETATM   13  N   UNK N   1      33.579  16.520   9.386  0.00  0.00    -0.418 N 
HETATM   14  H   UNK N   1      34.383  15.941   9.144  0.00  0.00     0.150 HD
HETATM   15  H   UNK N   1      32.984  16.209  10.154  0.00  0.00     0.150 HD
ENDBRANCH   1  13
TORSDOF 8
ENDMDL
MODEL 8
REMARK VINA RESULT:      -4.0      3.803      5.304
REMARK  8 active torsions:
REMARK  status: ('A' for Active; 'I' for Inactive)
REMARK    1  A    between atoms: O_1  and  C_7 
REMARK    2  A    between atoms: C_2  and  C_9 
REMARK    3  A    between atoms: C_3  and  C_2 
REMARK    4  A    between atoms: C_4  and  C_3 
REMARK    5  A    between atoms: C_5  and  C_4 
REMARK    6  A    between atoms: N_6  and  C_5 
REMARK    7  A    between atoms: C_9  and  C_7 
REMARK    8  A    between atoms: C_9  and  N_10 
ROOT
HETATM    1  C   UNK N   1      34.280  17.090   9.057  0.00  0.00     0.173 C 
ENDROOT
BRANCH   1   2
HETATM    2  C   UNK N   1      34.653  18.230   8.148  0.00  0.00     0.163 C 
HETATM    3  O   UNK N   1      35.276  19.190   8.579  0.00  0.00    -0.648 OA
BRANCH   2   4
HETATM    4  O   UNK N   1      34.377  18.160   6.830  0.00  0.00    -0.775 OA
HETATM    5  H   UNK N   1      33.844  17.465   6.498  0.00  0.00     0.167 HD
ENDBRANCH   2   4
ENDBRANCH   1   2
BRANCH   1   6
HETATM    6  C   UNK N   1      34.581  15.725   8.437  0.00  0.00     0.035 C 
BRANCH   6   7
HETATM    7  C   UNK N   1      35.664  15.003   9.224  0.00  0.00     0.004 C 
BRANCH   7   8
HETATM    8  C   UNK N   1      35.219  13.594   9.565  0.00  0.00     0.019 C 
BRANCH   8   9
HETATM    9  C   UNK N   1      35.664  13.254  10.974  0.00  0.00     0.111 C 
BRANCH   9  10
HETATM   10  N   UNK N   1      34.547  13.409  11.888  0.00  0.00    -0.430 N 
HETATM   11  H   UNK N   1      34.572  12.960  12.804  0.00  0.00     0.149 HD
HETATM   12  H   UNK N   1      33.738  13.967  11.615  0.00  0.00     0.149 HD
ENDBRANCH   9  10
ENDBRANCH   8   9
ENDBRANCH   7   8
ENDBRANCH   6   7
ENDBRANCH   1   6
BRANCH   1  13
HETATM   13  N   UNK N   1      34.962  17.229  10.335  0.00  0.00    -0.418 N 
HETATM   14  H   UNK N   1      34.856  18.027  10.962  0.00  0.00     0.150 HD
HETATM   15  H   UNK N   1      35.590  16.479  10.623  0.00  0.00     0.150 HD
ENDBRANCH   1  13
TORSDOF 8
ENDMDL
MODEL 9
REMARK VINA RESULT:      -3.9      1.461      1.628
REMARK  8 active torsions:
REMARK  status: ('A' for Active; 'I' for Inactive)
REMARK    1  A    between atoms: O_1  and  C_7 
REMARK    2  A    between atoms: C_2  and  C_9 
REMARK    3  A    between atoms: C_3  and  C_2 
REMARK    4  A    between atoms: C_4  and  C_3 
REMARK    5  A    between atoms: C_5  and  C_4 
REMARK    6  A    between atoms: N_6  and  C_5 
REMARK    7  A    between atoms: C_9  and  C_7 
REMARK    8  A    between atoms: C_9  and  N_10 
ROOT
HETATM    1  C   UNK N   1      33.332  17.481   7.883  0.00  0.00     0.173 C 
ENDROOT
BRANCH   1   2
HETATM    2  C   UNK N   1      34.524  18.025   8.625  0.00  0.00     0.163 C 
HETATM    3  O   UNK N   1      35.037  19.083   8.285  0.00  0.00    -0.648 OA
BRANCH   2   4
HETATM    4  O   UNK N   1      34.980  17.393   9.724  0.00  0.00    -0.775 OA
HETATM    5  H   UNK N   1      34.802  16.482   9.850  0.00  0.00     0.167 HD
ENDBRANCH   2   4
ENDBRANCH   1   2
BRANCH   1   6
HETATM    6  C   UNK N   1      32.014  18.088   8.368  0.00  0.00     0.035 C 
BRANCH   6   7
HETATM    7  C   UNK N   1      30.861  17.123   8.137  0.00  0.00     0.004 C 
BRANCH   7   8
HETATM    8  C   UNK N   1      29.882  17.185   9.293  0.00  0.00     0.019 C 
BRANCH   8   9
HETATM    9  C   UNK N   1      29.248  18.561   9.342  0.00  0.00     0.111 C 
BRANCH   9  10
HETATM   10  N   UNK N   1      27.821  18.449   9.097  0.00  0.00    -0.430 N 
HETATM   11  H   UNK N   1      27.476  18.320   8.146  0.00  0.00     0.149 HD
HETATM   12  H   UNK N   1      27.165  18.500   9.876  0.00  0.00     0.149 HD
ENDBRANCH   9  10
ENDBRANCH   8   9
ENDBRANCH   7   8
ENDBRANCH   6   7
ENDBRANCH   1   6
BRANCH   1  13
HETATM   13  N   UNK N   1      33.495  17.698   6.453  0.00  0.00    -0.418 N 
HETATM   14  H   UNK N   1      32.828  17.395   5.743  0.00  0.00     0.150 HD
HETATM   15  H   UNK N   1      34.334  18.186   6.139  0.00  0.00     0.150 HD
ENDBRANCH   1  13
TORSDOF 8
ENDMDL
