MODEL 1
REMARK VINA RESULT:      -4.2      0.000      0.000
REMARK  5 active torsions:
REMARK  status: ('A' for Active; 'I' for Inactive)
REMARK    1  A    between atoms: O_1  and  C_7 
REMARK    2  A    between atoms: O_2  and  C_8 
REMARK    3  A    between atoms: C_5  and  C_6 
REMARK    4  A    between atoms: C_5  and  C_7 
REMARK    5  A    between atoms: C_6  and  C_8 
ROOT
HETATM    1  C   UNK N   1      23.102  11.620  10.682  0.00  0.00     0.120 C 
ENDROOT
BRANCH   1   2
HETATM    2  C   UNK N   1      22.173  12.742  10.236  0.00  0.00     0.120 C 
BRANCH   2   3
HETATM    3  C   UNK N   1      20.804  12.613  10.825  0.00  0.00     0.139 C 
HETATM    4  O   UNK N   1      19.852  13.209  10.342  0.00  0.00    -0.650 OA
BRANCH   3   5
HETATM    5  O   UNK N   1      20.621  11.830  11.901  0.00  0.00    -0.776 OA
HETATM    6  H   UNK N   1      20.215  10.991  11.807  0.00  0.00     0.167 HD
ENDBRANCH   3   5
ENDBRANCH   2   3
ENDBRANCH   1   2
BRANCH   1   7
HETATM    7  C   UNK N   1      24.000  12.038  11.802  0.00  0.00     0.139 C 
HETATM    8  O   UNK N   1      23.625  11.977  12.965  0.00  0.00    -0.650 OA
BRANCH   7   9
HETATM    9  O   UNK N   1      25.235  12.488  11.524  0.00  0.00    -0.776 OA
HETATM   10  H   UNK N   1      25.864  11.914  11.132  0.00  0.00     0.167 HD
ENDBRANCH   7   9
ENDBRANCH   1   7
TORSDOF 5
ENDMDL
MODEL 2
REMARK VINA RESULT:      -4.2      0.187      3.790
REMARK  5 active torsions:
REMARK  status: ('A' for Active; 'I' for Inactive)
REMARK    1  A    between atoms: O_1  and  C_7 
REMARK    2  A    between atoms: O_2  and  C_8 
REMARK    3  A    between atoms: C_5  and  C_6 
REMARK    4  A    between atoms: C_5  and  C_7 
REMARK    5  A    between atoms: C_6  and  C_8 
ROOT
HETATM    1  C   UNK N   1      22.096  12.736  10.176  0.00  0.00     0.120 C 
ENDROOT
BRANCH   1   2
HETATM    2  C   UNK N   1      22.980  11.599  10.673  0.00  0.00     0.120 C 
BRANCH   2   3
HETATM    3  C   UNK N   1      23.804  11.996  11.857  0.00  0.00     0.139 C 
HETATM    4  O   UNK N   1      23.338  11.965  12.988  0.00  0.00    -0.650 OA
BRANCH   3   5
HETATM    5  O   UNK N   1      25.073  12.393  11.672  0.00  0.00    -0.776 OA
HETATM    6  H   UNK N   1      25.424  13.095  12.184  0.00  0.00     0.167 HD
ENDBRANCH   3   5
ENDBRANCH   2   3
ENDBRANCH   1   2
BRANCH   1   7
HETATM    7  C   UNK N   1      20.720  12.680  10.756  0.00  0.00     0.139 C 
HETATM    8  O   UNK N   1      19.810  13.346  10.283  0.00  0.00    -0.650 OA
BRANCH   7   9
HETATM    9  O   UNK N   1      20.481  11.884  11.813  0.00  0.00    -0.776 OA
HETATM   10  H   UNK N   1      21.197  11.508  12.286  0.00  0.00     0.167 HD
ENDBRANCH   7   9
ENDBRANCH   1   7
TORSDOF 5
ENDMDL
MODEL 3
REMARK VINA RESULT:      -4.1     13.303     14.187
REMARK  5 active torsions:
REMARK  status: ('A' for Active; 'I' for Inactive)
REMARK    1  A    between atoms: O_1  and  C_7 
REMARK    2  A    between atoms: O_2  and  C_8 
REMARK    3  A    between atoms: C_5  and  C_6 
REMARK    4  A    between atoms: C_5  and  C_7 
REMARK    5  A    between atoms: C_6  and  C_8 
ROOT
HETATM    1  C   UNK N   1      33.992  17.122   8.929  0.00  0.00     0.120 C 
ENDROOT
BRANCH   1   2
HETATM    2  C   UNK N   1      35.035  16.088   9.334  0.00  0.00     0.120 C 
BRANCH   2   3
HETATM    3  C   UNK N   1      35.733  16.455  10.606  0.00  0.00     0.139 C 
HETATM    4  O   UNK N   1      35.182  17.150  11.448  0.00  0.00    -0.650 OA
BRANCH   3   5
HETATM    5  O   UNK N   1      36.983  16.013  10.822  0.00  0.00    -0.776 OA
HETATM    6  H   UNK N   1      37.670  16.622  11.007  0.00  0.00     0.167 HD
ENDBRANCH   3   5
ENDBRANCH   2   3
ENDBRANCH   1   2
BRANCH   1   7
HETATM    7  C   UNK N   1      34.545  18.150   7.996  0.00  0.00     0.139 C 
HETATM    8  O   UNK N   1      35.143  19.129   8.421  0.00  0.00    -0.650 OA
BRANCH   7   9
HETATM    9  O   UNK N   1      34.382  17.994   6.671  0.00  0.00    -0.776 OA
HETATM   10  H   UNK N   1      35.122  17.801   6.128  0.00  0.00     0.167 HD
ENDBRANCH   7   9
ENDBRANCH   1   7
TORSDOF 5
ENDMDL
MODEL 4
REMARK VINA RESULT:      -3.9     12.840     13.929
REMARK  5 active torsions:
REMARK  status: ('A' for Active; 'I' for Inactive)
REMARK    1  A    between atoms: O_1  and  C_7 
REMARK    2  A    between atoms: O_2  and  C_8 
REMARK    3  A    between atoms: C_5  and  C_6 
REMARK    4  A    between atoms: C_5  and  C_7 
REMARK    5  A    between atoms: C_6  and  C_8 
ROOT
HETATM    1  C   UNK N   1      34.748  15.374  11.225  0.00  0.00     0.120 C 
ENDROOT
BRANCH   1   2
HETATM    2  C   UNK N   1      35.329  14.025  11.627  0.00  0.00     0.120 C 
BRANCH   2   3
HETATM    3  C   UNK N   1      35.638  13.953  13.089  0.00  0.00     0.139 C 
HETATM    4  O   UNK N   1      34.842  13.463  13.877  0.00  0.00    -0.650 OA
BRANCH   3   5
HETATM    5  O   UNK N   1      36.807  14.436  13.540  0.00  0.00    -0.776 OA
HETATM    6  H   UNK N   1      36.869  14.782  14.408  0.00  0.00     0.167 HD
ENDBRANCH   3   5
ENDBRANCH   2   3
ENDBRANCH   1   2
BRANCH   1   7
HETATM    7  C   UNK N   1      35.802  16.336  10.779  0.00  0.00     0.139 C 
HETATM    8  O   UNK N   1      35.504  17.442  10.350  0.00  0.00    -0.650 OA
BRANCH   7   9
HETATM    9  O   UNK N   1      37.095  15.977  10.851  0.00  0.00    -0.776 OA
HETATM   10  H   UNK N   1      37.334  15.073  10.787  0.00  0.00     0.167 HD
ENDBRANCH   7   9
ENDBRANCH   1   7
TORSDOF 5
ENDMDL
MODEL 5
REMARK VINA RESULT:      -3.9     11.099     12.315
REMARK  5 active torsions:
REMARK  status: ('A' for Active; 'I' for Inactive)
REMARK    1  A    between atoms: O_1  and  C_7 
REMARK    2  A    between atoms: O_2  and  C_8 
REMARK    3  A    between atoms: C_5  and  C_6 
REMARK    4  A    between atoms: C_5  and  C_7 
REMARK    5  A    between atoms: C_6  and  C_8 
ROOT
HETATM    1  C   UNK N   1      20.035  19.623   2.249  0.00  0.00     0.120 C 
ENDROOT
BRANCH   1   2
HETATM    2  C   UNK N   1      20.635  18.227   2.354  0.00  0.00     0.120 C 
BRANCH   2   3
HETATM    3  C   UNK N   1      20.228  17.347   1.215  0.00  0.00     0.139 C 
HETATM    4  O   UNK N   1      19.833  16.206   1.411  0.00  0.00    -0.650 OA
BRANCH   3   5
HETATM    5  O   UNK N   1      20.299  17.820  -0.040  0.00  0.00    -0.776 OA
HETATM    6  H   UNK N   1      19.824  18.592  -0.278  0.00  0.00     0.167 HD
ENDBRANCH   3   5
ENDBRANCH   2   3
ENDBRANCH   1   2
BRANCH   1   7
HETATM    7  C   UNK N   1      21.024  20.630   1.756  0.00  0.00     0.139 C 
HETATM    8  O   UNK N   1      21.339  20.677   0.575  0.00  0.00    -0.650 OA
BRANCH   7   9
HETATM    9  O   UNK N   1      21.572  21.496   2.626  0.00  0.00    -0.776 OA
HETATM   10  H   UNK N   1      21.344  22.404   2.589  0.00  0.00     0.167 HD
ENDBRANCH   7   9
ENDBRANCH   1   7
TORSDOF 5
ENDMDL
MODEL 6
REMARK VINA RESULT:      -3.9     11.944     13.196
REMARK  5 active torsions:
REMARK  status: ('A' for Active; 'I' for Inactive)
REMARK    1  A    between atoms: O_1  and  C_7 
REMARK    2  A    between atoms: O_2  and  C_8 
REMARK    3  A    between atoms: C_5  and  C_6 
REMARK    4  A    between atoms: C_5  and  C_7 
REMARK    5  A    between atoms: C_6  and  C_8 
ROOT
HETATM    1  C   UNK N   1      33.651  16.063   8.931  0.00  0.00     0.120 C 
ENDROOT
BRANCH   1   2
HETATM    2  C   UNK N   1      33.273  17.501   8.603  0.00  0.00     0.120 C 
BRANCH   2   3
HETATM    3  C   UNK N   1      34.355  18.217   7.858  0.00  0.00     0.139 C 
HETATM    4  O   UNK N   1      34.511  18.047   6.657  0.00  0.00    -0.650 OA
BRANCH   3   5
HETATM    5  O   UNK N   1      35.166  19.057   8.521  0.00  0.00    -0.776 OA
HETATM    6  H   UNK N   1      35.689  18.742   9.232  0.00  0.00     0.167 HD
ENDBRANCH   3   5
ENDBRANCH   2   3
ENDBRANCH   1   2
BRANCH   1   7
HETATM    7  C   UNK N   1      34.217  15.926  10.308  0.00  0.00     0.139 C 
HETATM    8  O   UNK N   1      35.209  16.557  10.646  0.00  0.00    -0.650 OA
BRANCH   7   9
HETATM    9  O   UNK N   1      33.626  15.096  11.184  0.00  0.00    -0.776 OA
HETATM   10  H   UNK N   1      32.697  14.982  11.166  0.00  0.00     0.167 HD
ENDBRANCH   7   9
ENDBRANCH   1   7
TORSDOF 5
ENDMDL
MODEL 7
REMARK VINA RESULT:      -3.7     10.612     12.108
REMARK  5 active torsions:
REMARK  status: ('A' for Active; 'I' for Inactive)
REMARK    1  A    between atoms: O_1  and  C_7 
REMARK    2  A    between atoms: O_2  and  C_8 
REMARK    3  A    between atoms: C_5  and  C_6 
REMARK    4  A    between atoms: C_5  and  C_7 
REMARK    5  A    between atoms: C_6  and  C_8 
ROOT
HETATM    1  C   UNK N   1      33.197  17.726   8.615  0.00  0.00     0.120 C 
ENDROOT
BRANCH   1   2
HETATM    2  C   UNK N   1      32.020  17.416   7.699  0.00  0.00     0.120 C 
BRANCH   2   3
HETATM    3  C   UNK N   1      30.704  17.591   8.387  0.00  0.00     0.139 C 
HETATM    4  O   UNK N   1      29.688  17.071   7.946  0.00  0.00    -0.650 OA
BRANCH   3   5
HETATM    5  O   UNK N   1      30.639  18.331   9.507  0.00  0.00    -0.776 OA
HETATM    6  H   UNK N   1      31.336  18.297  10.132  0.00  0.00     0.167 HD
ENDBRANCH   3   5
ENDBRANCH   2   3
ENDBRANCH   1   2
BRANCH   1   7
HETATM    7  C   UNK N   1      34.366  18.284   7.869  0.00  0.00     0.139 C 
HETATM    8  O   UNK N   1      34.566  17.985   6.700  0.00  0.00    -0.650 OA
BRANCH   7   9
HETATM    9  O   UNK N   1      35.207  19.125   8.494  0.00  0.00    -0.776 OA
HETATM   10  H   UNK N   1      36.127  19.081   8.322  0.00  0.00     0.167 HD
ENDBRANCH   7   9
ENDBRANCH   1   7
TORSDOF 5
ENDMDL
MODEL 8
REMARK VINA RESULT:      -3.7     11.138     12.656
REMARK  5 active torsions:
REMARK  status: ('A' for Active; 'I' for Inactive)
REMARK    1  A    between atoms: O_1  and  C_7 
REMARK    2  A    between atoms: O_2  and  C_8 
REMARK    3  A    between atoms: C_5  and  C_6 
REMARK    4  A    between atoms: C_5  and  C_7 
REMARK    5  A    between atoms: C_6  and  C_8 
ROOT
HETATM    1  C   UNK N   1      20.912  19.058   2.477  0.00  0.00     0.120 C 
ENDROOT
BRANCH   1   2
HETATM    2  C   UNK N   1      20.370  20.476   2.354  0.00  0.00     0.120 C 
BRANCH   2   3
HETATM    3  C   UNK N   1      20.699  21.097   1.033  0.00  0.00     0.139 C 
HETATM    4  O   UNK N   1      21.139  20.422   0.113  0.00  0.00    -0.650 OA
BRANCH   3   5
HETATM    5  O   UNK N   1      20.506  22.415   0.859  0.00  0.00    -0.776 OA
HETATM    6  H   UNK N   1      20.310  22.961   1.594  0.00  0.00     0.167 HD
ENDBRANCH   3   5
ENDBRANCH   2   3
ENDBRANCH   1   2
BRANCH   1   7
HETATM    7  C   UNK N   1      19.874  18.026   2.174  0.00  0.00     0.139 C 
HETATM    8  O   UNK N   1      19.878  17.423   1.110  0.00  0.00    -0.650 OA
BRANCH   7   9
HETATM    9  O   UNK N   1      18.924  17.758   3.086  0.00  0.00    -0.776 OA
HETATM   10  H   UNK N   1      18.698  16.869   3.279  0.00  0.00     0.167 HD
ENDBRANCH   7   9
ENDBRANCH   1   7
TORSDOF 5
ENDMDL
MODEL 9
REMARK VINA RESULT:      -3.6      1.737      2.218
REMARK  5 active torsions:
REMARK  status: ('A' for Active; 'I' for Inactive)
REMARK    1  A    between atoms: O_1  and  C_7 
REMARK    2  A    between atoms: O_2  and  C_8 
REMARK    3  A    between atoms: C_5  and  C_6 
REMARK    4  A    between atoms: C_5  and  C_7 
REMARK    5  A    between atoms: C_6  and  C_8 
ROOT
HETATM    1  C   UNK N   1      22.282  11.888  11.524  0.00  0.00     0.120 C 
ENDROOT
BRANCH   1   2
HETATM    2  C   UNK N   1      22.033  12.909  10.421  0.00  0.00     0.120 C 
BRANCH   2   3
HETATM    3  C   UNK N   1      22.073  12.293   9.059  0.00  0.00     0.139 C 
HETATM    4  O   UNK N   1      21.153  12.452   8.268  0.00  0.00    -0.650 OA
BRANCH   3   5
HETATM    5  O   UNK N   1      23.136  11.554   8.701  0.00  0.00    -0.776 OA
HETATM    6  H   UNK N   1      23.190  10.654   8.958  0.00  0.00     0.167 HD
ENDBRANCH   3   5
ENDBRANCH   2   3
ENDBRANCH   1   2
BRANCH   1   7
HETATM    7  C   UNK N   1      23.618  12.067  12.171  0.00  0.00     0.139 C 
HETATM    8  O   UNK N   1      24.646  12.041  11.509  0.00  0.00    -0.650 OA
BRANCH   7   9
HETATM    9  O   UNK N   1      23.687  12.258  13.499  0.00  0.00    -0.776 OA
HETATM   10  H   UNK N   1      23.630  13.125  13.850  0.00  0.00     0.167 HD
ENDBRANCH   7   9
ENDBRANCH   1   7
TORSDOF 5
ENDMDL
