MODEL 1
REMARK VINA RESULT:      -6.0      0.000      0.000
REMARK  5 active torsions:
REMARK  status: ('A' for Active; 'I' for Inactive)
REMARK    1  A    between atoms: O_1  and  C_13 
REMARK    2  A    between atoms: C_8  and  N_4 
REMARK    3  A    between atoms: C_5  and  C_6 
REMARK    4  A    between atoms: C_6  and  C_8 
REMARK    5  A    between atoms: C_8  and  C_13 
ROOT
HETATM    1  N   UNK N   1      36.369  13.815  15.229  0.00  0.00    -0.365 N 
HETATM    2  C   UNK N   1      35.665  13.548  13.109  0.00  0.00    -0.028 A 
HETATM    3  C   UNK N   1      35.166  12.523  13.864  0.00  0.00    -0.002 A 
HETATM    4  C   UNK N   1      35.608  12.710  15.140  0.00  0.00     0.042 A 
HETATM    5  C   UNK N   1      36.413  14.344  13.977  0.00  0.00     0.096 A 
HETATM    6  C   UNK N   1      34.357  11.445  13.510  0.00  0.00     0.014 A 
HETATM    7  C   UNK N   1      35.274  11.830  16.166  0.00  0.00     0.030 A 
HETATM    8  C   UNK N   1      34.000  10.536  14.521  0.00  0.00     0.001 A 
HETATM    9  C   UNK N   1      34.457  10.729  15.846  0.00  0.00     0.002 A 
HETATM   10  H   UNK N   1      36.807  14.169  16.038  0.00  0.00     0.165 HD
ENDROOT
BRANCH   2  11
HETATM   11  C   UNK N   1      35.407  13.707  11.639  0.00  0.00     0.076 C 
BRANCH  11  12
HETATM   12  C   UNK N   1      34.792  15.007  11.122  0.00  0.00     0.177 C 
BRANCH  12  13
HETATM   13  N   UNK N   1      33.365  15.125  10.869  0.00  0.00    -0.417 N 
HETATM   14  H   UNK N   1      32.745  14.341  11.071  0.00  0.00     0.150 HD
HETATM   15  H   UNK N   1      32.984  15.991  10.488  0.00  0.00     0.150 HD
ENDBRANCH  12  13
BRANCH  12  16
HETATM   16  C   UNK N   1      35.660  16.200  10.862  0.00  0.00     0.163 C 
HETATM   17  O   UNK N   1      35.152  17.287  10.640  0.00  0.00    -0.648 OA
BRANCH  16  18
HETATM   18  O   UNK N   1      37.001  16.081  10.872  0.00  0.00    -0.775 OA
HETATM   19  H   UNK N   1      37.425  15.506  10.266  0.00  0.00     0.167 HD
ENDBRANCH  16  18
ENDBRANCH  12  16
ENDBRANCH  11  12
ENDBRANCH   2  11
TORSDOF 5
ENDMDL
MODEL 2
REMARK VINA RESULT:      -5.8      6.479      8.595
REMARK  5 active torsions:
REMARK  status: ('A' for Active; 'I' for Inactive)
REMARK    1  A    between atoms: O_1  and  C_13 
REMARK    2  A    between atoms: C_8  and  N_4 
REMARK    3  A    between atoms: C_5  and  C_6 
REMARK    4  A    between atoms: C_6  and  C_8 
REMARK    5  A    between atoms: C_8  and  C_13 
ROOT
HETATM    1  N   UNK N   1      29.970  17.290   5.710  0.00  0.00    -0.365 N 
HETATM    2  C   UNK N   1      31.507  16.652   7.225  0.00  0.00    -0.028 A 
HETATM    3  C   UNK N   1      30.484  17.280   7.882  0.00  0.00    -0.002 A 
HETATM    4  C   UNK N   1      29.571  17.653   6.942  0.00  0.00     0.042 A 
HETATM    5  C   UNK N   1      31.169  16.668   5.871  0.00  0.00     0.096 A 
HETATM    6  C   UNK N   1      30.303  17.543   9.238  0.00  0.00     0.014 A 
HETATM    7  C   UNK N   1      28.399  18.323   7.286  0.00  0.00     0.030 A 
HETATM    8  C   UNK N   1      29.130  18.217   9.622  0.00  0.00     0.001 A 
HETATM    9  C   UNK N   1      28.181  18.606   8.648  0.00  0.00     0.002 A 
HETATM   10  H   UNK N   1      29.491  17.442   4.863  0.00  0.00     0.165 HD
ENDROOT
BRANCH   2  11
HETATM   11  C   UNK N   1      32.718  16.088   7.909  0.00  0.00     0.076 C 
BRANCH  11  12
HETATM   12  C   UNK N   1      33.721  17.038   8.562  0.00  0.00     0.177 C 
BRANCH  12  13
HETATM   13  N   UNK N   1      34.055  16.936   9.974  0.00  0.00    -0.417 N 
HETATM   14  H   UNK N   1      33.350  17.141  10.681  0.00  0.00     0.150 HD
HETATM   15  H   UNK N   1      34.995  16.659  10.257  0.00  0.00     0.150 HD
ENDBRANCH  12  13
BRANCH  12  16
HETATM   16  C   UNK N   1      34.387  18.105   7.751  0.00  0.00     0.163 C 
HETATM   17  O   UNK N   1      34.378  18.041   6.531  0.00  0.00    -0.648 OA
BRANCH  16  18
HETATM   18  O   UNK N   1      35.000  19.140   8.358  0.00  0.00    -0.775 OA
HETATM   19  H   UNK N   1      35.785  19.498   7.994  0.00  0.00     0.167 HD
ENDBRANCH  16  18
ENDBRANCH  12  16
ENDBRANCH  11  12
ENDBRANCH   2  11
TORSDOF 5
ENDMDL
MODEL 3
REMARK VINA RESULT:      -5.8     15.276     17.471
REMARK  5 active torsions:
REMARK  status: ('A' for Active; 'I' for Inactive)
REMARK    1  A    between atoms: O_1  and  C_13 
REMARK    2  A    between atoms: C_8  and  N_4 
REMARK    3  A    between atoms: C_5  and  C_6 
REMARK    4  A    between atoms: C_6  and  C_8 
REMARK    5  A    between atoms: C_8  and  C_13 
ROOT
HETATM    1  N   UNK N   1      23.551  17.606   5.166  0.00  0.00    -0.365 N 
HETATM    2  C   UNK N   1      22.087  19.046   4.247  0.00  0.00    -0.028 A 
HETATM    3  C   UNK N   1      23.348  19.397   3.849  0.00  0.00    -0.002 A 
HETATM    4  C   UNK N   1      24.211  18.509   4.420  0.00  0.00     0.042 A 
HETATM    5  C   UNK N   1      22.233  17.928   5.068  0.00  0.00     0.096 A 
HETATM    6  C   UNK N   1      23.786  20.433   3.028  0.00  0.00     0.014 A 
HETATM    7  C   UNK N   1      25.586  18.589   4.212  0.00  0.00     0.030 A 
HETATM    8  C   UNK N   1      25.168  20.544   2.795  0.00  0.00     0.001 A 
HETATM    9  C   UNK N   1      26.065  19.624   3.386  0.00  0.00     0.002 A 
HETATM   10  H   UNK N   1      23.943  16.863   5.680  0.00  0.00     0.165 HD
ENDROOT
BRANCH   2  11
HETATM   11  C   UNK N   1      20.846  19.781   3.832  0.00  0.00     0.076 C 
BRANCH  11  12
HETATM   12  C   UNK N   1      20.195  19.454   2.488  0.00  0.00     0.177 C 
BRANCH  12  13
HETATM   13  N   UNK N   1      19.185  18.416   2.366  0.00  0.00    -0.417 N 
HETATM   14  H   UNK N   1      18.211  18.669   2.194  0.00  0.00     0.150 HD
HETATM   15  H   UNK N   1      19.448  17.434   2.451  0.00  0.00     0.150 HD
ENDBRANCH  12  13
BRANCH  12  16
HETATM   16  C   UNK N   1      20.592  20.207   1.256  0.00  0.00     0.163 C 
HETATM   17  O   UNK N   1      20.888  21.389   1.332  0.00  0.00    -0.648 OA
BRANCH  16  18
HETATM   18  O   UNK N   1      20.625  19.587   0.061  0.00  0.00    -0.775 OA
HETATM   19  H   UNK N   1      19.865  19.586  -0.487  0.00  0.00     0.167 HD
ENDBRANCH  16  18
ENDBRANCH  12  16
ENDBRANCH  11  12
ENDBRANCH   2  11
TORSDOF 5
ENDMDL
MODEL 4
REMARK VINA RESULT:      -5.7      2.699      4.134
REMARK  5 active torsions:
REMARK  status: ('A' for Active; 'I' for Inactive)
REMARK    1  A    between atoms: O_1  and  C_13 
REMARK    2  A    between atoms: C_8  and  N_4 
REMARK    3  A    between atoms: C_5  and  C_6 
REMARK    4  A    between atoms: C_6  and  C_8 
REMARK    5  A    between atoms: C_8  and  C_13 
ROOT
HETATM    1  N   UNK N   1      35.325  13.436  19.290  0.00  0.00    -0.365 N 
HETATM    2  C   UNK N   1      35.147  12.974  17.095  0.00  0.00    -0.028 A 
HETATM    3  C   UNK N   1      35.317  11.798  17.773  0.00  0.00    -0.002 A 
HETATM    4  C   UNK N   1      35.421  12.109  19.096  0.00  0.00     0.042 A 
HETATM    5  C   UNK N   1      35.154  13.984  18.057  0.00  0.00     0.096 A 
HETATM    6  C   UNK N   1      35.385  10.486  17.312  0.00  0.00     0.014 A 
HETATM    7  C   UNK N   1      35.603  11.126  20.066  0.00  0.00     0.030 A 
HETATM    8  C   UNK N   1      35.569   9.467  18.263  0.00  0.00     0.001 A 
HETATM    9  C   UNK N   1      35.677   9.786  19.636  0.00  0.00     0.002 A 
HETATM   10  H   UNK N   1      35.369  13.914  20.150  0.00  0.00     0.165 HD
ENDROOT
BRANCH   2  11
HETATM   11  C   UNK N   1      34.990  13.064  15.605  0.00  0.00     0.076 C 
BRANCH  11  12
HETATM   12  C   UNK N   1      36.095  13.717  14.774  0.00  0.00     0.177 C 
BRANCH  12  13
HETATM   13  N   UNK N   1      37.294  14.256  15.394  0.00  0.00    -0.417 N 
HETATM   14  H   UNK N   1      38.016  13.626  15.742  0.00  0.00     0.150 HD
HETATM   15  H   UNK N   1      37.414  15.266  15.481  0.00  0.00     0.150 HD
ENDBRANCH  12  13
BRANCH  12  16
HETATM   16  C   UNK N   1      35.960  13.815  13.286  0.00  0.00     0.163 C 
HETATM   17  O   UNK N   1      34.853  13.893  12.777  0.00  0.00    -0.648 OA
BRANCH  16  18
HETATM   18  O   UNK N   1      37.055  13.817  12.501  0.00  0.00    -0.775 OA
HETATM   19  H   UNK N   1      37.850  14.204  12.810  0.00  0.00     0.167 HD
ENDBRANCH  16  18
ENDBRANCH  12  16
ENDBRANCH  11  12
ENDBRANCH   2  11
TORSDOF 5
ENDMDL
MODEL 5
REMARK VINA RESULT:      -5.6     22.437     24.606
REMARK  5 active torsions:
REMARK  status: ('A' for Active; 'I' for Inactive)
REMARK    1  A    between atoms: O_1  and  C_13 
REMARK    2  A    between atoms: C_8  and  N_4 
REMARK    3  A    between atoms: C_5  and  C_6 
REMARK    4  A    between atoms: C_6  and  C_8 
REMARK    5  A    between atoms: C_8  and  C_13 
ROOT
HETATM    1  N   UNK N   1      26.285  28.897  -3.363  0.00  0.00    -0.365 N 
HETATM    2  C   UNK N   1      25.796  27.284  -4.853  0.00  0.00    -0.028 A 
HETATM    3  C   UNK N   1      26.719  28.124  -5.412  0.00  0.00    -0.002 A 
HETATM    4  C   UNK N   1      26.995  29.088  -4.489  0.00  0.00     0.042 A 
HETATM    5  C   UNK N   1      25.537  27.781  -3.575  0.00  0.00     0.096 A 
HETATM    6  C   UNK N   1      27.327  28.100  -6.664  0.00  0.00     0.014 A 
HETATM    7  C   UNK N   1      27.907  30.109  -4.748  0.00  0.00     0.030 A 
HETATM    8  C   UNK N   1      28.253  29.115  -6.961  0.00  0.00     0.001 A 
HETATM    9  C   UNK N   1      28.542  30.117  -6.006  0.00  0.00     0.002 A 
HETATM   10  H   UNK N   1      26.303  29.452  -2.550  0.00  0.00     0.165 HD
ENDROOT
BRANCH   2  11
HETATM   11  C   UNK N   1      25.227  26.083  -5.552  0.00  0.00     0.076 C 
BRANCH  11  12
HETATM   12  C   UNK N   1      25.815  24.701  -5.269  0.00  0.00     0.177 C 
BRANCH  12  13
HETATM   13  N   UNK N   1      25.407  23.532  -6.030  0.00  0.00    -0.417 N 
HETATM   14  H   UNK N   1      24.616  22.969  -5.716  0.00  0.00     0.150 HD
HETATM   15  H   UNK N   1      25.911  23.273  -6.878  0.00  0.00     0.150 HD
ENDBRANCH  12  13
BRANCH  12  16
HETATM   16  C   UNK N   1      26.836  24.524  -4.188  0.00  0.00     0.163 C 
HETATM   17  O   UNK N   1      28.021  24.680  -4.437  0.00  0.00    -0.648 OA
BRANCH  16  18
HETATM   18  O   UNK N   1      26.456  24.192  -2.940  0.00  0.00    -0.775 OA
HETATM   19  H   UNK N   1      26.243  24.863  -2.322  0.00  0.00     0.167 HD
ENDBRANCH  16  18
ENDBRANCH  12  16
ENDBRANCH  11  12
ENDBRANCH   2  11
TORSDOF 5
ENDMDL
MODEL 6
REMARK VINA RESULT:      -5.5      2.869      3.951
REMARK  5 active torsions:
REMARK  status: ('A' for Active; 'I' for Inactive)
REMARK    1  A    between atoms: O_1  and  C_13 
REMARK    2  A    between atoms: C_8  and  N_4 
REMARK    3  A    between atoms: C_5  and  C_6 
REMARK    4  A    between atoms: C_6  and  C_8 
REMARK    5  A    between atoms: C_8  and  C_13 
ROOT
HETATM    1  N   UNK N   1      36.549  13.304   9.753  0.00  0.00    -0.365 N 
HETATM    2  C   UNK N   1      35.834  15.357  10.331  0.00  0.00    -0.028 A 
HETATM    3  C   UNK N   1      36.107  14.656  11.473  0.00  0.00    -0.002 A 
HETATM    4  C   UNK N   1      36.536  13.419  11.093  0.00  0.00     0.042 A 
HETATM    5  C   UNK N   1      36.116  14.498   9.268  0.00  0.00     0.096 A 
HETATM    6  C   UNK N   1      36.004  15.026  12.812  0.00  0.00     0.014 A 
HETATM    7  C   UNK N   1      36.898  12.452  12.027  0.00  0.00     0.030 A 
HETATM    8  C   UNK N   1      36.361  14.074  13.783  0.00  0.00     0.001 A 
HETATM    9  C   UNK N   1      36.807  12.791  13.391  0.00  0.00     0.002 A 
HETATM   10  H   UNK N   1      36.817  12.514   9.229  0.00  0.00     0.165 HD
ENDROOT
BRANCH   2  11
HETATM   11  C   UNK N   1      35.333  16.772  10.318  0.00  0.00     0.076 C 
BRANCH  11  12
HETATM   12  C   UNK N   1      34.338  17.206   9.242  0.00  0.00     0.177 C 
BRANCH  12  13
HETATM   13  N   UNK N   1      32.996  16.649   9.181  0.00  0.00    -0.417 N 
HETATM   14  H   UNK N   1      32.347  16.961   8.458  0.00  0.00     0.150 HD
HETATM   15  H   UNK N   1      32.702  15.947   9.860  0.00  0.00     0.150 HD
ENDBRANCH  12  13
BRANCH  12  16
HETATM   16  C   UNK N   1      34.731  18.225   8.218  0.00  0.00     0.163 C 
HETATM   17  O   UNK N   1      35.296  19.250   8.564  0.00  0.00    -0.648 OA
BRANCH  16  18
HETATM   18  O   UNK N   1      34.465  18.017   6.914  0.00  0.00    -0.775 OA
HETATM   19  H   UNK N   1      35.033  18.372   6.259  0.00  0.00     0.167 HD
ENDBRANCH  16  18
ENDBRANCH  12  16
ENDBRANCH  11  12
ENDBRANCH   2  11
TORSDOF 5
ENDMDL
MODEL 7
REMARK VINA RESULT:      -5.5      6.616      8.873
REMARK  5 active torsions:
REMARK  status: ('A' for Active; 'I' for Inactive)
REMARK    1  A    between atoms: O_1  and  C_13 
REMARK    2  A    between atoms: C_8  and  N_4 
REMARK    3  A    between atoms: C_5  and  C_6 
REMARK    4  A    between atoms: C_6  and  C_8 
REMARK    5  A    between atoms: C_8  and  C_13 
ROOT
HETATM    1  N   UNK N   1      31.163  15.062   6.006  0.00  0.00    -0.365 N 
HETATM    2  C   UNK N   1      31.484  16.707   7.507  0.00  0.00    -0.028 A 
HETATM    3  C   UNK N   1      30.249  16.870   6.943  0.00  0.00    -0.002 A 
HETATM    4  C   UNK N   1      30.083  15.862   6.040  0.00  0.00     0.042 A 
HETATM    5  C   UNK N   1      32.040  15.574   6.911  0.00  0.00     0.096 A 
HETATM    6  C   UNK N   1      29.269  17.835   7.165  0.00  0.00     0.014 A 
HETATM    7  C   UNK N   1      28.919  15.740   5.286  0.00  0.00     0.030 A 
HETATM    8  C   UNK N   1      28.080  17.743   6.421  0.00  0.00     0.001 A 
HETATM    9  C   UNK N   1      27.906  16.698   5.484  0.00  0.00     0.002 A 
HETATM   10  H   UNK N   1      31.294  14.267   5.440  0.00  0.00     0.165 HD
ENDROOT
BRANCH   2  11
HETATM   11  C   UNK N   1      32.050  17.617   8.558  0.00  0.00     0.076 C 
BRANCH  11  12
HETATM   12  C   UNK N   1      33.550  17.585   8.849  0.00  0.00     0.177 C 
BRANCH  12  13
HETATM   13  N   UNK N   1      34.087  16.852   9.984  0.00  0.00    -0.417 N 
HETATM   14  H   UNK N   1      34.614  15.991   9.832  0.00  0.00     0.150 HD
HETATM   15  H   UNK N   1      33.938  17.197  10.932  0.00  0.00     0.150 HD
ENDBRANCH  12  13
BRANCH  12  16
HETATM   16  C   UNK N   1      34.506  18.318   7.961  0.00  0.00     0.163 C 
HETATM   17  O   UNK N   1      35.248  19.166   8.431  0.00  0.00    -0.648 OA
BRANCH  16  18
HETATM   18  O   UNK N   1      34.554  18.048   6.642  0.00  0.00    -0.775 OA
HETATM   19  H   UNK N   1      34.056  18.564   6.040  0.00  0.00     0.167 HD
ENDBRANCH  16  18
ENDBRANCH  12  16
ENDBRANCH  11  12
ENDBRANCH   2  11
TORSDOF 5
ENDMDL
MODEL 8
REMARK VINA RESULT:      -5.5      1.737      2.342
REMARK  5 active torsions:
REMARK  status: ('A' for Active; 'I' for Inactive)
REMARK    1  A    between atoms: O_1  and  C_13 
REMARK    2  A    between atoms: C_8  and  N_4 
REMARK    3  A    between atoms: C_5  and  C_6 
REMARK    4  A    between atoms: C_6  and  C_8 
REMARK    5  A    between atoms: C_8  and  C_13 
ROOT
HETATM    1  N   UNK N   1      34.444  11.529  12.652  0.00  0.00    -0.365 N 
HETATM    2  C   UNK N   1      35.448  13.525  12.916  0.00  0.00    -0.028 A 
HETATM    3  C   UNK N   1      35.352  12.922  14.141  0.00  0.00    -0.002 A 
HETATM    4  C   UNK N   1      34.742  11.719  13.949  0.00  0.00     0.042 A 
HETATM    5  C   UNK N   1      34.876  12.641  12.000  0.00  0.00     0.096 A 
HETATM    6  C   UNK N   1      35.761  13.355  15.399  0.00  0.00     0.014 A 
HETATM    7  C   UNK N   1      34.492  10.849  15.009  0.00  0.00     0.030 A 
HETATM    8  C   UNK N   1      35.525  12.503  16.493  0.00  0.00     0.001 A 
HETATM    9  C   UNK N   1      34.892  11.254  16.297  0.00  0.00     0.002 A 
HETATM   10  H   UNK N   1      34.003  10.743  12.255  0.00  0.00     0.165 HD
ENDROOT
BRANCH   2  11
HETATM   11  C   UNK N   1      36.063  14.876  12.695  0.00  0.00     0.076 C 
BRANCH  11  12
HETATM   12  C   UNK N   1      36.241  15.395  11.269  0.00  0.00     0.177 C 
BRANCH  12  13
HETATM   13  N   UNK N   1      37.356  14.970  10.439  0.00  0.00    -0.417 N 
HETATM   14  H   UNK N   1      37.323  15.109   9.429  0.00  0.00     0.150 HD
HETATM   15  H   UNK N   1      38.173  14.533  10.866  0.00  0.00     0.150 HD
ENDBRANCH  12  13
BRANCH  12  16
HETATM   16  C   UNK N   1      35.256  16.364  10.691  0.00  0.00     0.163 C 
HETATM   17  O   UNK N   1      35.620  17.482  10.362  0.00  0.00    -0.648 OA
BRANCH  16  18
HETATM   18  O   UNK N   1      33.966  16.010  10.532  0.00  0.00    -0.775 OA
HETATM   19  H   UNK N   1      33.285  16.558  10.870  0.00  0.00     0.167 HD
ENDBRANCH  16  18
ENDBRANCH  12  16
ENDBRANCH  11  12
ENDBRANCH   2  11
TORSDOF 5
ENDMDL
MODEL 9
REMARK VINA RESULT:      -5.5     22.453     24.814
REMARK  5 active torsions:
REMARK  status: ('A' for Active; 'I' for Inactive)
REMARK    1  A    between atoms: O_1  and  C_13 
REMARK    2  A    between atoms: C_8  and  N_4 
REMARK    3  A    between atoms: C_5  and  C_6 
REMARK    4  A    between atoms: C_6  and  C_8 
REMARK    5  A    between atoms: C_8  and  C_13 
ROOT
HETATM    1  N   UNK N   1      27.825  28.263  -7.186  0.00  0.00    -0.365 N 
HETATM    2  C   UNK N   1      26.267  27.041  -6.118  0.00  0.00    -0.028 A 
HETATM    3  C   UNK N   1      26.515  28.167  -5.382  0.00  0.00    -0.002 A 
HETATM    4  C   UNK N   1      27.460  28.885  -6.052  0.00  0.00     0.042 A 
HETATM    5  C   UNK N   1      27.093  27.118  -7.240  0.00  0.00     0.096 A 
HETATM    6  C   UNK N   1      25.971  28.600  -4.175  0.00  0.00     0.014 A 
HETATM    7  C   UNK N   1      27.938  30.099  -5.564  0.00  0.00     0.030 A 
HETATM    8  C   UNK N   1      26.431  29.822  -3.652  0.00  0.00     0.001 A 
HETATM    9  C   UNK N   1      27.411  30.569  -4.345  0.00  0.00     0.002 A 
HETATM   10  H   UNK N   1      28.488  28.573  -7.845  0.00  0.00     0.165 HD
ENDROOT
BRANCH   2  11
HETATM   11  C   UNK N   1      25.281  25.982  -5.720  0.00  0.00     0.076 C 
BRANCH  11  12
HETATM   12  C   UNK N   1      25.784  24.584  -5.363  0.00  0.00     0.177 C 
BRANCH  12  13
HETATM   13  N   UNK N   1      25.332  23.406  -6.087  0.00  0.00    -0.417 N 
HETATM   14  H   UNK N   1      24.578  22.833  -5.709  0.00  0.00     0.150 HD
HETATM   15  H   UNK N   1      25.770  23.153  -6.973  0.00  0.00     0.150 HD
ENDBRANCH  12  13
BRANCH  12  16
HETATM   16  C   UNK N   1      26.766  24.398  -4.248  0.00  0.00     0.163 C 
HETATM   17  O   UNK N   1      27.956  24.589  -4.443  0.00  0.00    -0.648 OA
BRANCH  16  18
HETATM   18  O   UNK N   1      26.344  24.020  -3.026  0.00  0.00    -0.775 OA
HETATM   19  H   UNK N   1      26.462  24.590  -2.293  0.00  0.00     0.167 HD
ENDBRANCH  16  18
ENDBRANCH  12  16
ENDBRANCH  11  12
ENDBRANCH   2  11
TORSDOF 5
ENDMDL
