MODEL 1
REMARK VINA RESULT:      -4.6      0.000      0.000
REMARK  6 active torsions:
REMARK  status: ('A' for Active; 'I' for Inactive)
REMARK    1  A    between atoms: O_1  and  C_8 
REMARK    2  A    between atoms: O_2  and  C_9 
REMARK    3  A    between atoms: C_6  and  N_5 
REMARK    4  A    between atoms: C_6  and  C_7 
REMARK    5  A    between atoms: C_6  and  C_8 
REMARK    6  A    between atoms: C_7  and  C_9 
ROOT
HETATM    1  C   UNK N   1      34.286  17.186   9.153  0.00  0.00     0.183 C 
ENDROOT
BRANCH   1   2
HETATM    2  N   UNK N   1      34.940  17.145  10.453  0.00  0.00    -0.417 N 
HETATM    3  H   UNK N   1      34.859  16.314  11.039  0.00  0.00     0.150 HD
HETATM    4  H   UNK N   1      35.480  17.947  10.778  0.00  0.00     0.150 HD
ENDBRANCH   1   2
BRANCH   1   5
HETATM    5  C   UNK N   1      33.211  16.162   8.760  0.00  0.00     0.145 C 
BRANCH   5   6
HETATM    6  C   UNK N   1      33.030  14.931   9.602  0.00  0.00     0.141 C 
HETATM    7  O   UNK N   1      32.901  13.825   9.104  0.00  0.00    -0.650 OA
BRANCH   6   8
HETATM    8  O   UNK N   1      33.011  15.061  10.941  0.00  0.00    -0.776 OA
HETATM    9  H   UNK N   1      33.814  15.147  11.415  0.00  0.00     0.167 HD
ENDBRANCH   6   8
ENDBRANCH   5   6
ENDBRANCH   1   5
BRANCH   1  10
HETATM   10  C   UNK N   1      34.688  18.261   8.192  0.00  0.00     0.163 C 
HETATM   11  O   UNK N   1      34.383  18.169   7.014  0.00  0.00    -0.648 OA
BRANCH  10  12
HETATM   12  O   UNK N   1      35.385  19.331   8.619  0.00  0.00    -0.775 OA
HETATM   13  H   UNK N   1      35.745  19.341   9.484  0.00  0.00     0.167 HD
ENDBRANCH  10  12
ENDBRANCH   1  10
TORSDOF 6
ENDMDL
MODEL 2
REMARK VINA RESULT:      -4.4     11.820     13.118
REMARK  6 active torsions:
REMARK  status: ('A' for Active; 'I' for Inactive)
REMARK    1  A    between atoms: O_1  and  C_8 
REMARK    2  A    between atoms: O_2  and  C_9 
REMARK    3  A    between atoms: C_6  and  N_5 
REMARK    4  A    between atoms: C_6  and  C_7 
REMARK    5  A    between atoms: C_6  and  C_8 
REMARK    6  A    between atoms: C_7  and  C_9 
ROOT
HETATM    1  C   UNK N   1      21.270  12.469  10.909  0.00  0.00     0.183 C 
ENDROOT
BRANCH   1   2
HETATM    2  N   UNK N   1      20.326  11.872  11.842  0.00  0.00    -0.417 N 
HETATM    3  H   UNK N   1      20.425  12.039  12.844  0.00  0.00     0.150 HD
HETATM    4  H   UNK N   1      19.566  11.287  11.496  0.00  0.00     0.150 HD
ENDBRANCH   1   2
BRANCH   1   5
HETATM    5  C   UNK N   1      22.714  11.963  10.788  0.00  0.00     0.145 C 
BRANCH   5   6
HETATM    6  C   UNK N   1      23.609  12.011  11.994  0.00  0.00     0.141 C 
HETATM    7  O   UNK N   1      23.171  11.881  13.125  0.00  0.00    -0.650 OA
BRANCH   6   8
HETATM    8  O   UNK N   1      24.928  12.204  11.813  0.00  0.00    -0.776 OA
HETATM    9  H   UNK N   1      25.230  12.912  11.279  0.00  0.00     0.167 HD
ENDBRANCH   6   8
ENDBRANCH   5   6
ENDBRANCH   1   5
BRANCH   1  10
HETATM   10  C   UNK N   1      20.797  13.605  10.054  0.00  0.00     0.163 C 
HETATM   11  O   UNK N   1      21.609  14.319   9.489  0.00  0.00    -0.648 OA
BRANCH  10  12
HETATM   12  O   UNK N   1      19.481  13.844   9.905  0.00  0.00    -0.775 OA
HETATM   13  H   UNK N   1      19.073  13.715   9.071  0.00  0.00     0.167 HD
ENDBRANCH  10  12
ENDBRANCH   1  10
TORSDOF 6
ENDMDL
MODEL 3
REMARK VINA RESULT:      -4.4      1.432      1.846
REMARK  6 active torsions:
REMARK  status: ('A' for Active; 'I' for Inactive)
REMARK    1  A    between atoms: O_1  and  C_8 
REMARK    2  A    between atoms: O_2  and  C_9 
REMARK    3  A    between atoms: C_6  and  N_5 
REMARK    4  A    between atoms: C_6  and  C_7 
REMARK    5  A    between atoms: C_6  and  C_8 
REMARK    6  A    between atoms: C_7  and  C_9 
ROOT
HETATM    1  C   UNK N   1      33.984  17.289   9.039  0.00  0.00     0.183 C 
ENDROOT
BRANCH   1   2
HETATM    2  N   UNK N   1      32.536  17.143   9.033  0.00  0.00    -0.417 N 
HETATM    3  H   UNK N   1      31.940  17.970   8.997  0.00  0.00     0.150 HD
HETATM    4  H   UNK N   1      32.117  16.213   9.065  0.00  0.00     0.150 HD
ENDBRANCH   1   2
BRANCH   1   5
HETATM    5  C   UNK N   1      34.873  16.473   9.988  0.00  0.00     0.145 C 
BRANCH   5   6
HETATM    6  C   UNK N   1      34.417  15.110  10.426  0.00  0.00     0.141 C 
HETATM    7  O   UNK N   1      35.037  14.101  10.136  0.00  0.00    -0.650 OA
BRANCH   6   8
HETATM    8  O   UNK N   1      33.292  15.009  11.159  0.00  0.00    -0.776 OA
HETATM    9  H   UNK N   1      33.302  14.540  11.970  0.00  0.00     0.167 HD
ENDBRANCH   6   8
ENDBRANCH   5   6
ENDBRANCH   1   5
BRANCH   1  10
HETATM   10  C   UNK N   1      34.600  18.267   8.087  0.00  0.00     0.163 C 
HETATM   11  O   UNK N   1      35.272  19.192   8.515  0.00  0.00    -0.648 OA
BRANCH  10  12
HETATM   12  O   UNK N   1      34.419  18.133   6.760  0.00  0.00    -0.775 OA
HETATM   13  H   UNK N   1      34.301  17.282   6.387  0.00  0.00     0.167 HD
ENDBRANCH  10  12
ENDBRANCH   1  10
TORSDOF 6
ENDMDL
MODEL 4
REMARK VINA RESULT:      -4.4      3.596      4.166
REMARK  6 active torsions:
REMARK  status: ('A' for Active; 'I' for Inactive)
REMARK    1  A    between atoms: O_1  and  C_8 
REMARK    2  A    between atoms: O_2  and  C_9 
REMARK    3  A    between atoms: C_6  and  N_5 
REMARK    4  A    between atoms: C_6  and  C_7 
REMARK    5  A    between atoms: C_6  and  C_8 
REMARK    6  A    between atoms: C_7  and  C_9 
ROOT
HETATM    1  C   UNK N   1      34.738  15.047  11.190  0.00  0.00     0.183 C 
ENDROOT
BRANCH   1   2
HETATM    2  N   UNK N   1      33.347  15.132  10.772  0.00  0.00    -0.417 N 
HETATM    3  H   UNK N   1      32.708  15.765  11.253  0.00  0.00     0.150 HD
HETATM    4  H   UNK N   1      33.011  14.559   9.998  0.00  0.00     0.150 HD
ENDBRANCH   1   2
BRANCH   1   5
HETATM    5  C   UNK N   1      35.288  13.810  11.915  0.00  0.00     0.145 C 
BRANCH   5   6
HETATM    6  C   UNK N   1      35.668  13.920  13.365  0.00  0.00     0.141 C 
HETATM    7  O   UNK N   1      34.953  13.482  14.251  0.00  0.00    -0.650 OA
BRANCH   6   8
HETATM    8  O   UNK N   1      36.828  14.520  13.685  0.00  0.00    -0.776 OA
HETATM    9  H   UNK N   1      37.497  14.623  13.037  0.00  0.00     0.167 HD
ENDBRANCH   6   8
ENDBRANCH   5   6
ENDBRANCH   1   5
BRANCH   1  10
HETATM   10  C   UNK N   1      35.638  16.207  10.896  0.00  0.00     0.163 C 
HETATM   11  O   UNK N   1      35.158  17.294  10.619  0.00  0.00    -0.648 OA
BRANCH  10  12
HETATM   12  O   UNK N   1      36.976  16.059  10.934  0.00  0.00    -0.775 OA
HETATM   13  H   UNK N   1      37.531  16.814  10.943  0.00  0.00     0.167 HD
ENDBRANCH  10  12
ENDBRANCH   1  10
TORSDOF 6
ENDMDL
MODEL 5
REMARK VINA RESULT:      -4.3     11.685     12.982
REMARK  6 active torsions:
REMARK  status: ('A' for Active; 'I' for Inactive)
REMARK    1  A    between atoms: O_1  and  C_8 
REMARK    2  A    between atoms: O_2  and  C_9 
REMARK    3  A    between atoms: C_6  and  N_5 
REMARK    4  A    between atoms: C_6  and  C_7 
REMARK    5  A    between atoms: C_6  and  C_8 
REMARK    6  A    between atoms: C_7  and  C_9 
ROOT
HETATM    1  C   UNK N   1      22.432  12.230  11.451  0.00  0.00     0.183 C 
ENDROOT
BRANCH   1   2
HETATM    2  N   UNK N   1      21.212  11.678  12.020  0.00  0.00    -0.417 N 
HETATM    3  H   UNK N   1      21.106  11.611  13.033  0.00  0.00     0.150 HD
HETATM    4  H   UNK N   1      20.462  11.359  11.407  0.00  0.00     0.150 HD
ENDBRANCH   1   2
BRANCH   1   5
HETATM    5  C   UNK N   1      22.449  12.885  10.062  0.00  0.00     0.145 C 
BRANCH   5   6
HETATM    6  C   UNK N   1      21.161  13.017   9.299  0.00  0.00     0.141 C 
HETATM    7  O   UNK N   1      21.047  12.609   8.156  0.00  0.00    -0.650 OA
BRANCH   6   8
HETATM    8  O   UNK N   1      20.110  13.602   9.902  0.00  0.00    -0.776 OA
HETATM    9  H   UNK N   1      19.244  13.466   9.572  0.00  0.00     0.167 HD
ENDBRANCH   6   8
ENDBRANCH   5   6
ENDBRANCH   1   5
BRANCH   1  10
HETATM   10  C   UNK N   1      23.691  12.146  12.257  0.00  0.00     0.163 C 
HETATM   11  O   UNK N   1      23.629  12.015  13.469  0.00  0.00    -0.648 OA
BRANCH  10  12
HETATM   12  O   UNK N   1      24.892  12.213  11.655  0.00  0.00    -0.775 OA
HETATM   13  H   UNK N   1      24.968  12.591  10.800  0.00  0.00     0.167 HD
ENDBRANCH  10  12
ENDBRANCH   1  10
TORSDOF 6
ENDMDL
MODEL 6
REMARK VINA RESULT:      -4.2     14.955     15.428
REMARK  6 active torsions:
REMARK  status: ('A' for Active; 'I' for Inactive)
REMARK    1  A    between atoms: O_1  and  C_8 
REMARK    2  A    between atoms: O_2  and  C_9 
REMARK    3  A    between atoms: C_6  and  N_5 
REMARK    4  A    between atoms: C_6  and  C_7 
REMARK    5  A    between atoms: C_6  and  C_8 
REMARK    6  A    between atoms: C_7  and  C_9 
ROOT
HETATM    1  C   UNK N   1      20.751  19.879   1.703  0.00  0.00     0.183 C 
ENDROOT
BRANCH   1   2
HETATM    2  N   UNK N   1      20.460  20.615   0.481  0.00  0.00    -0.417 N 
HETATM    3  H   UNK N   1      20.833  21.555   0.352  0.00  0.00     0.150 HD
HETATM    4  H   UNK N   1      19.884  20.190  -0.245  0.00  0.00     0.150 HD
ENDBRANCH   1   2
BRANCH   1   5
HETATM    5  C   UNK N   1      19.998  18.592   2.068  0.00  0.00     0.145 C 
BRANCH   5   6
HETATM    6  C   UNK N   1      20.014  17.438   1.106  0.00  0.00     0.141 C 
HETATM    7  O   UNK N   1      20.415  17.562  -0.039  0.00  0.00    -0.650 OA
BRANCH   6   8
HETATM    8  O   UNK N   1      19.572  16.239   1.527  0.00  0.00    -0.776 OA
HETATM    9  H   UNK N   1      19.648  16.002   2.431  0.00  0.00     0.167 HD
ENDBRANCH   6   8
ENDBRANCH   5   6
ENDBRANCH   1   5
BRANCH   1  10
HETATM   10  C   UNK N   1      21.817  20.410   2.612  0.00  0.00     0.163 C 
HETATM   11  O   UNK N   1      22.552  19.637   3.205  0.00  0.00    -0.648 OA
BRANCH  10  12
HETATM   12  O   UNK N   1      21.970  21.737   2.780  0.00  0.00    -0.775 OA
HETATM   13  H   UNK N   1      22.335  22.069   3.577  0.00  0.00     0.167 HD
ENDBRANCH  10  12
ENDBRANCH   1  10
TORSDOF 6
ENDMDL
MODEL 7
REMARK VINA RESULT:      -4.2     15.166     15.938
REMARK  6 active torsions:
REMARK  status: ('A' for Active; 'I' for Inactive)
REMARK    1  A    between atoms: O_1  and  C_8 
REMARK    2  A    between atoms: O_2  and  C_9 
REMARK    3  A    between atoms: C_6  and  N_5 
REMARK    4  A    between atoms: C_6  and  C_7 
REMARK    5  A    between atoms: C_6  and  C_8 
REMARK    6  A    between atoms: C_7  and  C_9 
ROOT
HETATM    1  C   UNK N   1      19.937  18.615   1.732  0.00  0.00     0.183 C 
ENDROOT
BRANCH   1   2
HETATM    2  N   UNK N   1      18.679  18.665   2.463  0.00  0.00    -0.417 N 
HETATM    3  H   UNK N   1      18.126  19.523   2.468  0.00  0.00     0.150 HD
HETATM    4  H   UNK N   1      18.350  17.844   2.970  0.00  0.00     0.150 HD
ENDBRANCH   1   2
BRANCH   1   5
HETATM    5  C   UNK N   1      20.856  19.841   1.624  0.00  0.00     0.145 C 
BRANCH   5   6
HETATM    6  C   UNK N   1      21.028  20.733   2.821  0.00  0.00     0.141 C 
HETATM    7  O   UNK N   1      20.342  20.605   3.821  0.00  0.00    -0.650 OA
BRANCH   6   8
HETATM    8  O   UNK N   1      21.967  21.696   2.780  0.00  0.00    -0.776 OA
HETATM    9  H   UNK N   1      21.813  22.518   3.201  0.00  0.00     0.167 HD
ENDBRANCH   6   8
ENDBRANCH   5   6
ENDBRANCH   1   5
BRANCH   1  10
HETATM   10  C   UNK N   1      20.324  17.325   1.077  0.00  0.00     0.163 C 
HETATM   11  O   UNK N   1      20.608  16.356   1.762  0.00  0.00    -0.648 OA
BRANCH  10  12
HETATM   12  O   UNK N   1      20.362  17.227  -0.265  0.00  0.00    -0.775 OA
HETATM   13  H   UNK N   1      19.584  17.371  -0.767  0.00  0.00     0.167 HD
ENDBRANCH  10  12
ENDBRANCH   1  10
TORSDOF 6
ENDMDL
MODEL 8
REMARK VINA RESULT:      -4.2     15.268     16.159
REMARK  6 active torsions:
REMARK  status: ('A' for Active; 'I' for Inactive)
REMARK    1  A    between atoms: O_1  and  C_8 
REMARK    2  A    between atoms: O_2  and  C_9 
REMARK    3  A    between atoms: C_6  and  N_5 
REMARK    4  A    between atoms: C_6  and  C_7 
REMARK    5  A    between atoms: C_6  and  C_8 
REMARK    6  A    between atoms: C_7  and  C_9 
ROOT
HETATM    1  C   UNK N   1      20.231  18.766   2.095  0.00  0.00     0.183 C 
ENDROOT
BRANCH   1   2
HETATM    2  N   UNK N   1      20.093  18.137   0.790  0.00  0.00    -0.417 N 
HETATM    3  H   UNK N   1      19.269  17.573   0.581  0.00  0.00     0.150 HD
HETATM    4  H   UNK N   1      20.820  18.259   0.085  0.00  0.00     0.150 HD
ENDBRANCH   1   2
BRANCH   1   5
HETATM    5  C   UNK N   1      20.499  20.272   2.239  0.00  0.00     0.145 C 
BRANCH   5   6
HETATM    6  C   UNK N   1      20.717  21.097   1.003  0.00  0.00     0.141 C 
HETATM    7  O   UNK N   1      21.166  20.612  -0.022  0.00  0.00    -0.650 OA
BRANCH   6   8
HETATM    8  O   UNK N   1      20.407  22.406   1.037  0.00  0.00    -0.776 OA
HETATM    9  H   UNK N   1      19.954  22.762   1.776  0.00  0.00     0.167 HD
ENDBRANCH   6   8
ENDBRANCH   5   6
ENDBRANCH   1   5
BRANCH   1  10
HETATM   10  C   UNK N   1      20.107  17.905   3.314  0.00  0.00     0.163 C 
HETATM   11  O   UNK N   1      21.050  17.794   4.080  0.00  0.00    -0.648 OA
BRANCH  10  12
HETATM   12  O   UNK N   1      18.959  17.250   3.571  0.00  0.00    -0.775 OA
HETATM   13  H   UNK N   1      18.276  17.231   2.929  0.00  0.00     0.167 HD
ENDBRANCH  10  12
ENDBRANCH   1  10
TORSDOF 6
ENDMDL
MODEL 9
REMARK VINA RESULT:      -4.1      2.318      2.413
REMARK  6 active torsions:
REMARK  status: ('A' for Active; 'I' for Inactive)
REMARK    1  A    between atoms: O_1  and  C_8 
REMARK    2  A    between atoms: O_2  and  C_9 
REMARK    3  A    between atoms: C_6  and  N_5 
REMARK    4  A    between atoms: C_6  and  C_7 
REMARK    5  A    between atoms: C_6  and  C_8 
REMARK    6  A    between atoms: C_7  and  C_9 
ROOT
HETATM    1  C   UNK N   1      33.273  17.610   8.643  0.00  0.00     0.183 C 
ENDROOT
BRANCH   1   2
HETATM    2  N   UNK N   1      33.579  16.522   9.560  0.00  0.00    -0.417 N 
HETATM    3  H   UNK N   1      34.543  16.350   9.844  0.00  0.00     0.150 HD
HETATM    4  H   UNK N   1      32.829  15.930   9.918  0.00  0.00     0.150 HD
ENDBRANCH   1   2
BRANCH   1   5
HETATM    5  C   UNK N   1      31.838  18.123   8.451  0.00  0.00     0.145 C 
BRANCH   5   6
HETATM    6  C   UNK N   1      30.690  17.174   8.646  0.00  0.00     0.141 C 
HETATM    7  O   UNK N   1      29.891  16.941   7.754  0.00  0.00    -0.650 OA
BRANCH   6   8
HETATM    8  O   UNK N   1      30.546  16.570   9.839  0.00  0.00    -0.776 OA
HETATM    9  H   UNK N   1      29.695  16.484  10.221  0.00  0.00     0.167 HD
ENDBRANCH   6   8
ENDBRANCH   5   6
ENDBRANCH   1   5
BRANCH   1  10
HETATM   10  C   UNK N   1      34.402  18.230   7.879  0.00  0.00     0.163 C 
HETATM   11  O   UNK N   1      34.592  17.917   6.715  0.00  0.00    -0.648 OA
BRANCH  10  12
HETATM   12  O   UNK N   1      35.210  19.131   8.467  0.00  0.00    -0.775 OA
HETATM   13  H   UNK N   1      35.740  19.698   7.943  0.00  0.00     0.167 HD
ENDBRANCH  10  12
ENDBRANCH   1  10
TORSDOF 6
ENDMDL
