MODEL 1
REMARK VINA RESULT:      -5.1      0.000      0.000
REMARK  7 active torsions:
REMARK  status: ('A' for Active; 'I' for Inactive)
REMARK    1  A    between atoms: O_1  and  C_11 
REMARK    2  A    between atoms: N_4  and  C_10 
REMARK       I    between atoms: N_4  and  C_12 
REMARK    3  A    between atoms: C_9  and  N_5 
REMARK       I    between atoms: N_6  and  C_12 
REMARK    4  A    between atoms: C_7  and  C_8 
REMARK    5  A    between atoms: C_7  and  C_9 
REMARK    6  A    between atoms: C_8  and  C_10 
REMARK    7  A    between atoms: C_9  and  C_11 
ROOT
HETATM    1  C   UNK N   1      32.772  16.416   8.133  0.00  0.00     0.037 C 
ENDROOT
BRANCH   1   2
HETATM    2  C   UNK N   1      31.393  16.855   7.667  0.00  0.00     0.022 C 
BRANCH   2   3
HETATM    3  C   UNK N   1      30.615  17.314   8.883  0.00  0.00     0.124 C 
BRANCH   3   4
HETATM    4  N   UNK N   1      29.620  18.294   8.520  0.00  0.00    -0.343 N 
HETATM    5  C   UNK N   1      28.337  18.173   8.941  0.00  0.00     0.313 C 
HETATM    6  O   UNK N   1      27.990  17.219   9.618  0.00  0.00    -0.248 OA
HETATM    7  N   UNK N   1      27.435  19.117   8.608  0.00  0.00    -0.352 N 
HETATM    8  H   UNK N   1      27.710  19.895   8.070  0.00  0.00     0.160 HD
HETATM    9  H   UNK N   1      26.499  19.030   8.903  0.00  0.00     0.160 HD
HETATM   10  H   UNK N   1      29.877  19.060   7.958  0.00  0.00     0.164 HD
ENDBRANCH   3   4
ENDBRANCH   2   3
ENDBRANCH   1   2
BRANCH   1  11
HETATM   11  C   UNK N   1      33.506  17.518   8.888  0.00  0.00     0.173 C 
BRANCH  11  12
HETATM   12  N   UNK N   1      34.224  16.956  10.024  0.00  0.00    -0.418 N 
HETATM   13  H   UNK N   1      33.915  16.141  10.552  0.00  0.00     0.150 HD
HETATM   14  H   UNK N   1      35.093  17.408  10.308  0.00  0.00     0.150 HD
ENDBRANCH  11  12
BRANCH  11  15
HETATM   15  C   UNK N   1      34.456  18.249   7.975  0.00  0.00     0.163 C 
HETATM   16  O   UNK N   1      34.532  17.947   6.794  0.00  0.00    -0.648 OA
BRANCH  15  17
HETATM   17  O   UNK N   1      35.277  19.200   8.467  0.00  0.00    -0.775 OA
HETATM   18  H   UNK N   1      36.005  19.500   7.959  0.00  0.00     0.167 HD
ENDBRANCH  15  17
ENDBRANCH  11  15
ENDBRANCH   1  11
TORSDOF 7
ENDMDL
MODEL 2
REMARK VINA RESULT:      -4.9     10.555     11.222
REMARK  7 active torsions:
REMARK  status: ('A' for Active; 'I' for Inactive)
REMARK    1  A    between atoms: O_1  and  C_11 
REMARK    2  A    between atoms: N_4  and  C_10 
REMARK       I    between atoms: N_4  and  C_12 
REMARK    3  A    between atoms: C_9  and  N_5 
REMARK       I    between atoms: N_6  and  C_12 
REMARK    4  A    between atoms: C_7  and  C_8 
REMARK    5  A    between atoms: C_7  and  C_9 
REMARK    6  A    between atoms: C_8  and  C_10 
REMARK    7  A    between atoms: C_9  and  C_11 
ROOT
HETATM    1  C   UNK N   1      22.899  11.439   9.865  0.00  0.00     0.037 C 
ENDROOT
BRANCH   1   2
HETATM    2  C   UNK N   1      22.964  12.303   8.616  0.00  0.00     0.022 C 
BRANCH   2   3
HETATM    3  C   UNK N   1      21.544  12.558   8.153  0.00  0.00     0.124 C 
BRANCH   3   4
HETATM    4  N   UNK N   1      21.249  13.970   8.147  0.00  0.00    -0.343 N 
HETATM    5  C   UNK N   1      20.342  14.496   9.007  0.00  0.00     0.313 C 
HETATM    6  O   UNK N   1      19.738  13.782   9.790  0.00  0.00    -0.248 OA
HETATM    7  N   UNK N   1      20.104  15.823   8.996  0.00  0.00    -0.352 N 
HETATM    8  H   UNK N   1      20.595  16.406   8.373  0.00  0.00     0.160 HD
HETATM    9  H   UNK N   1      19.440  16.209   9.612  0.00  0.00     0.160 HD
HETATM   10  H   UNK N   1      21.711  14.560   7.509  0.00  0.00     0.164 HD
ENDBRANCH   3   4
ENDBRANCH   2   3
ENDBRANCH   1   2
BRANCH   1  11
HETATM   11  C   UNK N   1      22.626  12.257  11.122  0.00  0.00     0.173 C 
BRANCH  11  12
HETATM   12  N   UNK N   1      21.375  11.833  11.735  0.00  0.00    -0.418 N 
HETATM   13  H   UNK N   1      21.301  11.101  12.442  0.00  0.00     0.150 HD
HETATM   14  H   UNK N   1      20.517  12.298  11.437  0.00  0.00     0.150 HD
ENDBRANCH  11  12
BRANCH  11  15
HETATM   15  C   UNK N   1      23.763  12.125  12.103  0.00  0.00     0.163 C 
HETATM   16  O   UNK N   1      23.535  11.943  13.289  0.00  0.00    -0.648 OA
BRANCH  15  17
HETATM   17  O   UNK N   1      25.038  12.269  11.689  0.00  0.00    -0.775 OA
HETATM   18  H   UNK N   1      25.737  12.261  12.313  0.00  0.00     0.167 HD
ENDBRANCH  15  17
ENDBRANCH  11  15
ENDBRANCH   1  11
TORSDOF 7
ENDMDL
MODEL 3
REMARK VINA RESULT:      -4.8     12.473     13.618
REMARK  7 active torsions:
REMARK  status: ('A' for Active; 'I' for Inactive)
REMARK    1  A    between atoms: O_1  and  C_11 
REMARK    2  A    between atoms: N_4  and  C_10 
REMARK       I    between atoms: N_4  and  C_12 
REMARK    3  A    between atoms: C_9  and  N_5 
REMARK       I    between atoms: N_6  and  C_12 
REMARK    4  A    between atoms: C_7  and  C_8 
REMARK    5  A    between atoms: C_7  and  C_9 
REMARK    6  A    between atoms: C_8  and  C_10 
REMARK    7  A    between atoms: C_9  and  C_11 
ROOT
HETATM    1  C   UNK N   1      21.301  18.595   3.333  0.00  0.00     0.037 C 
ENDROOT
BRANCH   1   2
HETATM    2  C   UNK N   1      20.600  17.255   3.498  0.00  0.00     0.022 C 
BRANCH   2   3
HETATM    3  C   UNK N   1      20.920  16.410   2.282  0.00  0.00     0.124 C 
BRANCH   3   4
HETATM    4  N   UNK N   1      19.715  16.029   1.586  0.00  0.00    -0.343 N 
HETATM    5  C   UNK N   1      19.490  16.431   0.310  0.00  0.00     0.313 C 
HETATM    6  O   UNK N   1      20.294  17.144  -0.269  0.00  0.00    -0.248 OA
HETATM    7  N   UNK N   1      18.368  16.039  -0.324  0.00  0.00    -0.352 N 
HETATM    8  H   UNK N   1      17.720  15.456   0.135  0.00  0.00     0.160 HD
HETATM    9  H   UNK N   1      18.195  16.335  -1.247  0.00  0.00     0.160 HD
HETATM   10  H   UNK N   1      19.046  15.471   2.044  0.00  0.00     0.164 HD
ENDBRANCH   3   4
ENDBRANCH   2   3
ENDBRANCH   1   2
BRANCH   1  11
HETATM   11  C   UNK N   1      20.690  19.433   2.216  0.00  0.00     0.173 C 
BRANCH  11  12
HETATM   12  N   UNK N   1      19.245  19.511   2.379  0.00  0.00    -0.418 N 
HETATM   13  H   UNK N   1      18.571  19.132   1.715  0.00  0.00     0.150 HD
HETATM   14  H   UNK N   1      18.885  19.976   3.213  0.00  0.00     0.150 HD
ENDBRANCH  11  12
BRANCH  11  15
HETATM   15  C   UNK N   1      21.293  20.815   2.195  0.00  0.00     0.163 C 
HETATM   16  O   UNK N   1      22.270  21.071   2.883  0.00  0.00    -0.648 OA
BRANCH  15  17
HETATM   17  O   UNK N   1      20.721  21.795   1.468  0.00  0.00    -0.775 OA
HETATM   18  H   UNK N   1      21.013  21.962   0.593  0.00  0.00     0.167 HD
ENDBRANCH  15  17
ENDBRANCH  11  15
ENDBRANCH   1  11
TORSDOF 7
ENDMDL
MODEL 4
REMARK VINA RESULT:      -4.8      3.834      6.211
REMARK  7 active torsions:
REMARK  status: ('A' for Active; 'I' for Inactive)
REMARK    1  A    between atoms: O_1  and  C_11 
REMARK    2  A    between atoms: N_4  and  C_10 
REMARK       I    between atoms: N_4  and  C_12 
REMARK    3  A    between atoms: C_9  and  N_5 
REMARK       I    between atoms: N_6  and  C_12 
REMARK    4  A    between atoms: C_7  and  C_8 
REMARK    5  A    between atoms: C_7  and  C_9 
REMARK    6  A    between atoms: C_8  and  C_10 
REMARK    7  A    between atoms: C_9  and  C_11 
ROOT
HETATM    1  C   UNK N   1      35.229  16.144   9.198  0.00  0.00     0.037 C 
ENDROOT
BRANCH   1   2
HETATM    2  C   UNK N   1      35.091  16.354  10.697  0.00  0.00     0.022 C 
BRANCH   2   3
HETATM    3  C   UNK N   1      35.276  15.010  11.373  0.00  0.00     0.124 C 
BRANCH   3   4
HETATM    4  N   UNK N   1      36.254  15.095  12.431  0.00  0.00    -0.343 N 
HETATM    5  C   UNK N   1      36.106  14.383  13.575  0.00  0.00     0.313 C 
HETATM    6  O   UNK N   1      35.130  13.671  13.745  0.00  0.00    -0.248 OA
HETATM    7  N   UNK N   1      37.049  14.461  14.535  0.00  0.00    -0.352 N 
HETATM    8  H   UNK N   1      37.844  15.026  14.400  0.00  0.00     0.160 HD
HETATM    9  H   UNK N   1      36.943  13.953  15.372  0.00  0.00     0.160 HD
HETATM   10  H   UNK N   1      37.039  15.679  12.320  0.00  0.00     0.164 HD
ENDBRANCH   3   4
ENDBRANCH   2   3
ENDBRANCH   1   2
BRANCH   1  11
HETATM   11  C   UNK N   1      34.046  16.712   8.422  0.00  0.00     0.173 C 
BRANCH  11  12
HETATM   12  N   UNK N   1      32.939  16.988   9.328  0.00  0.00    -0.418 N 
HETATM   13  H   UNK N   1      32.552  16.311   9.985  0.00  0.00     0.150 HD
HETATM   14  H   UNK N   1      32.525  17.920   9.302  0.00  0.00     0.150 HD
ENDBRANCH  11  12
BRANCH  11  15
HETATM   15  C   UNK N   1      34.444  17.962   7.681  0.00  0.00     0.163 C 
HETATM   16  O   UNK N   1      34.343  18.016   6.465  0.00  0.00    -0.648 OA
BRANCH  15  17
HETATM   17  O   UNK N   1      34.973  19.008   8.347  0.00  0.00    -0.775 OA
HETATM   18  H   UNK N   1      34.550  19.339   9.114  0.00  0.00     0.167 HD
ENDBRANCH  15  17
ENDBRANCH  11  15
ENDBRANCH   1  11
TORSDOF 7
ENDMDL
MODEL 5
REMARK VINA RESULT:      -4.7     11.154     12.517
REMARK  7 active torsions:
REMARK  status: ('A' for Active; 'I' for Inactive)
REMARK    1  A    between atoms: O_1  and  C_11 
REMARK    2  A    between atoms: N_4  and  C_10 
REMARK       I    between atoms: N_4  and  C_12 
REMARK    3  A    between atoms: C_9  and  N_5 
REMARK       I    between atoms: N_6  and  C_12 
REMARK    4  A    between atoms: C_7  and  C_8 
REMARK    5  A    between atoms: C_7  and  C_9 
REMARK    6  A    between atoms: C_8  and  C_10 
REMARK    7  A    between atoms: C_9  and  C_11 
ROOT
HETATM    1  C   UNK N   1      21.405  19.036   3.251  0.00  0.00     0.037 C 
ENDROOT
BRANCH   1   2
HETATM    2  C   UNK N   1      20.747  18.126   4.277  0.00  0.00     0.022 C 
BRANCH   2   3
HETATM    3  C   UNK N   1      21.650  18.067   5.492  0.00  0.00     0.124 C 
BRANCH   3   4
HETATM    4  N   UNK N   1      21.118  17.169   6.487  0.00  0.00    -0.343 N 
HETATM    5  C   UNK N   1      20.572  17.644   7.634  0.00  0.00     0.313 C 
HETATM    6  O   UNK N   1      20.539  18.843   7.859  0.00  0.00    -0.248 OA
HETATM    7  N   UNK N   1      20.059  16.783   8.535  0.00  0.00    -0.352 N 
HETATM    8  H   UNK N   1      20.074  15.815   8.355  0.00  0.00     0.160 HD
HETATM    9  H   UNK N   1      19.669  17.121   9.374  0.00  0.00     0.160 HD
HETATM   10  H   UNK N   1      21.153  16.197   6.333  0.00  0.00     0.164 HD
ENDBRANCH   3   4
ENDBRANCH   2   3
ENDBRANCH   1   2
BRANCH   1  11
HETATM   11  C   UNK N   1      20.582  19.156   1.973  0.00  0.00     0.173 C 
BRANCH  11  12
HETATM   12  N   UNK N   1      19.160  19.113   2.286  0.00  0.00    -0.418 N 
HETATM   13  H   UNK N   1      18.512  18.419   1.915  0.00  0.00     0.150 HD
HETATM   14  H   UNK N   1      18.790  19.824   2.916  0.00  0.00     0.150 HD
ENDBRANCH  11  12
BRANCH  11  15
HETATM   15  C   UNK N   1      20.920  20.429   1.239  0.00  0.00     0.163 C 
HETATM   16  O   UNK N   1      21.448  21.359   1.829  0.00  0.00    -0.648 OA
BRANCH  15  17
HETATM   17  O   UNK N   1      20.586  20.574  -0.060  0.00  0.00    -0.775 OA
HETATM   18  H   UNK N   1      19.936  21.200  -0.309  0.00  0.00     0.167 HD
ENDBRANCH  15  17
ENDBRANCH  11  15
ENDBRANCH   1  11
TORSDOF 7
ENDMDL
MODEL 6
REMARK VINA RESULT:      -4.6      2.607      3.115
REMARK  7 active torsions:
REMARK  status: ('A' for Active; 'I' for Inactive)
REMARK    1  A    between atoms: O_1  and  C_11 
REMARK    2  A    between atoms: N_4  and  C_10 
REMARK       I    between atoms: N_4  and  C_12 
REMARK    3  A    between atoms: C_9  and  N_5 
REMARK       I    between atoms: N_6  and  C_12 
REMARK    4  A    between atoms: C_7  and  C_8 
REMARK    5  A    between atoms: C_7  and  C_9 
REMARK    6  A    between atoms: C_8  and  C_10 
REMARK    7  A    between atoms: C_9  and  C_11 
ROOT
HETATM    1  C   UNK N   1      32.796  16.516   8.339  0.00  0.00     0.037 C 
ENDROOT
BRANCH   1   2
HETATM    2  C   UNK N   1      31.487  17.287   8.402  0.00  0.00     0.022 C 
BRANCH   2   3
HETATM    3  C   UNK N   1      30.725  17.013   7.121  0.00  0.00     0.124 C 
BRANCH   3   4
HETATM    4  N   UNK N   1      31.572  17.198   5.967  0.00  0.00    -0.343 N 
HETATM    5  C   UNK N   1      31.045  17.529   4.762  0.00  0.00     0.313 C 
HETATM    6  O   UNK N   1      29.839  17.656   4.622  0.00  0.00    -0.248 OA
HETATM    7  N   UNK N   1      31.862  17.720   3.708  0.00  0.00    -0.352 N 
HETATM    8  H   UNK N   1      32.837  17.629   3.816  0.00  0.00     0.160 HD
HETATM    9  H   UNK N   1      31.485  17.952   2.828  0.00  0.00     0.160 HD
HETATM   10  H   UNK N   1      32.545  17.080   6.056  0.00  0.00     0.164 HD
ENDBRANCH   3   4
ENDBRANCH   2   3
ENDBRANCH   1   2
BRANCH   1  11
HETATM   11  C   UNK N   1      33.943  17.268   9.005  0.00  0.00     0.173 C 
BRANCH  11  12
HETATM   12  N   UNK N   1      34.950  16.329   9.479  0.00  0.00    -0.418 N 
HETATM   13  H   UNK N   1      34.761  15.560  10.123  0.00  0.00     0.150 HD
HETATM   14  H   UNK N   1      35.907  16.448   9.146  0.00  0.00     0.150 HD
ENDBRANCH  11  12
BRANCH  11  15
HETATM   15  C   UNK N   1      34.557  18.259   8.049  0.00  0.00     0.163 C 
HETATM   16  O   UNK N   1      34.427  18.114   6.843  0.00  0.00    -0.648 OA
BRANCH  15  17
HETATM   17  O   UNK N   1      35.308  19.277   8.515  0.00  0.00    -0.775 OA
HETATM   18  H   UNK N   1      35.060  19.722   9.301  0.00  0.00     0.167 HD
ENDBRANCH  15  17
ENDBRANCH  11  15
ENDBRANCH   1  11
TORSDOF 7
ENDMDL
MODEL 7
REMARK VINA RESULT:      -4.6      5.691      7.805
REMARK  7 active torsions:
REMARK  status: ('A' for Active; 'I' for Inactive)
REMARK    1  A    between atoms: O_1  and  C_11 
REMARK    2  A    between atoms: N_4  and  C_10 
REMARK       I    between atoms: N_4  and  C_12 
REMARK    3  A    between atoms: C_9  and  N_5 
REMARK       I    between atoms: N_6  and  C_12 
REMARK    4  A    between atoms: C_7  and  C_8 
REMARK    5  A    between atoms: C_7  and  C_9 
REMARK    6  A    between atoms: C_8  and  C_10 
REMARK    7  A    between atoms: C_9  and  C_11 
ROOT
HETATM    1  C   UNK N   1      35.000  14.203  12.065  0.00  0.00     0.037 C 
ENDROOT
BRANCH   1   2
HETATM    2  C   UNK N   1      35.717  12.882  11.834  0.00  0.00     0.022 C 
BRANCH   2   3
HETATM    3  C   UNK N   1      36.547  12.583  13.065  0.00  0.00     0.124 C 
BRANCH   3   4
HETATM    4  N   UNK N   1      36.992  13.801  13.697  0.00  0.00    -0.343 N 
HETATM    5  C   UNK N   1      36.907  13.961  15.041  0.00  0.00     0.313 C 
HETATM    6  O   UNK N   1      36.430  13.085  15.744  0.00  0.00    -0.248 OA
HETATM    7  N   UNK N   1      37.355  15.100  15.606  0.00  0.00    -0.352 N 
HETATM    8  H   UNK N   1      37.750  15.806  15.045  0.00  0.00     0.160 HD
HETATM    9  H   UNK N   1      37.287  15.225  16.580  0.00  0.00     0.160 HD
HETATM   10  H   UNK N   1      37.362  14.527  13.144  0.00  0.00     0.164 HD
ENDBRANCH   3   4
ENDBRANCH   2   3
ENDBRANCH   1   2
BRANCH   1  11
HETATM   11  C   UNK N   1      34.729  14.950  10.764  0.00  0.00     0.173 C 
BRANCH  11  12
HETATM   12  N   UNK N   1      33.314  15.277  10.658  0.00  0.00    -0.418 N 
HETATM   13  H   UNK N   1      32.560  14.678  10.992  0.00  0.00     0.150 HD
HETATM   14  H   UNK N   1      33.062  16.163  10.220  0.00  0.00     0.150 HD
ENDBRANCH  11  12
BRANCH  11  15
HETATM   15  C   UNK N   1      35.566  16.202  10.683  0.00  0.00     0.163 C 
HETATM   16  O   UNK N   1      35.054  17.266  10.370  0.00  0.00    -0.648 OA
BRANCH  15  17
HETATM   17  O   UNK N   1      36.896  16.145  10.894  0.00  0.00    -0.775 OA
HETATM   18  H   UNK N   1      37.232  15.740  11.669  0.00  0.00     0.167 HD
ENDBRANCH  15  17
ENDBRANCH  11  15
ENDBRANCH   1  11
TORSDOF 7
ENDMDL
MODEL 8
REMARK VINA RESULT:      -4.5      3.392      4.638
REMARK  7 active torsions:
REMARK  status: ('A' for Active; 'I' for Inactive)
REMARK    1  A    between atoms: O_1  and  C_11 
REMARK    2  A    between atoms: N_4  and  C_10 
REMARK       I    between atoms: N_4  and  C_12 
REMARK    3  A    between atoms: C_9  and  N_5 
REMARK       I    between atoms: N_6  and  C_12 
REMARK    4  A    between atoms: C_7  and  C_8 
REMARK    5  A    between atoms: C_7  and  C_9 
REMARK    6  A    between atoms: C_8  and  C_10 
REMARK    7  A    between atoms: C_9  and  C_11 
ROOT
HETATM    1  C   UNK N   1      33.753  14.712   9.501  0.00  0.00     0.037 C 
ENDROOT
BRANCH   1   2
HETATM    2  C   UNK N   1      32.354  15.228   9.203  0.00  0.00     0.022 C 
BRANCH   2   3
HETATM    3  C   UNK N   1      32.484  16.402   8.254  0.00  0.00     0.124 C 
BRANCH   3   4
HETATM    4  N   UNK N   1      33.326  17.430   8.817  0.00  0.00    -0.343 N 
HETATM    5  C   UNK N   1      34.255  18.062   8.059  0.00  0.00     0.313 C 
HETATM    6  O   UNK N   1      34.416  17.759   6.888  0.00  0.00    -0.248 OA
HETATM    7  N   UNK N   1      35.010  19.037   8.604  0.00  0.00    -0.352 N 
HETATM    8  H   UNK N   1      34.878  19.293   9.546  0.00  0.00     0.160 HD
HETATM    9  H   UNK N   1      35.693  19.493   8.061  0.00  0.00     0.160 HD
HETATM   10  H   UNK N   1      33.224  17.675   9.765  0.00  0.00     0.164 HD
ENDBRANCH   3   4
ENDBRANCH   2   3
ENDBRANCH   1   2
BRANCH   1  11
HETATM   11  C   UNK N   1      34.116  14.844  10.975  0.00  0.00     0.173 C 
BRANCH  11  12
HETATM   12  N   UNK N   1      34.456  13.539  11.527  0.00  0.00    -0.418 N 
HETATM   13  H   UNK N   1      33.897  12.696  11.394  0.00  0.00     0.150 HD
HETATM   14  H   UNK N   1      35.308  13.465  12.082  0.00  0.00     0.150 HD
ENDBRANCH  11  12
BRANCH  11  15
HETATM   15  C   UNK N   1      35.260  15.807  11.160  0.00  0.00     0.163 C 
HETATM   16  O   UNK N   1      36.398  15.390  11.312  0.00  0.00    -0.648 OA
BRANCH  15  17
HETATM   17  O   UNK N   1      35.029  17.134  11.221  0.00  0.00    -0.775 OA
HETATM   18  H   UNK N   1      35.331  17.695  10.534  0.00  0.00     0.167 HD
ENDBRANCH  15  17
ENDBRANCH  11  15
ENDBRANCH   1  11
TORSDOF 7
ENDMDL
MODEL 9
REMARK VINA RESULT:      -4.4      1.693      5.439
REMARK  7 active torsions:
REMARK  status: ('A' for Active; 'I' for Inactive)
REMARK    1  A    between atoms: O_1  and  C_11 
REMARK    2  A    between atoms: N_4  and  C_10 
REMARK       I    between atoms: N_4  and  C_12 
REMARK    3  A    between atoms: C_9  and  N_5 
REMARK       I    between atoms: N_6  and  C_12 
REMARK    4  A    between atoms: C_7  and  C_8 
REMARK    5  A    between atoms: C_7  and  C_9 
REMARK    6  A    between atoms: C_8  and  C_10 
REMARK    7  A    between atoms: C_9  and  C_11 
ROOT
HETATM    1  C   UNK N   1      29.596  17.203   7.106  0.00  0.00     0.037 C 
ENDROOT
BRANCH   1   2
HETATM    2  C   UNK N   1      31.116  17.248   7.107  0.00  0.00     0.022 C 
BRANCH   2   3
HETATM    3  C   UNK N   1      31.613  16.154   8.031  0.00  0.00     0.124 C 
BRANCH   3   4
HETATM    4  N   UNK N   1      32.433  16.701   9.084  0.00  0.00    -0.343 N 
HETATM    5  C   UNK N   1      33.785  16.608   9.034  0.00  0.00     0.313 C 
HETATM    6  O   UNK N   1      34.337  16.039   8.107  0.00  0.00    -0.248 OA
HETATM    7  N   UNK N   1      34.528  17.150  10.020  0.00  0.00    -0.352 N 
HETATM    8  H   UNK N   1      34.089  17.619  10.766  0.00  0.00     0.160 HD
HETATM    9  H   UNK N   1      35.509  17.078   9.993  0.00  0.00     0.160 HD
HETATM   10  H   UNK N   1      32.005  17.146   9.851  0.00  0.00     0.164 HD
ENDBRANCH   3   4
ENDBRANCH   2   3
ENDBRANCH   1   2
BRANCH   1  11
HETATM   11  C   UNK N   1      28.983  18.344   7.907  0.00  0.00     0.173 C 
BRANCH  11  12
HETATM   12  N   UNK N   1      27.689  18.712   7.348  0.00  0.00    -0.418 N 
HETATM   13  H   UNK N   1      27.524  18.901   6.360  0.00  0.00     0.150 HD
HETATM   14  H   UNK N   1      26.898  18.784   7.988  0.00  0.00     0.150 HD
ENDBRANCH  11  12
BRANCH  11  15
HETATM   15  C   UNK N   1      28.839  17.961   9.358  0.00  0.00     0.163 C 
HETATM   16  O   UNK N   1      27.825  17.403   9.750  0.00  0.00    -0.648 OA
BRANCH  15  17
HETATM   17  O   UNK N   1      29.800  18.287  10.246  0.00  0.00    -0.775 OA
HETATM   18  H   UNK N   1      30.489  18.871   9.998  0.00  0.00     0.167 HD
ENDBRANCH  15  17
ENDBRANCH  11  15
ENDBRANCH   1  11
TORSDOF 7
ENDMDL
