MODEL 1
REMARK VINA RESULT:      -3.5      0.000      0.000
REMARK  3 active torsions:
REMARK  status: ('A' for Active; 'I' for Inactive)
REMARK    1  A    between atoms: O_1  and  C_5 
REMARK    2  A    between atoms: N_3  and  C_4 
REMARK    3  A    between atoms: C_4  and  C_5 
ROOT
HETATM    1  C   UNK N   1      34.307  17.091   9.053  0.00  0.00     0.222 C 
ENDROOT
BRANCH   1   2
HETATM    2  N   UNK N   1      34.935  17.236  10.358  0.00  0.00    -0.422 N 
HETATM    3  H   UNK N   1      34.358  17.379  11.187  0.00  0.00     0.150 HD
HETATM    4  H   UNK N   1      35.950  17.196  10.444  0.00  0.00     0.150 HD
ENDBRANCH   1   2
BRANCH   1   5
HETATM    5  C   UNK N   1      34.678  18.212   8.125  0.00  0.00     0.157 C 
HETATM    6  O   UNK N   1      34.388  18.168   6.938  0.00  0.00    -0.649 OA
BRANCH   5   7
HETATM    7  O   UNK N   1      35.339  19.279   8.608  0.00  0.00    -0.775 OA
HETATM    8  H   UNK N   1      35.894  19.188   9.357  0.00  0.00     0.167 HD
ENDBRANCH   5   7
ENDBRANCH   1   5
TORSDOF 3
ENDMDL
MODEL 2
REMARK VINA RESULT:      -3.5     15.377     15.653
REMARK  3 active torsions:
REMARK  status: ('A' for Active; 'I' for Inactive)
REMARK    1  A    between atoms: O_1  and  C_5 
REMARK    2  A    between atoms: N_3  and  C_4 
REMARK    3  A    between atoms: C_4  and  C_5 
ROOT
HETATM    1  C   UNK N   1      20.735  20.046   1.499  0.00  0.00     0.222 C 
ENDROOT
BRANCH   1   2
HETATM    2  N   UNK N   1      20.486  20.933   0.372  0.00  0.00    -0.422 N 
HETATM    3  H   UNK N   1      20.466  20.558  -0.577  0.00  0.00     0.150 HD
HETATM    4  H   UNK N   1      20.332  21.929   0.530  0.00  0.00     0.150 HD
ENDBRANCH   1   2
BRANCH   1   5
HETATM    5  C   UNK N   1      21.014  20.810   2.761  0.00  0.00     0.157 C 
HETATM    6  O   UNK N   1      20.351  20.619   3.771  0.00  0.00    -0.649 OA
BRANCH   5   7
HETATM    7  O   UNK N   1      22.008  21.716   2.781  0.00  0.00    -0.775 OA
HETATM    8  H   UNK N   1      22.883  21.448   2.983  0.00  0.00     0.167 HD
ENDBRANCH   5   7
ENDBRANCH   1   5
TORSDOF 3
ENDMDL
MODEL 3
REMARK VINA RESULT:      -3.2     15.897     16.171
REMARK  3 active torsions:
REMARK  status: ('A' for Active; 'I' for Inactive)
REMARK    1  A    between atoms: O_1  and  C_5 
REMARK    2  A    between atoms: N_3  and  C_4 
REMARK    3  A    between atoms: C_4  and  C_5 
ROOT
HETATM    1  C   UNK N   1      20.352  19.019   2.304  0.00  0.00     0.222 C 
ENDROOT
BRANCH   1   2
HETATM    2  N   UNK N   1      18.910  18.817   2.276  0.00  0.00    -0.422 N 
HETATM    3  H   UNK N   1      18.390  18.738   3.150  0.00  0.00     0.150 HD
HETATM    4  H   UNK N   1      18.420  18.755   1.384  0.00  0.00     0.150 HD
ENDBRANCH   1   2
BRANCH   1   5
HETATM    5  C   UNK N   1      20.775  20.154   1.416  0.00  0.00     0.157 C 
HETATM    6  O   UNK N   1      21.237  21.182   1.887  0.00  0.00    -0.649 OA
BRANCH   5   7
HETATM    7  O   UNK N   1      20.643  20.035   0.082  0.00  0.00    -0.775 OA
HETATM    8  H   UNK N   1      20.068  20.608  -0.385  0.00  0.00     0.167 HD
ENDBRANCH   5   7
ENDBRANCH   1   5
TORSDOF 3
ENDMDL
MODEL 4
REMARK VINA RESULT:      -3.1      3.146      3.553
REMARK  3 active torsions:
REMARK  status: ('A' for Active; 'I' for Inactive)
REMARK    1  A    between atoms: O_1  and  C_5 
REMARK    2  A    between atoms: N_3  and  C_4 
REMARK    3  A    between atoms: C_4  and  C_5 
ROOT
HETATM    1  C   UNK N   1      34.830  15.022  11.357  0.00  0.00     0.222 C 
ENDROOT
BRANCH   1   2
HETATM    2  N   UNK N   1      33.482  15.096  10.814  0.00  0.00    -0.422 N 
HETATM    3  H   UNK N   1      33.327  15.497   9.888  0.00  0.00     0.150 HD
HETATM    4  H   UNK N   1      32.692  14.747  11.357  0.00  0.00     0.150 HD
ENDBRANCH   1   2
BRANCH   1   5
HETATM    5  C   UNK N   1      35.670  16.193  10.933  0.00  0.00     0.157 C 
HETATM    6  O   UNK N   1      35.155  17.261  10.638  0.00  0.00    -0.649 OA
BRANCH   5   7
HETATM    7  O   UNK N   1      37.008  16.062  10.878  0.00  0.00    -0.775 OA
HETATM    8  H   UNK N   1      37.556  16.633  11.379  0.00  0.00     0.167 HD
ENDBRANCH   5   7
ENDBRANCH   1   5
TORSDOF 3
ENDMDL
MODEL 5
REMARK VINA RESULT:      -3.0     13.035     13.391
REMARK  3 active torsions:
REMARK  status: ('A' for Active; 'I' for Inactive)
REMARK    1  A    between atoms: O_1  and  C_5 
REMARK    2  A    between atoms: N_3  and  C_4 
REMARK    3  A    between atoms: C_4  and  C_5 
ROOT
HETATM    1  C   UNK N   1      22.514  12.077  11.535  0.00  0.00     0.222 C 
ENDROOT
BRANCH   1   2
HETATM    2  N   UNK N   1      22.727  11.229  10.371  0.00  0.00    -0.422 N 
HETATM    3  H   UNK N   1      23.560  10.643  10.315  0.00  0.00     0.150 HD
HETATM    4  H   UNK N   1      22.045  11.220   9.613  0.00  0.00     0.150 HD
ENDBRANCH   1   2
BRANCH   1   5
HETATM    5  C   UNK N   1      23.727  12.134  12.417  0.00  0.00     0.157 C 
HETATM    6  O   UNK N   1      23.623  12.083  13.634  0.00  0.00    -0.649 OA
BRANCH   5   7
HETATM    7  O   UNK N   1      24.947  12.241  11.859  0.00  0.00    -0.775 OA
HETATM    8  H   UNK N   1      25.609  11.608  12.055  0.00  0.00     0.167 HD
ENDBRANCH   5   7
ENDBRANCH   1   5
TORSDOF 3
ENDMDL
MODEL 6
REMARK VINA RESULT:      -3.0     12.693     13.107
REMARK  3 active torsions:
REMARK  status: ('A' for Active; 'I' for Inactive)
REMARK    1  A    between atoms: O_1  and  C_5 
REMARK    2  A    between atoms: N_3  and  C_4 
REMARK    3  A    between atoms: C_4  and  C_5 
ROOT
HETATM    1  C   UNK N   1      24.301  11.918  10.980  0.00  0.00     0.222 C 
ENDROOT
BRANCH   1   2
HETATM    2  N   UNK N   1      25.263  13.010  11.022  0.00  0.00    -0.422 N 
HETATM    3  H   UNK N   1      25.547  13.472  10.158  0.00  0.00     0.150 HD
HETATM    4  H   UNK N   1      25.653  13.313  11.914  0.00  0.00     0.150 HD
ENDBRANCH   1   2
BRANCH   1   5
HETATM    5  C   UNK N   1      23.367  11.949  12.155  0.00  0.00     0.157 C 
HETATM    6  O   UNK N   1      23.792  12.087  13.293  0.00  0.00    -0.649 OA
BRANCH   5   7
HETATM    7  O   UNK N   1      22.043  11.824  11.951  0.00  0.00    -0.775 OA
HETATM    8  H   UNK N   1      21.442  12.005  12.647  0.00  0.00     0.167 HD
ENDBRANCH   5   7
ENDBRANCH   1   5
TORSDOF 3
ENDMDL
MODEL 7
REMARK VINA RESULT:      -2.9     11.549     11.857
REMARK  3 active torsions:
REMARK  status: ('A' for Active; 'I' for Inactive)
REMARK    1  A    between atoms: O_1  and  C_5 
REMARK    2  A    between atoms: N_3  and  C_4 
REMARK    3  A    between atoms: C_4  and  C_5 
ROOT
HETATM    1  C   UNK N   1      43.657  22.813   3.347  0.00  0.00     0.222 C 
ENDROOT
BRANCH   1   2
HETATM    2  N   UNK N   1      43.582  23.959   4.240  0.00  0.00    -0.422 N 
HETATM    3  H   UNK N   1      43.256  24.859   3.887  0.00  0.00     0.150 HD
HETATM    4  H   UNK N   1      43.855  23.863   5.218  0.00  0.00     0.150 HD
ENDBRANCH   1   2
BRANCH   1   5
HETATM    5  C   UNK N   1      44.728  21.846   3.765  0.00  0.00     0.157 C 
HETATM    6  O   UNK N   1      44.566  20.640   3.650  0.00  0.00    -0.649 OA
BRANCH   5   7
HETATM    7  O   UNK N   1      45.881  22.316   4.275  0.00  0.00    -0.775 OA
HETATM    8  H   UNK N   1      46.695  21.914   4.041  0.00  0.00     0.167 HD
ENDBRANCH   5   7
ENDBRANCH   1   5
TORSDOF 3
ENDMDL
MODEL 8
REMARK VINA RESULT:      -2.8     11.324     11.401
REMARK  3 active torsions:
REMARK  status: ('A' for Active; 'I' for Inactive)
REMARK    1  A    between atoms: O_1  and  C_5 
REMARK    2  A    between atoms: N_3  and  C_4 
REMARK    3  A    between atoms: C_4  and  C_5 
ROOT
HETATM    1  C   UNK N   1      42.826  22.500   2.777  0.00  0.00     0.222 C 
ENDROOT
BRANCH   1   2
HETATM    2  N   UNK N   1      41.982  23.565   2.254  0.00  0.00    -0.422 N 
HETATM    3  H   UNK N   1      42.194  23.984   1.348  0.00  0.00     0.150 HD
HETATM    4  H   UNK N   1      41.181  23.893   2.792  0.00  0.00     0.150 HD
ENDBRANCH   1   2
BRANCH   1   5
HETATM    5  C   UNK N   1      43.653  22.962   3.942  0.00  0.00     0.157 C 
HETATM    6  O   UNK N   1      44.432  22.203   4.500  0.00  0.00    -0.649 OA
BRANCH   5   7
HETATM    7  O   UNK N   1      43.534  24.230   4.376  0.00  0.00    -0.775 OA
HETATM    8  H   UNK N   1      44.290  24.695   4.677  0.00  0.00     0.167 HD
ENDBRANCH   5   7
ENDBRANCH   1   5
TORSDOF 3
ENDMDL
MODEL 9
REMARK VINA RESULT:      -2.8     12.314     12.600
REMARK  3 active torsions:
REMARK  status: ('A' for Active; 'I' for Inactive)
REMARK    1  A    between atoms: O_1  and  C_5 
REMARK    2  A    between atoms: N_3  and  C_4 
REMARK    3  A    between atoms: C_4  and  C_5 
ROOT
HETATM    1  C   UNK N   1      22.865  11.828  10.954  0.00  0.00     0.222 C 
ENDROOT
BRANCH   1   2
HETATM    2  N   UNK N   1      22.636  11.671  12.383  0.00  0.00    -0.422 N 
HETATM    3  H   UNK N   1      23.404  11.810  13.040  0.00  0.00     0.150 HD
HETATM    4  H   UNK N   1      21.709  11.423  12.727  0.00  0.00     0.150 HD
ENDBRANCH   1   2
BRANCH   1   5
HETATM    5  C   UNK N   1      24.278  12.239  10.655  0.00  0.00     0.157 C 
HETATM    6  O   UNK N   1      24.646  12.433   9.505  0.00  0.00    -0.649 OA
BRANCH   5   7
HETATM    7  O   UNK N   1      25.150  12.395  11.667  0.00  0.00    -0.775 OA
HETATM    8  H   UNK N   1      25.448  11.649  12.148  0.00  0.00     0.167 HD
ENDBRANCH   5   7
ENDBRANCH   1   5
TORSDOF 3
ENDMDL
