REMARK  9 active torsions:
REMARK  status: ('A' for Active; 'I' for Inactive)
REMARK    1  A    between atoms: N_18  and  C_19 
REMARK    2  A    between atoms: C_19  and  C_20 
REMARK    3  A    between atoms: C_20  and  C_21 
REMARK    4  A    between atoms: C_20  and  O_22 
REMARK    5  A    between atoms: C_21  and  C_23 
REMARK    6  A    between atoms: C_21  and  O_24 
REMARK    7  A    between atoms: C_23  and  C_25 
REMARK    8  A    between atoms: C_23  and  O_26 
REMARK    9  A    between atoms: C_25  and  O_27 
ROOT
HETATM    1  C   UNK N   1       1.508   0.111  -0.020  0.00  0.00     0.145 A 
HETATM    2  C   UNK N   1       1.579  -1.296   0.019  0.00  0.00     0.146 A 
HETATM    3  C   UNK N   1      -0.868  -0.020   0.043  0.00  0.00     0.063 A 
HETATM    4  C   UNK N   1      -0.770  -1.435   0.070  0.00  0.00     0.060 A 
HETATM    5  C   UNK N   1      -2.153   0.544   0.077  0.00  0.00     0.039 A 
HETATM    6  C   UNK N   1      -1.919  -2.230   0.107  0.00  0.00     0.039 A 
HETATM    7  C   UNK N   1      -3.185  -1.645   0.124  0.00  0.00    -0.054 A 
HETATM    8  C   UNK N   1      -3.303  -0.247   0.114  0.00  0.00    -0.054 A 
HETATM    9  C   UNK N   1       3.890   0.210  -0.059  0.00  0.00     0.328 A 
HETATM   10  N   UNK N   1       0.443  -2.030   0.057  0.00  0.00    -0.347 N 
ATOM     11  HN  UNK N   1       0.503  -3.048   0.076  1.00  0.00     0.166 HD
HETATM   12  N   UNK N   1       2.668   0.829  -0.060  0.00  0.00    -0.292 N 
ATOM     13  HN  UNK N   1       2.624   1.848  -0.091  1.00  0.00     0.172 HD
HETATM   14  C   UNK N   1       2.832  -1.918   0.017  0.00  0.00     0.280 A 
HETATM   15  O   UNK N   1       2.920  -3.133   0.049  0.00  0.00    -0.265 OA
HETATM   16  O   UNK N   1       4.908   0.876  -0.090  0.00  0.00    -0.247 OA
HETATM   17  N   UNK N   1       3.968  -1.156  -0.021  0.00  0.00    -0.273 N 
HETATM   18  N   UNK N   1       0.289   0.750  -0.016  0.00  0.00    -0.327 N 
HETATM   19  C   UNK N   1      -4.636   0.421   0.133  0.00  0.00     0.049 C 
HETATM   20  C   UNK N   1      -4.390  -2.524   0.152  0.00  0.00     0.049 C 
HETATM   21  H   UNK N   1       4.849  -1.594  -0.021  0.00  0.00     0.173 HD
ENDROOT
BRANCH  18  22
HETATM   22  C   UNK N   1       0.338   2.238  -0.076  0.00  0.00     0.165 C 
BRANCH  22  23
HETATM   23  C   UNK N   1      -0.967   3.033  -0.163  0.00  0.00     0.167 C 
BRANCH  23  24
HETATM   24  C   UNK N   1      -0.743   4.547  -0.079  0.00  0.00     0.179 C 
BRANCH  24  25
HETATM   25  C   UNK N   1      -2.029   5.293   0.300  0.00  0.00     0.173 C 
BRANCH  25  26
HETATM   26  C   UNK N   1      -1.884   6.764  -0.054  0.00  0.00     0.198 C 
BRANCH  26  27
HETATM   27  O   UNK N   1      -3.050   7.456   0.276  0.00  0.00    -0.398 OA
HETATM   28  H   UNK N   1      -3.039   8.399   0.505  0.00  0.00     0.209 HD
ENDBRANCH  26  27
ENDBRANCH  25  26
BRANCH  25  29
HETATM   29  O   UNK N   1      -3.146   4.769  -0.356  0.00  0.00    -0.391 OA
HETATM   30  H   UNK N   1      -3.849   5.259  -0.812  0.00  0.00     0.210 HD
ENDBRANCH  25  29
ENDBRANCH  24  25
BRANCH  24  31
HETATM   31  O   UNK N   1       0.254   4.866   0.847  0.00  0.00    -0.390 OA
HETATM   32  H   UNK N   1       0.792   4.378   1.490  0.00  0.00     0.210 HD
ENDBRANCH  24  31
ENDBRANCH  23  24
BRANCH  23  33
HETATM   33  O   UNK N   1      -1.583   2.768  -1.389  0.00  0.00    -0.391 OA
HETATM   34  H   UNK N   1      -1.955   3.046  -2.241  0.00  0.00     0.210 HD
ENDBRANCH  23  33
ENDBRANCH  22  23
ENDBRANCH  18  22
TORSDOF 9
