REMARK  12 active torsions:
REMARK  status: ('A' for Active; 'I' for Inactive)
REMARK    1  A    between atoms: C_1  and  C_2 
REMARK    2  A    between atoms: C_5  and  C_6 
REMARK    3  A    between atoms: C_7  and  C_9 
REMARK    4  A    between atoms: C_10  and  C_11 
REMARK    5  A    between atoms: C_12  and  C_14 
REMARK    6  A    between atoms: C_15  and  C_16 
REMARK    7  A    between atoms: C_17  and  C_18 
REMARK    8  A    between atoms: C_20  and  C_21 
REMARK    9  A    between atoms: C_22  and  C_23 
REMARK   10  A    between atoms: C_26  and  C_25 
REMARK   11  A    between atoms: C_39  and  O_40 
REMARK   12  A    between atoms: C_41  and  O_42 
ROOT
HETATM    1  C   UNK N   1       0.102  -1.317   0.257  0.00  0.00     0.001 C 
HETATM    2  C   UNK N   1       0.595  -0.147  -0.140  0.00  0.00     0.001 C 
ENDROOT
BRANCH   1   3
HETATM    3  C   UNK N   1      -1.344  -1.623   0.171  0.00  0.00     0.007 C 
HETATM    4  C   UNK N   1      -2.341  -0.726   0.067  0.00  0.00    -0.062 C 
HETATM    5  C   UNK N   1      -2.080   0.753   0.118  0.00  0.00     0.048 C 
BRANCH   4   6
HETATM    6  C   UNK N   1      -3.715  -1.253  -0.076  0.00  0.00     0.007 C 
HETATM    7  C   UNK N   1      -4.819  -0.536  -0.330  0.00  0.00     0.001 C 
BRANCH   7   8
HETATM    8  C   UNK N   1      -4.840   0.921  -0.578  0.00  0.00     0.007 C 
HETATM    9  C   UNK N   1      -5.954   1.674  -0.630  0.00  0.00    -0.062 C 
HETATM   10  C   UNK N   1      -5.795   3.132  -0.887  0.00  0.00     0.048 C 
BRANCH   9  11
HETATM   11  C   UNK N   1      -7.330   1.158  -0.412  0.00  0.00     0.007 C 
HETATM   12  C   UNK N   1      -7.599  -0.130  -0.186  0.00  0.00     0.009 C 
BRANCH  12  13
HETATM   13  C   UNK N   1      -8.958  -0.677   0.073  0.00  0.00    -0.048 C 
HETATM   14  C   UNK N   1      -9.087  -2.025   0.218  0.00  0.00    -0.074 C 
HETATM   15  C   UNK N   1     -10.429  -2.672   0.441  0.00  0.00     0.066 C 
HETATM   16  C   UNK N   1      -7.899  -2.933   0.143  0.00  0.00     0.044 C 
HETATM   17  C   UNK N   1     -11.560  -1.821  -0.107  0.00  0.00     0.123 C 
HETATM   18  C   UNK N   1     -11.465  -0.460   0.548  0.00  0.00     0.045 C 
HETATM   19  C   UNK N   1     -10.171   0.258   0.151  0.00  0.00    -0.018 C 
HETATM   20  C   UNK N   1     -10.384   0.932  -1.195  0.00  0.00     0.020 C 
HETATM   21  C   UNK N   1      -9.943   1.332   1.202  0.00  0.00     0.020 C 
BRANCH  17  22
HETATM   22  O   UNK N   1     -12.780  -2.411   0.219  0.00  0.00    -0.395 OA
HETATM   23  H   UNK N   1     -13.560  -1.881   0.446  0.00  0.00     0.210 HD
ENDBRANCH  17  22
ENDBRANCH  12  13
ENDBRANCH   9  11
ENDBRANCH   7   8
ENDBRANCH   4   6
ENDBRANCH   1   3
BRANCH   2  24
HETATM   24  C   UNK N   1       2.028   0.129  -0.085  0.00  0.00     0.007 C 
HETATM   25  C   UNK N   1       2.548   1.289  -0.510  0.00  0.00    -0.062 C 
HETATM   26  C   UNK N   1       1.668   2.371  -1.056  0.00  0.00     0.048 C 
BRANCH  25  27
HETATM   27  C   UNK N   1       4.004   1.549  -0.462  0.00  0.00     0.007 C 
HETATM   28  C   UNK N   1       4.962   0.690  -0.081  0.00  0.00     0.001 C 
BRANCH  28  29
HETATM   29  C   UNK N   1       4.732  -0.709   0.340  0.00  0.00     0.007 C 
HETATM   30  C   UNK N   1       5.693  -1.543   0.781  0.00  0.00    -0.062 C 
HETATM   31  C   UNK N   1       5.289  -2.920   1.178  0.00  0.00     0.048 C 
BRANCH  30  32
HETATM   32  C   UNK N   1       7.128  -1.177   0.920  0.00  0.00     0.003 C 
HETATM   33  C   UNK N   1       7.616  -0.001   0.522  0.00  0.00    -0.016 C 
BRANCH  33  34
HETATM   34  C   UNK N   1       9.052   0.414   0.691  0.00  0.00     0.044 C 
HETATM   35  C   UNK N   1       9.208   1.874   0.285  0.00  0.00    -0.077 C 
HETATM   36  C   UNK N   1      10.291   2.318  -0.370  0.00  0.00     0.007 C 
HETATM   37  C   UNK N   1       8.175   2.877   0.690  0.00  0.00     0.044 C 
HETATM   38  C   UNK N   1      11.456   1.437  -0.738  0.00  0.00     0.142 C 
HETATM   39  C   UNK N   1      11.438   0.101   0.010  0.00  0.00     0.045 C 
HETATM   40  C   UNK N   1      10.053  -0.534  -0.022  0.00  0.00    -0.035 C 
HETATM   41  C   UNK N   1       9.655  -0.808  -1.472  0.00  0.00     0.016 C 
HETATM   42  C   UNK N   1      10.131  -1.861   0.710  0.00  0.00     0.016 C 
BRANCH  38  43
HETATM   43  O   UNK N   1      12.646   2.101  -0.446  0.00  0.00    -0.392 OA
HETATM   44  H   UNK N   1      13.460   1.615  -0.244  0.00  0.00     0.210 HD
ENDBRANCH  38  43
ENDBRANCH  33  34
ENDBRANCH  30  32
ENDBRANCH  28  29
ENDBRANCH  25  27
ENDBRANCH   2  24
TORSDOF 12
