MODEL 1
REMARK VINA RESULT:      -4.6      0.000      0.000
REMARK  7 active torsions:
REMARK  status: ('A' for Active; 'I' for Inactive)
REMARK    1  A    between atoms: O_1  and  C_9 
REMARK    2  A    between atoms: O_2  and  C_10 
REMARK    3  A    between atoms: C_7  and  N_5 
REMARK    4  A    between atoms: C_6  and  C_7 
REMARK    5  A    between atoms: C_6  and  C_8 
REMARK    6  A    between atoms: C_7  and  C_9 
REMARK    7  A    between atoms: C_8  and  C_10 
ROOT
HETATM    1  C   UNK N   1      34.004  17.082   8.780  0.00  0.00     0.173 C 
ENDROOT
BRANCH   1   2
HETATM    2  N   UNK N   1      32.600  17.097   9.167  0.00  0.00    -0.418 N 
HETATM    3  H   UNK N   1      32.178  17.954   9.523  0.00  0.00     0.150 HD
HETATM    4  H   UNK N   1      32.038  16.249   9.082  0.00  0.00     0.150 HD
ENDBRANCH   1   2
BRANCH   1   5
HETATM    5  C   UNK N   1      34.930  15.964   9.229  0.00  0.00     0.046 C 
BRANCH   5   6
HETATM    6  C   UNK N   1      35.293  15.957  10.705  0.00  0.00     0.112 C 
BRANCH   6   7
HETATM    7  C   UNK N   1      34.450  14.952  11.444  0.00  0.00     0.139 C 
HETATM    8  O   UNK N   1      34.933  14.251  12.323  0.00  0.00    -0.650 OA
BRANCH   7   9
HETATM    9  O   UNK N   1      33.147  14.821  11.137  0.00  0.00    -0.776 OA
HETATM   10  H   UNK N   1      32.492  15.067  11.760  0.00  0.00     0.167 HD
ENDBRANCH   7   9
ENDBRANCH   6   7
ENDBRANCH   5   6
ENDBRANCH   1   5
BRANCH   1  11
HETATM   11  C   UNK N   1      34.538  18.188   7.925  0.00  0.00     0.163 C 
HETATM   12  O   UNK N   1      34.361  18.185   6.722  0.00  0.00    -0.648 OA
BRANCH  11  13
HETATM   13  O   UNK N   1      35.225  19.198   8.500  0.00  0.00    -0.775 OA
HETATM   14  H   UNK N   1      34.825  20.039   8.600  0.00  0.00     0.167 HD
ENDBRANCH  11  13
ENDBRANCH   1  11
TORSDOF 7
ENDMDL
MODEL 2
REMARK VINA RESULT:      -4.6      1.957      4.220
REMARK  7 active torsions:
REMARK  status: ('A' for Active; 'I' for Inactive)
REMARK    1  A    between atoms: O_1  and  C_9 
REMARK    2  A    between atoms: O_2  and  C_10 
REMARK    3  A    between atoms: C_7  and  N_5 
REMARK    4  A    between atoms: C_6  and  C_7 
REMARK    5  A    between atoms: C_6  and  C_8 
REMARK    6  A    between atoms: C_7  and  C_9 
REMARK    7  A    between atoms: C_8  and  C_10 
ROOT
HETATM    1  C   UNK N   1      34.567  15.779  10.140  0.00  0.00     0.173 C 
ENDROOT
BRANCH   1   2
HETATM    2  N   UNK N   1      33.829  14.993  11.120  0.00  0.00    -0.418 N 
HETATM    3  H   UNK N   1      34.120  14.992  12.098  0.00  0.00     0.150 HD
HETATM    4  H   UNK N   1      33.020  14.443  10.829  0.00  0.00     0.150 HD
ENDBRANCH   1   2
BRANCH   1   5
HETATM    5  C   UNK N   1      34.106  15.861   8.694  0.00  0.00     0.046 C 
BRANCH   5   6
HETATM    6  C   UNK N   1      33.316  17.104   8.319  0.00  0.00     0.112 C 
BRANCH   6   7
HETATM    7  C   UNK N   1      34.196  18.078   7.581  0.00  0.00     0.139 C 
HETATM    8  O   UNK N   1      34.313  18.023   6.365  0.00  0.00    -0.650 OA
BRANCH   7   9
HETATM    9  O   UNK N   1      34.865  19.022   8.267  0.00  0.00    -0.776 OA
HETATM   10  H   UNK N   1      34.970  18.941   9.194  0.00  0.00     0.167 HD
ENDBRANCH   7   9
ENDBRANCH   6   7
ENDBRANCH   5   6
ENDBRANCH   1   5
BRANCH   1  11
HETATM   11  C   UNK N   1      35.796  16.515  10.570  0.00  0.00     0.163 C 
HETATM   12  O   UNK N   1      35.817  17.730  10.594  0.00  0.00    -0.648 OA
BRANCH  11  13
HETATM   13  O   UNK N   1      36.894  15.817  10.934  0.00  0.00    -0.775 OA
HETATM   14  H   UNK N   1      36.875  15.283  11.703  0.00  0.00     0.167 HD
ENDBRANCH  11  13
ENDBRANCH   1  11
TORSDOF 7
ENDMDL
MODEL 3
REMARK VINA RESULT:      -4.5      1.674      1.953
REMARK  7 active torsions:
REMARK  status: ('A' for Active; 'I' for Inactive)
REMARK    1  A    between atoms: O_1  and  C_9 
REMARK    2  A    between atoms: O_2  and  C_10 
REMARK    3  A    between atoms: C_7  and  N_5 
REMARK    4  A    between atoms: C_6  and  C_7 
REMARK    5  A    between atoms: C_6  and  C_8 
REMARK    6  A    between atoms: C_7  and  C_9 
REMARK    7  A    between atoms: C_8  and  C_10 
ROOT
HETATM    1  C   UNK N   1      33.544  17.067   8.512  0.00  0.00     0.173 C 
ENDROOT
BRANCH   1   2
HETATM    2  N   UNK N   1      32.185  17.353   8.952  0.00  0.00    -0.418 N 
HETATM    3  H   UNK N   1      31.925  18.300   9.226  0.00  0.00     0.150 HD
HETATM    4  H   UNK N   1      31.492  16.604   8.985  0.00  0.00     0.150 HD
ENDBRANCH   1   2
BRANCH   1   5
HETATM    5  C   UNK N   1      34.222  15.753   8.862  0.00  0.00     0.046 C 
BRANCH   5   6
HETATM    6  C   UNK N   1      34.631  15.584  10.317  0.00  0.00     0.112 C 
BRANCH   6   7
HETATM    7  C   UNK N   1      35.860  16.402  10.610  0.00  0.00     0.139 C 
HETATM    8  O   UNK N   1      35.802  17.622  10.675  0.00  0.00    -0.650 OA
BRANCH   7   9
HETATM    9  O   UNK N   1      37.040  15.786  10.805  0.00  0.00    -0.776 OA
HETATM   10  H   UNK N   1      37.663  15.737  10.107  0.00  0.00     0.167 HD
ENDBRANCH   7   9
ENDBRANCH   6   7
ENDBRANCH   5   6
ENDBRANCH   1   5
BRANCH   1  11
HETATM   11  C   UNK N   1      34.280  18.088   7.703  0.00  0.00     0.163 C 
HETATM   12  O   UNK N   1      34.302  18.022   6.489  0.00  0.00    -0.648 OA
BRANCH  11  13
HETATM   13  O   UNK N   1      34.927  19.093   8.332  0.00  0.00    -0.775 OA
HETATM   14  H   UNK N   1      34.919  19.141   9.268  0.00  0.00     0.167 HD
ENDBRANCH  11  13
ENDBRANCH   1  11
TORSDOF 7
ENDMDL
MODEL 4
REMARK VINA RESULT:      -4.4      2.749      3.353
REMARK  7 active torsions:
REMARK  status: ('A' for Active; 'I' for Inactive)
REMARK    1  A    between atoms: O_1  and  C_9 
REMARK    2  A    between atoms: O_2  and  C_10 
REMARK    3  A    between atoms: C_7  and  N_5 
REMARK    4  A    between atoms: C_6  and  C_7 
REMARK    5  A    between atoms: C_6  and  C_8 
REMARK    6  A    between atoms: C_7  and  C_9 
REMARK    7  A    between atoms: C_8  and  C_10 
ROOT
HETATM    1  C   UNK N   1      34.484  17.080   9.075  0.00  0.00     0.173 C 
ENDROOT
BRANCH   1   2
HETATM    2  N   UNK N   1      34.918  17.147  10.464  0.00  0.00    -0.418 N 
HETATM    3  H   UNK N   1      34.236  17.311  11.204  0.00  0.00     0.150 HD
HETATM    4  H   UNK N   1      35.905  17.029  10.696  0.00  0.00     0.150 HD
ENDBRANCH   1   2
BRANCH   1   5
HETATM    5  C   UNK N   1      33.787  15.845   8.530  0.00  0.00     0.046 C 
BRANCH   5   6
HETATM    6  C   UNK N   1      32.351  15.637   8.985  0.00  0.00     0.112 C 
BRANCH   6   7
HETATM    7  C   UNK N   1      31.486  16.776   8.513  0.00  0.00     0.139 C 
HETATM    8  O   UNK N   1      31.469  17.106   7.335  0.00  0.00    -0.650 OA
BRANCH   7   9
HETATM    9  O   UNK N   1      30.719  17.440   9.396  0.00  0.00    -0.776 OA
HETATM   10  H   UNK N   1      30.409  17.006  10.166  0.00  0.00     0.167 HD
ENDBRANCH   7   9
ENDBRANCH   6   7
ENDBRANCH   5   6
ENDBRANCH   1   5
BRANCH   1  11
HETATM   11  C   UNK N   1      34.731  18.250   8.175  0.00  0.00     0.163 C 
HETATM   12  O   UNK N   1      35.305  19.240   8.585  0.00  0.00    -0.648 OA
BRANCH  11  13
HETATM   13  O   UNK N   1      34.309  18.201   6.893  0.00  0.00    -0.775 OA
HETATM   14  H   UNK N   1      34.045  18.986   6.457  0.00  0.00     0.167 HD
ENDBRANCH  11  13
ENDBRANCH   1  11
TORSDOF 7
ENDMDL
MODEL 5
REMARK VINA RESULT:      -4.3     14.179     15.068
REMARK  7 active torsions:
REMARK  status: ('A' for Active; 'I' for Inactive)
REMARK    1  A    between atoms: O_1  and  C_9 
REMARK    2  A    between atoms: O_2  and  C_10 
REMARK    3  A    between atoms: C_7  and  N_5 
REMARK    4  A    between atoms: C_6  and  C_7 
REMARK    5  A    between atoms: C_6  and  C_8 
REMARK    6  A    between atoms: C_7  and  C_9 
REMARK    7  A    between atoms: C_8  and  C_10 
ROOT
HETATM    1  C   UNK N   1      20.215  19.459   2.504  0.00  0.00     0.173 C 
ENDROOT
BRANCH   1   2
HETATM    2  N   UNK N   1      19.007  18.674   2.285  0.00  0.00    -0.418 N 
HETATM    3  H   UNK N   1      18.815  18.280   1.365  0.00  0.00     0.150 HD
HETATM    4  H   UNK N   1      18.354  18.518   3.054  0.00  0.00     0.150 HD
ENDBRANCH   1   2
BRANCH   1   5
HETATM    5  C   UNK N   1      20.934  19.436   3.843  0.00  0.00     0.046 C 
BRANCH   5   6
HETATM    6  C   UNK N   1      20.933  18.103   4.574  0.00  0.00     0.112 C 
BRANCH   6   7
HETATM    7  C   UNK N   1      21.639  18.235   5.897  0.00  0.00     0.139 C 
HETATM    8  O   UNK N   1      21.067  18.705   6.871  0.00  0.00    -0.650 OA
BRANCH   7   9
HETATM    9  O   UNK N   1      22.917  17.831   6.013  0.00  0.00    -0.776 OA
HETATM   10  H   UNK N   1      23.470  17.806   5.258  0.00  0.00     0.167 HD
ENDBRANCH   7   9
ENDBRANCH   6   7
ENDBRANCH   5   6
ENDBRANCH   1   5
BRANCH   1  11
HETATM   11  C   UNK N   1      20.752  20.299   1.389  0.00  0.00     0.163 C 
HETATM   12  O   UNK N   1      21.305  21.358   1.618  0.00  0.00    -0.648 OA
BRANCH  11  13
HETATM   13  O   UNK N   1      20.620  19.873   0.114  0.00  0.00    -0.775 OA
HETATM   14  H   UNK N   1      21.307  20.025  -0.504  0.00  0.00     0.167 HD
ENDBRANCH  11  13
ENDBRANCH   1  11
TORSDOF 7
ENDMDL
MODEL 6
REMARK VINA RESULT:      -4.3     15.620     16.523
REMARK  7 active torsions:
REMARK  status: ('A' for Active; 'I' for Inactive)
REMARK    1  A    between atoms: O_1  and  C_9 
REMARK    2  A    between atoms: O_2  and  C_10 
REMARK    3  A    between atoms: C_7  and  N_5 
REMARK    4  A    between atoms: C_6  and  C_7 
REMARK    5  A    between atoms: C_6  and  C_8 
REMARK    6  A    between atoms: C_7  and  C_9 
REMARK    7  A    between atoms: C_8  and  C_10 
ROOT
HETATM    1  C   UNK N   1      20.259  16.926   2.272  0.00  0.00     0.173 C 
ENDROOT
BRANCH   1   2
HETATM    2  N   UNK N   1      19.417  16.112   3.139  0.00  0.00    -0.418 N 
HETATM    3  H   UNK N   1      18.708  16.554   3.723  0.00  0.00     0.150 HD
HETATM    4  H   UNK N   1      19.537  15.099   3.161  0.00  0.00     0.150 HD
ENDBRANCH   1   2
BRANCH   1   5
HETATM    5  C   UNK N   1      20.861  18.231   2.764  0.00  0.00     0.046 C 
BRANCH   5   6
HETATM    6  C   UNK N   1      20.072  19.489   2.443  0.00  0.00     0.112 C 
BRANCH   6   7
HETATM    7  C   UNK N   1      20.808  20.320   1.426  0.00  0.00     0.139 C 
HETATM    8  O   UNK N   1      21.528  21.246   1.773  0.00  0.00    -0.650 OA
BRANCH   7   9
HETATM    9  O   UNK N   1      20.673  20.044   0.117  0.00  0.00    -0.776 OA
HETATM   10  H   UNK N   1      20.362  19.203  -0.154  0.00  0.00     0.167 HD
ENDBRANCH   7   9
ENDBRANCH   6   7
ENDBRANCH   5   6
ENDBRANCH   1   5
BRANCH   1  11
HETATM   11  C   UNK N   1      20.532  16.464   0.875  0.00  0.00     0.163 C 
HETATM   12  O   UNK N   1      20.146  17.110  -0.080  0.00  0.00    -0.648 OA
BRANCH  11  13
HETATM   13  O   UNK N   1      21.215  15.316   0.677  0.00  0.00    -0.775 OA
HETATM   14  H   UNK N   1      20.909  14.517   1.059  0.00  0.00     0.167 HD
ENDBRANCH  11  13
ENDBRANCH   1  11
TORSDOF 7
ENDMDL
MODEL 7
REMARK VINA RESULT:      -4.3      5.797      7.498
REMARK  7 active torsions:
REMARK  status: ('A' for Active; 'I' for Inactive)
REMARK    1  A    between atoms: O_1  and  C_9 
REMARK    2  A    between atoms: O_2  and  C_10 
REMARK    3  A    between atoms: C_7  and  N_5 
REMARK    4  A    between atoms: C_6  and  C_7 
REMARK    5  A    between atoms: C_6  and  C_8 
REMARK    6  A    between atoms: C_7  and  C_9 
REMARK    7  A    between atoms: C_8  and  C_10 
ROOT
HETATM    1  C   UNK N   1      36.505  13.884  15.132  0.00  0.00     0.173 C 
ENDROOT
BRANCH   1   2
HETATM    2  N   UNK N   1      37.372  14.984  15.537  0.00  0.00    -0.418 N 
HETATM    3  H   UNK N   1      37.984  14.880  16.346  0.00  0.00     0.150 HD
HETATM    4  H   UNK N   1      37.366  15.858  15.010  0.00  0.00     0.150 HD
ENDBRANCH   1   2
BRANCH   1   5
HETATM    5  C   UNK N   1      36.016  12.860  16.142  0.00  0.00     0.046 C 
BRANCH   5   6
HETATM    6  C   UNK N   1      34.828  13.280  16.992  0.00  0.00     0.112 C 
BRANCH   6   7
HETATM    7  C   UNK N   1      35.302  13.901  18.279  0.00  0.00     0.139 C 
HETATM    8  O   UNK N   1      35.794  15.021  18.293  0.00  0.00    -0.650 OA
BRANCH   7   9
HETATM    9  O   UNK N   1      35.184  13.218  19.431  0.00  0.00    -0.776 OA
HETATM   10  H   UNK N   1      34.927  13.662  20.215  0.00  0.00     0.167 HD
ENDBRANCH   7   9
ENDBRANCH   6   7
ENDBRANCH   5   6
ENDBRANCH   1   5
BRANCH   1  11
HETATM   11  C   UNK N   1      36.094  13.768  13.698  0.00  0.00     0.163 C 
HETATM   12  O   UNK N   1      34.925  13.624  13.396  0.00  0.00    -0.648 OA
BRANCH  11  13
HETATM   13  O   UNK N   1      37.036  13.823  12.732  0.00  0.00    -0.775 OA
HETATM   14  H   UNK N   1      36.829  13.546  11.861  0.00  0.00     0.167 HD
ENDBRANCH  11  13
ENDBRANCH   1  11
TORSDOF 7
ENDMDL
MODEL 8
REMARK VINA RESULT:      -4.2      2.745      3.679
REMARK  7 active torsions:
REMARK  status: ('A' for Active; 'I' for Inactive)
REMARK    1  A    between atoms: O_1  and  C_9 
REMARK    2  A    between atoms: O_2  and  C_10 
REMARK    3  A    between atoms: C_7  and  N_5 
REMARK    4  A    between atoms: C_6  and  C_7 
REMARK    5  A    between atoms: C_6  and  C_8 
REMARK    6  A    between atoms: C_7  and  C_9 
REMARK    7  A    between atoms: C_8  and  C_10 
ROOT
HETATM    1  C   UNK N   1      34.805  14.988  11.128  0.00  0.00     0.173 C 
ENDROOT
BRANCH   1   2
HETATM    2  N   UNK N   1      33.376  15.067  10.852  0.00  0.00    -0.418 N 
HETATM    3  H   UNK N   1      33.049  15.301   9.915  0.00  0.00     0.150 HD
HETATM    4  H   UNK N   1      32.703  14.888  11.598  0.00  0.00     0.150 HD
ENDBRANCH   1   2
BRANCH   1   5
HETATM    5  C   UNK N   1      35.432  13.708  11.654  0.00  0.00     0.046 C 
BRANCH   5   6
HETATM    6  C   UNK N   1      35.186  13.403  13.122  0.00  0.00     0.112 C 
BRANCH   6   7
HETATM    7  C   UNK N   1      36.388  13.786  13.943  0.00  0.00     0.139 C 
HETATM    8  O   UNK N   1      36.965  12.961  14.638  0.00  0.00    -0.650 OA
BRANCH   7   9
HETATM    9  O   UNK N   1      36.838  15.054  13.914  0.00  0.00    -0.776 OA
HETATM   10  H   UNK N   1      36.814  15.577  14.691  0.00  0.00     0.167 HD
ENDBRANCH   7   9
ENDBRANCH   6   7
ENDBRANCH   5   6
ENDBRANCH   1   5
BRANCH   1  11
HETATM   11  C   UNK N   1      35.663  16.190  10.886  0.00  0.00     0.163 C 
HETATM   12  O   UNK N   1      35.165  17.265  10.615  0.00  0.00    -0.648 OA
BRANCH  11  13
HETATM   13  O   UNK N   1      37.006  16.074  10.971  0.00  0.00    -0.775 OA
HETATM   14  H   UNK N   1      37.436  15.328  10.601  0.00  0.00     0.167 HD
ENDBRANCH  11  13
ENDBRANCH   1  11
TORSDOF 7
ENDMDL
MODEL 9
REMARK VINA RESULT:      -4.0     14.096     15.850
REMARK  7 active torsions:
REMARK  status: ('A' for Active; 'I' for Inactive)
REMARK    1  A    between atoms: O_1  and  C_9 
REMARK    2  A    between atoms: O_2  and  C_10 
REMARK    3  A    between atoms: C_7  and  N_5 
REMARK    4  A    between atoms: C_6  and  C_7 
REMARK    5  A    between atoms: C_6  and  C_8 
REMARK    6  A    between atoms: C_7  and  C_9 
REMARK    7  A    between atoms: C_8  and  C_10 
ROOT
HETATM    1  C   UNK N   1      30.568  23.258  -3.781  0.00  0.00     0.173 C 
ENDROOT
BRANCH   1   2
HETATM    2  N   UNK N   1      31.201  22.668  -4.953  0.00  0.00    -0.418 N 
HETATM    3  H   UNK N   1      32.022  22.072  -4.844  0.00  0.00     0.150 HD
HETATM    4  H   UNK N   1      30.823  22.850  -5.883  0.00  0.00     0.150 HD
ENDBRANCH   1   2
BRANCH   1   5
HETATM    5  C   UNK N   1      29.577  24.402  -3.917  0.00  0.00     0.046 C 
BRANCH   5   6
HETATM    6  C   UNK N   1      28.173  24.015  -4.352  0.00  0.00     0.112 C 
BRANCH   6   7
HETATM    7  C   UNK N   1      27.200  24.237  -3.224  0.00  0.00     0.139 C 
HETATM    8  O   UNK N   1      26.283  25.039  -3.334  0.00  0.00    -0.650 OA
BRANCH   7   9
HETATM    9  O   UNK N   1      27.338  23.546  -2.079  0.00  0.00    -0.776 OA
HETATM   10  H   UNK N   1      28.186  23.250  -1.810  0.00  0.00     0.167 HD
ENDBRANCH   7   9
ENDBRANCH   6   7
ENDBRANCH   5   6
ENDBRANCH   1   5
BRANCH   1  11
HETATM   11  C   UNK N   1      30.902  22.724  -2.424  0.00  0.00     0.163 C 
HETATM   12  O   UNK N   1      30.260  23.060  -1.448  0.00  0.00    -0.648 OA
BRANCH  11  13
HETATM   13  O   UNK N   1      31.931  21.860  -2.285  0.00  0.00    -0.775 OA
HETATM   14  H   UNK N   1      31.797  20.946  -2.436  0.00  0.00     0.167 HD
ENDBRANCH  11  13
ENDBRANCH   1  11
TORSDOF 7
ENDMDL
