MODEL 1
REMARK VINA RESULT:      -5.9      0.000      0.000
REMARK  13 active torsions:
REMARK  status: ('A' for Active; 'I' for Inactive)
REMARK    1  A    between atoms: S_1  and  C_16 
REMARK    2  A    between atoms: O_4  and  C_18 
REMARK    3  A    between atoms: O_6  and  C_20 
REMARK    4  A    between atoms: C_13  and  N_8 
REMARK       I    between atoms: N_8  and  C_15 
REMARK    5  A    between atoms: C_14  and  N_9 
REMARK       I    between atoms: N_10  and  C_17 
REMARK    6  A    between atoms: N_10  and  C_19 
REMARK    7  A    between atoms: C_11  and  C_12 
REMARK    8  A    between atoms: C_11  and  C_14 
REMARK    9  A    between atoms: C_12  and  C_15 
REMARK   10  A    between atoms: C_13  and  C_16 
REMARK   11  A    between atoms: C_13  and  C_17 
REMARK   12  A    between atoms: C_14  and  C_18 
REMARK   13  A    between atoms: C_19  and  C_20 
ROOT
HETATM    1  O   UNK N   1      19.283  14.417   9.455  0.00  0.00    -0.274 OA
HETATM    2  N   UNK N   1      20.901  15.636   8.491  0.00  0.00    -0.347 N 
HETATM    3  C   UNK N   1      20.474  14.639   9.304  0.00  0.00     0.218 C 
HETATM    4  H   UNK N   1      21.866  15.827   8.460  0.00  0.00     0.163 HD
ENDROOT
BRANCH   2   5
HETATM    5  C   UNK N   1      20.019  16.438   7.665  0.00  0.00     0.185 C 
BRANCH   5   6
HETATM    6  C   UNK N   1      20.329  16.140   6.202  0.00  0.00     0.105 C 
BRANCH   6   7
HETATM    7  S   UNK N   1      18.796  15.724   5.320  0.00  0.00    -0.180 SA
HETATM    8  H   UNK N   1      17.545  15.562   5.829  0.00  0.00     0.101 HD
ENDBRANCH   6   7
ENDBRANCH   5   6
BRANCH   5   9
HETATM    9  C   UNK N   1      20.237  17.913   7.970  0.00  0.00     0.241 C 
HETATM   10  O   UNK N   1      21.067  18.540   7.333  0.00  0.00    -0.271 OA
HETATM   11  N   UNK N   1      19.536  18.560   8.939  0.00  0.00    -0.349 N 
HETATM   12  H   UNK N   1      19.742  19.509   9.106  0.00  0.00     0.163 HD
BRANCH  11  13
HETATM   13  C   UNK N   1      18.509  17.937   9.737  0.00  0.00     0.232 C 
BRANCH  13  14
HETATM   14  C   UNK N   1      18.097  18.829  10.868  0.00  0.00     0.158 C 
HETATM   15  O   UNK N   1      16.968  18.745  11.320  0.00  0.00    -0.649 OA
BRANCH  14  16
HETATM   16  O   UNK N   1      18.958  19.730  11.383  0.00  0.00    -0.775 OA
HETATM   17  H   UNK N   1      19.595  19.502  12.030  0.00  0.00     0.167 HD
ENDBRANCH  14  16
ENDBRANCH  13  14
ENDBRANCH  11  13
ENDBRANCH   5   9
ENDBRANCH   2   5
BRANCH   3  18
HETATM   18  C   UNK N   1      21.483  13.779   9.989  0.00  0.00     0.105 C 
BRANCH  18  19
HETATM   19  C   UNK N   1      22.541  13.302   9.013  0.00  0.00     0.044 C 
BRANCH  19  20
HETATM   20  C   UNK N   1      23.402  12.222   9.658  0.00  0.00     0.173 C 
BRANCH  20  21
HETATM   21  N   UNK N   1      23.697  11.198   8.671  0.00  0.00    -0.418 N 
HETATM   22  H   UNK N   1      23.444  10.211   8.659  0.00  0.00     0.150 HD
HETATM   23  H   UNK N   1      24.239  11.516   7.867  0.00  0.00     0.150 HD
ENDBRANCH  20  21
BRANCH  20  24
HETATM   24  C   UNK N   1      24.691  12.767  10.217  0.00  0.00     0.163 C 
HETATM   25  O   UNK N   1      25.373  13.552   9.576  0.00  0.00    -0.648 OA
BRANCH  24  26
HETATM   26  O   UNK N   1      25.101  12.380  11.440  0.00  0.00    -0.775 OA
HETATM   27  H   UNK N   1      25.163  11.478  11.685  0.00  0.00     0.167 HD
ENDBRANCH  24  26
ENDBRANCH  20  24
ENDBRANCH  19  20
ENDBRANCH  18  19
ENDBRANCH   3  18
TORSDOF 13
ENDMDL
MODEL 2
REMARK VINA RESULT:      -5.9      6.663      8.443
REMARK  13 active torsions:
REMARK  status: ('A' for Active; 'I' for Inactive)
REMARK    1  A    between atoms: S_1  and  C_16 
REMARK    2  A    between atoms: O_4  and  C_18 
REMARK    3  A    between atoms: O_6  and  C_20 
REMARK    4  A    between atoms: C_13  and  N_8 
REMARK       I    between atoms: N_8  and  C_15 
REMARK    5  A    between atoms: C_14  and  N_9 
REMARK       I    between atoms: N_10  and  C_17 
REMARK    6  A    between atoms: N_10  and  C_19 
REMARK    7  A    between atoms: C_11  and  C_12 
REMARK    8  A    between atoms: C_11  and  C_14 
REMARK    9  A    between atoms: C_12  and  C_15 
REMARK   10  A    between atoms: C_13  and  C_16 
REMARK   11  A    between atoms: C_13  and  C_17 
REMARK   12  A    between atoms: C_14  and  C_18 
REMARK   13  A    between atoms: C_19  and  C_20 
ROOT
HETATM    1  O   UNK N   1      23.579  21.058   3.105  0.00  0.00    -0.274 OA
HETATM    2  N   UNK N   1      23.263  18.916   3.693  0.00  0.00    -0.347 N 
HETATM    3  C   UNK N   1      24.050  19.949   3.304  0.00  0.00     0.218 C 
HETATM    4  H   UNK N   1      23.673  18.024   3.767  0.00  0.00     0.163 HD
ENDROOT
BRANCH   2   5
HETATM    5  C   UNK N   1      21.853  19.047   4.004  0.00  0.00     0.185 C 
BRANCH   5   6
HETATM    6  C   UNK N   1      21.575  18.289   5.298  0.00  0.00     0.105 C 
BRANCH   6   7
HETATM    7  S   UNK N   1      22.877  17.055   5.581  0.00  0.00    -0.180 SA
HETATM    8  H   UNK N   1      23.972  16.792   4.819  0.00  0.00     0.101 HD
ENDBRANCH   6   7
ENDBRANCH   5   6
BRANCH   5   9
HETATM    9  C   UNK N   1      21.024  18.480   2.860  0.00  0.00     0.241 C 
HETATM   10  O   UNK N   1      20.977  17.273   2.696  0.00  0.00    -0.271 OA
HETATM   11  N   UNK N   1      20.332  19.281   2.006  0.00  0.00    -0.349 N 
HETATM   12  H   UNK N   1      19.834  18.854   1.271  0.00  0.00     0.163 HD
BRANCH  11  13
HETATM   13  C   UNK N   1      20.284  20.718   2.116  0.00  0.00     0.232 C 
BRANCH  13  14
HETATM   14  C   UNK N   1      20.677  21.365   0.823  0.00  0.00     0.158 C 
HETATM   15  O   UNK N   1      21.273  20.716  -0.019  0.00  0.00    -0.649 OA
BRANCH  14  16
HETATM   16  O   UNK N   1      20.387  22.661   0.585  0.00  0.00    -0.775 OA
HETATM   17  H   UNK N   1      20.280  22.999  -0.282  0.00  0.00     0.167 HD
ENDBRANCH  14  16
ENDBRANCH  13  14
ENDBRANCH  11  13
ENDBRANCH   5   9
ENDBRANCH   2   5
BRANCH   3  18
HETATM   18  C   UNK N   1      25.519  19.728   3.160  0.00  0.00     0.105 C 
BRANCH  18  19
HETATM   19  C   UNK N   1      26.292  20.544   4.178  0.00  0.00     0.044 C 
BRANCH  19  20
HETATM   20  C   UNK N   1      25.972  20.066   5.588  0.00  0.00     0.173 C 
BRANCH  20  21
HETATM   21  N   UNK N   1      26.493  18.722   5.763  0.00  0.00    -0.418 N 
HETATM   22  H   UNK N   1      26.416  17.907   5.156  0.00  0.00     0.150 HD
HETATM   23  H   UNK N   1      27.017  18.570   6.626  0.00  0.00     0.150 HD
ENDBRANCH  20  21
BRANCH  20  24
HETATM   24  C   UNK N   1      26.544  20.969   6.650  0.00  0.00     0.163 C 
HETATM   25  O   UNK N   1      27.425  21.773   6.384  0.00  0.00    -0.648 OA
BRANCH  24  26
HETATM   26  O   UNK N   1      26.082  20.888   7.912  0.00  0.00    -0.775 OA
HETATM   27  H   UNK N   1      25.169  20.809   8.107  0.00  0.00     0.167 HD
ENDBRANCH  24  26
ENDBRANCH  20  24
ENDBRANCH  19  20
ENDBRANCH  18  19
ENDBRANCH   3  18
TORSDOF 13
ENDMDL
MODEL 3
REMARK VINA RESULT:      -5.5      4.075      7.217
REMARK  13 active torsions:
REMARK  status: ('A' for Active; 'I' for Inactive)
REMARK    1  A    between atoms: S_1  and  C_16 
REMARK    2  A    between atoms: O_4  and  C_18 
REMARK    3  A    between atoms: O_6  and  C_20 
REMARK    4  A    between atoms: C_13  and  N_8 
REMARK       I    between atoms: N_8  and  C_15 
REMARK    5  A    between atoms: C_14  and  N_9 
REMARK       I    between atoms: N_10  and  C_17 
REMARK    6  A    between atoms: N_10  and  C_19 
REMARK    7  A    between atoms: C_11  and  C_12 
REMARK    8  A    between atoms: C_11  and  C_14 
REMARK    9  A    between atoms: C_12  and  C_15 
REMARK   10  A    between atoms: C_13  and  C_16 
REMARK   11  A    between atoms: C_13  and  C_17 
REMARK   12  A    between atoms: C_14  and  C_18 
REMARK   13  A    between atoms: C_19  and  C_20 
ROOT
HETATM    1  O   UNK N   1      21.991  18.543   6.385  0.00  0.00    -0.274 OA
HETATM    2  N   UNK N   1      21.877  16.583   5.297  0.00  0.00    -0.347 N 
HETATM    3  C   UNK N   1      22.007  17.932   5.327  0.00  0.00     0.218 C 
HETATM    4  H   UNK N   1      21.820  16.143   4.419  0.00  0.00     0.163 HD
ENDROOT
BRANCH   2   5
HETATM    5  C   UNK N   1      21.817  15.751   6.484  0.00  0.00     0.185 C 
BRANCH   5   6
HETATM    6  C   UNK N   1      22.665  14.507   6.240  0.00  0.00     0.105 C 
BRANCH   6   7
HETATM    7  S   UNK N   1      24.423  14.906   6.463  0.00  0.00    -0.180 SA
HETATM    8  H   UNK N   1      25.234  15.635   5.650  0.00  0.00     0.101 HD
ENDBRANCH   6   7
ENDBRANCH   5   6
BRANCH   5   9
HETATM    9  C   UNK N   1      20.371  15.369   6.766  0.00  0.00     0.241 C 
HETATM   10  O   UNK N   1      19.809  14.572   6.034  0.00  0.00    -0.271 OA
HETATM   11  N   UNK N   1      19.678  15.894   7.811  0.00  0.00    -0.349 N 
HETATM   12  H   UNK N   1      18.737  15.626   7.925  0.00  0.00     0.163 HD
BRANCH  11  13
HETATM   13  C   UNK N   1      20.241  16.820   8.762  0.00  0.00     0.232 C 
BRANCH  13  14
HETATM   14  C   UNK N   1      19.242  17.870   9.142  0.00  0.00     0.158 C 
HETATM   15  O   UNK N   1      18.051  17.619   9.076  0.00  0.00    -0.649 OA
BRANCH  14  16
HETATM   16  O   UNK N   1      19.646  19.092   9.545  0.00  0.00    -0.775 OA
HETATM   17  H   UNK N   1      20.130  19.668   8.989  0.00  0.00     0.167 HD
ENDBRANCH  14  16
ENDBRANCH  13  14
ENDBRANCH  11  13
ENDBRANCH   5   9
ENDBRANCH   2   5
BRANCH   3  18
HETATM   18  C   UNK N   1      22.214  18.670   4.047  0.00  0.00     0.105 C 
BRANCH  18  19
HETATM   19  C   UNK N   1      21.008  19.526   3.713  0.00  0.00     0.044 C 
BRANCH  19  20
HETATM   20  C   UNK N   1      20.499  19.194   2.315  0.00  0.00     0.173 C 
BRANCH  20  21
HETATM   21  N   UNK N   1      19.062  18.994   2.368  0.00  0.00    -0.418 N 
HETATM   22  H   UNK N   1      18.462  18.408   1.788  0.00  0.00     0.150 HD
HETATM   23  H   UNK N   1      18.579  19.519   3.098  0.00  0.00     0.150 HD
ENDBRANCH  20  21
BRANCH  20  24
HETATM   24  C   UNK N   1      20.820  20.272   1.312  0.00  0.00     0.163 C 
HETATM   25  O   UNK N   1      21.200  21.376   1.674  0.00  0.00    -0.648 OA
BRANCH  24  26
HETATM   26  O   UNK N   1      20.681  20.019  -0.004  0.00  0.00    -0.775 OA
HETATM   27  H   UNK N   1      21.386  20.131  -0.611  0.00  0.00     0.167 HD
ENDBRANCH  24  26
ENDBRANCH  20  24
ENDBRANCH  19  20
ENDBRANCH  18  19
ENDBRANCH   3  18
TORSDOF 13
ENDMDL
MODEL 4
REMARK VINA RESULT:      -5.5      5.152      8.411
REMARK  13 active torsions:
REMARK  status: ('A' for Active; 'I' for Inactive)
REMARK    1  A    between atoms: S_1  and  C_16 
REMARK    2  A    between atoms: O_4  and  C_18 
REMARK    3  A    between atoms: O_6  and  C_20 
REMARK    4  A    between atoms: C_13  and  N_8 
REMARK       I    between atoms: N_8  and  C_15 
REMARK    5  A    between atoms: C_14  and  N_9 
REMARK       I    between atoms: N_10  and  C_17 
REMARK    6  A    between atoms: N_10  and  C_19 
REMARK    7  A    between atoms: C_11  and  C_12 
REMARK    8  A    between atoms: C_11  and  C_14 
REMARK    9  A    between atoms: C_12  and  C_15 
REMARK   10  A    between atoms: C_13  and  C_16 
REMARK   11  A    between atoms: C_13  and  C_17 
REMARK   12  A    between atoms: C_14  and  C_18 
REMARK   13  A    between atoms: C_19  and  C_20 
ROOT
HETATM    1  O   UNK N   1      21.771  16.095   2.569  0.00  0.00    -0.274 OA
HETATM    2  N   UNK N   1      20.626  17.363   4.023  0.00  0.00    -0.347 N 
HETATM    3  C   UNK N   1      20.903  16.930   2.769  0.00  0.00     0.218 C 
HETATM    4  H   UNK N   1      19.971  18.091   4.128  0.00  0.00     0.163 HD
ENDROOT
BRANCH   2   5
HETATM    5  C   UNK N   1      21.238  16.818   5.220  0.00  0.00     0.185 C 
BRANCH   5   6
HETATM    6  C   UNK N   1      20.147  16.164   6.061  0.00  0.00     0.105 C 
BRANCH   6   7
HETATM    7  S   UNK N   1      19.832  14.478   5.460  0.00  0.00    -0.180 SA
HETATM    8  H   UNK N   1      18.638  13.845   5.309  0.00  0.00     0.101 HD
ENDBRANCH   6   7
ENDBRANCH   5   6
BRANCH   5   9
HETATM    9  C   UNK N   1      21.920  17.934   5.998  0.00  0.00     0.241 C 
HETATM   10  O   UNK N   1      21.301  18.522   6.868  0.00  0.00    -0.271 OA
HETATM   11  N   UNK N   1      23.204  18.304   5.750  0.00  0.00    -0.349 N 
HETATM   12  H   UNK N   1      23.581  19.051   6.270  0.00  0.00     0.163 HD
BRANCH  11  13
HETATM   13  C   UNK N   1      24.048  17.666   4.769  0.00  0.00     0.232 C 
BRANCH  13  14
HETATM   14  C   UNK N   1      25.416  18.277   4.764  0.00  0.00     0.158 C 
HETATM   15  O   UNK N   1      26.251  17.876   3.971  0.00  0.00    -0.649 OA
BRANCH  14  16
HETATM   16  O   UNK N   1      25.737  19.256   5.634  0.00  0.00    -0.775 OA
HETATM   17  H   UNK N   1      25.134  19.572   6.277  0.00  0.00     0.167 HD
ENDBRANCH  14  16
ENDBRANCH  13  14
ENDBRANCH  11  13
ENDBRANCH   5   9
ENDBRANCH   2   5
BRANCH   3  18
HETATM   18  C   UNK N   1      20.100  17.456   1.626  0.00  0.00     0.105 C 
BRANCH  18  19
HETATM   19  C   UNK N   1      19.627  18.870   1.901  0.00  0.00     0.044 C 
BRANCH  19  20
HETATM   20  C   UNK N   1      20.757  19.861   1.645  0.00  0.00     0.173 C 
BRANCH  20  21
HETATM   21  N   UNK N   1      20.395  20.716   0.528  0.00  0.00    -0.418 N 
HETATM   22  H   UNK N   1      20.569  20.596  -0.469  0.00  0.00     0.150 HD
HETATM   23  H   UNK N   1      19.889  21.566   0.781  0.00  0.00     0.150 HD
ENDBRANCH  20  21
BRANCH  20  24
HETATM   24  C   UNK N   1      21.065  20.712   2.850  0.00  0.00     0.163 C 
HETATM   25  O   UNK N   1      20.495  20.523   3.915  0.00  0.00    -0.648 OA
BRANCH  24  26
HETATM   26  O   UNK N   1      21.976  21.697   2.754  0.00  0.00    -0.775 OA
HETATM   27  H   UNK N   1      21.827  22.469   2.242  0.00  0.00     0.167 HD
ENDBRANCH  24  26
ENDBRANCH  20  24
ENDBRANCH  19  20
ENDBRANCH  18  19
ENDBRANCH   3  18
TORSDOF 13
ENDMDL
MODEL 5
REMARK VINA RESULT:      -5.4     13.985     15.218
REMARK  13 active torsions:
REMARK  status: ('A' for Active; 'I' for Inactive)
REMARK    1  A    between atoms: S_1  and  C_16 
REMARK    2  A    between atoms: O_4  and  C_18 
REMARK    3  A    between atoms: O_6  and  C_20 
REMARK    4  A    between atoms: C_13  and  N_8 
REMARK       I    between atoms: N_8  and  C_15 
REMARK    5  A    between atoms: C_14  and  N_9 
REMARK       I    between atoms: N_10  and  C_17 
REMARK    6  A    between atoms: N_10  and  C_19 
REMARK    7  A    between atoms: C_11  and  C_12 
REMARK    8  A    between atoms: C_11  and  C_14 
REMARK    9  A    between atoms: C_12  and  C_15 
REMARK   10  A    between atoms: C_13  and  C_16 
REMARK   11  A    between atoms: C_13  and  C_17 
REMARK   12  A    between atoms: C_14  and  C_18 
REMARK   13  A    between atoms: C_19  and  C_20 
ROOT
HETATM    1  O   UNK N   1      34.450  12.096  10.282  0.00  0.00    -0.274 OA
HETATM    2  N   UNK N   1      35.571  13.751  11.302  0.00  0.00    -0.347 N 
HETATM    3  C   UNK N   1      35.123  12.474  11.229  0.00  0.00     0.218 C 
HETATM    4  H   UNK N   1      36.044  14.030  12.118  0.00  0.00     0.163 HD
ENDROOT
BRANCH   2   5
HETATM    5  C   UNK N   1      35.392  14.731  10.248  0.00  0.00     0.185 C 
BRANCH   5   6
HETATM    6  C   UNK N   1      36.567  14.617   9.283  0.00  0.00     0.105 C 
BRANCH   6   7
HETATM    7  S   UNK N   1      35.978  14.061   7.657  0.00  0.00    -0.180 SA
HETATM    8  H   UNK N   1      36.397  14.459   6.425  0.00  0.00     0.101 HD
ENDBRANCH   6   7
ENDBRANCH   5   6
BRANCH   5   9
HETATM    9  C   UNK N   1      35.327  16.126  10.854  0.00  0.00     0.241 C 
HETATM   10  O   UNK N   1      35.845  16.331  11.939  0.00  0.00    -0.271 OA
HETATM   11  N   UNK N   1      34.704  17.157  10.226  0.00  0.00    -0.349 N 
HETATM   12  H   UNK N   1      34.675  18.030  10.682  0.00  0.00     0.163 HD
BRANCH  11  13
HETATM   13  C   UNK N   1      34.083  17.047   8.928  0.00  0.00     0.232 C 
BRANCH  13  14
HETATM   14  C   UNK N   1      34.572  18.125   8.010  0.00  0.00     0.158 C 
HETATM   15  O   UNK N   1      34.366  18.035   6.812  0.00  0.00    -0.649 OA
BRANCH  14  16
HETATM   16  O   UNK N   1      35.247  19.189   8.493  0.00  0.00    -0.775 OA
HETATM   17  H   UNK N   1      34.861  20.039   8.559  0.00  0.00     0.167 HD
ENDBRANCH  14  16
ENDBRANCH  13  14
ENDBRANCH  11  13
ENDBRANCH   5   9
ENDBRANCH   2   5
BRANCH   3  18
HETATM   18  C   UNK N   1      35.498  11.511  12.305  0.00  0.00     0.105 C 
BRANCH  18  19
HETATM   19  C   UNK N   1      35.177  12.075  13.675  0.00  0.00     0.044 C 
BRANCH  19  20
HETATM   20  C   UNK N   1      36.462  12.339  14.449  0.00  0.00     0.173 C 
BRANCH  20  21
HETATM   21  N   UNK N   1      37.595  11.912  13.648  0.00  0.00    -0.418 N 
HETATM   22  H   UNK N   1      38.561  11.739  13.922  0.00  0.00     0.150 HD
HETATM   23  H   UNK N   1      37.393  11.764  12.658  0.00  0.00     0.150 HD
ENDBRANCH  20  21
BRANCH  20  24
HETATM   24  C   UNK N   1      36.627  13.790  14.820  0.00  0.00     0.163 C 
HETATM   25  O   UNK N   1      36.563  14.153  15.985  0.00  0.00    -0.648 OA
BRANCH  24  26
HETATM   26  O   UNK N   1      36.844  14.703  13.854  0.00  0.00    -0.775 OA
HETATM   27  H   UNK N   1      36.886  15.622  14.035  0.00  0.00     0.167 HD
ENDBRANCH  24  26
ENDBRANCH  20  24
ENDBRANCH  19  20
ENDBRANCH  18  19
ENDBRANCH   3  18
TORSDOF 13
ENDMDL
MODEL 6
REMARK VINA RESULT:      -5.4      6.777      8.132
REMARK  13 active torsions:
REMARK  status: ('A' for Active; 'I' for Inactive)
REMARK    1  A    between atoms: S_1  and  C_16 
REMARK    2  A    between atoms: O_4  and  C_18 
REMARK    3  A    between atoms: O_6  and  C_20 
REMARK    4  A    between atoms: C_13  and  N_8 
REMARK       I    between atoms: N_8  and  C_15 
REMARK    5  A    between atoms: C_14  and  N_9 
REMARK       I    between atoms: N_10  and  C_17 
REMARK    6  A    between atoms: N_10  and  C_19 
REMARK    7  A    between atoms: C_11  and  C_12 
REMARK    8  A    between atoms: C_11  and  C_14 
REMARK    9  A    between atoms: C_12  and  C_15 
REMARK   10  A    between atoms: C_13  and  C_16 
REMARK   11  A    between atoms: C_13  and  C_17 
REMARK   12  A    between atoms: C_14  and  C_18 
REMARK   13  A    between atoms: C_19  and  C_20 
ROOT
HETATM    1  O   UNK N   1      22.022  18.765   4.350  0.00  0.00    -0.274 OA
HETATM    2  N   UNK N   1      21.953  16.843   3.194  0.00  0.00    -0.347 N 
HETATM    3  C   UNK N   1      22.597  17.764   3.951  0.00  0.00     0.218 C 
HETATM    4  H   UNK N   1      22.477  16.092   2.832  0.00  0.00     0.163 HD
ENDROOT
BRANCH   2   5
HETATM    5  C   UNK N   1      20.538  16.900   2.882  0.00  0.00     0.185 C 
BRANCH   5   6
HETATM    6  C   UNK N   1      19.925  15.538   3.186  0.00  0.00     0.105 C 
BRANCH   6   7
HETATM    7  S   UNK N   1      19.169  15.555   4.838  0.00  0.00    -0.180 SA
HETATM    8  H   UNK N   1      19.768  15.775   6.039  0.00  0.00     0.101 HD
ENDBRANCH   6   7
ENDBRANCH   5   6
BRANCH   5   9
HETATM    9  C   UNK N   1      20.352  17.258   1.415  0.00  0.00     0.241 C 
HETATM   10  O   UNK N   1      20.400  16.377   0.573  0.00  0.00    -0.271 OA
HETATM   11  N   UNK N   1      20.138  18.537   1.007  0.00  0.00    -0.349 N 
HETATM   12  H   UNK N   1      20.051  18.708   0.040  0.00  0.00     0.163 HD
BRANCH  11  13
HETATM   13  C   UNK N   1      20.030  19.659   1.907  0.00  0.00     0.232 C 
BRANCH  13  14
HETATM   14  C   UNK N   1      21.104  20.668   1.634  0.00  0.00     0.158 C 
HETATM   15  O   UNK N   1      21.516  20.815   0.496  0.00  0.00    -0.649 OA
BRANCH  14  16
HETATM   16  O   UNK N   1      21.626  21.406   2.635  0.00  0.00    -0.775 OA
HETATM   17  H   UNK N   1      21.175  21.543   3.444  0.00  0.00     0.167 HD
ENDBRANCH  14  16
ENDBRANCH  13  14
ENDBRANCH  11  13
ENDBRANCH   5   9
ENDBRANCH   2   5
BRANCH   3  18
HETATM   18  C   UNK N   1      24.019  17.522   4.334  0.00  0.00     0.105 C 
BRANCH  18  19
HETATM   19  C   UNK N   1      24.669  18.796   4.840  0.00  0.00     0.044 C 
BRANCH  19  20
HETATM   20  C   UNK N   1      25.386  19.508   3.700  0.00  0.00     0.173 C 
BRANCH  20  21
HETATM   21  N   UNK N   1      24.507  20.522   3.145  0.00  0.00    -0.418 N 
HETATM   22  H   UNK N   1      23.702  20.421   2.528  0.00  0.00     0.150 HD
HETATM   23  H   UNK N   1      24.728  21.481   3.415  0.00  0.00     0.150 HD
ENDBRANCH  20  21
BRANCH  20  24
HETATM   24  C   UNK N   1      26.677  20.149   4.139  0.00  0.00     0.163 C 
HETATM   25  O   UNK N   1      26.687  21.023   4.993  0.00  0.00    -0.648 OA
BRANCH  24  26
HETATM   26  O   UNK N   1      27.838  19.757   3.580  0.00  0.00    -0.775 OA
HETATM   27  H   UNK N   1      28.660  19.843   4.022  0.00  0.00     0.167 HD
ENDBRANCH  24  26
ENDBRANCH  20  24
ENDBRANCH  19  20
ENDBRANCH  18  19
ENDBRANCH   3  18
TORSDOF 13
ENDMDL
MODEL 7
REMARK VINA RESULT:      -5.2      3.329      4.673
REMARK  13 active torsions:
REMARK  status: ('A' for Active; 'I' for Inactive)
REMARK    1  A    between atoms: S_1  and  C_16 
REMARK    2  A    between atoms: O_4  and  C_18 
REMARK    3  A    between atoms: O_6  and  C_20 
REMARK    4  A    between atoms: C_13  and  N_8 
REMARK       I    between atoms: N_8  and  C_15 
REMARK    5  A    between atoms: C_14  and  N_9 
REMARK       I    between atoms: N_10  and  C_17 
REMARK    6  A    between atoms: N_10  and  C_19 
REMARK    7  A    between atoms: C_11  and  C_12 
REMARK    8  A    between atoms: C_11  and  C_14 
REMARK    9  A    between atoms: C_12  and  C_15 
REMARK   10  A    between atoms: C_13  and  C_16 
REMARK   11  A    between atoms: C_13  and  C_17 
REMARK   12  A    between atoms: C_14  and  C_18 
REMARK   13  A    between atoms: C_19  and  C_20 
ROOT
HETATM    1  O   UNK N   1      22.572  14.288   6.885  0.00  0.00    -0.274 OA
HETATM    2  N   UNK N   1      20.392  14.789   7.055  0.00  0.00    -0.347 N 
HETATM    3  C   UNK N   1      21.488  14.075   7.406  0.00  0.00     0.218 C 
HETATM    4  H   UNK N   1      19.526  14.531   7.446  0.00  0.00     0.163 HD
ENDROOT
BRANCH   2   5
HETATM    5  C   UNK N   1      20.418  15.911   6.136  0.00  0.00     0.185 C 
BRANCH   5   6
HETATM    6  C   UNK N   1      20.575  17.192   6.947  0.00  0.00     0.105 C 
BRANCH   6   7
HETATM    7  S   UNK N   1      19.599  17.078   8.475  0.00  0.00    -0.180 SA
HETATM    8  H   UNK N   1      18.713  17.977   8.981  0.00  0.00     0.101 HD
ENDBRANCH   6   7
ENDBRANCH   5   6
BRANCH   5   9
HETATM    9  C   UNK N   1      19.128  15.939   5.329  0.00  0.00     0.241 C 
HETATM   10  O   UNK N   1      18.122  15.426   5.791  0.00  0.00    -0.271 OA
HETATM   11  N   UNK N   1      19.058  16.517   4.101  0.00  0.00    -0.349 N 
HETATM   12  H   UNK N   1      18.199  16.481   3.619  0.00  0.00     0.163 HD
BRANCH  11  13
HETATM   13  C   UNK N   1      20.168  17.182   3.464  0.00  0.00     0.232 C 
BRANCH  13  14
HETATM   14  C   UNK N   1      19.689  18.105   2.385  0.00  0.00     0.158 C 
HETATM   15  O   UNK N   1      20.399  18.319   1.417  0.00  0.00    -0.649 OA
BRANCH  14  16
HETATM   16  O   UNK N   1      18.487  18.710   2.479  0.00  0.00    -0.775 OA
HETATM   17  H   UNK N   1      17.948  18.638   3.241  0.00  0.00     0.167 HD
ENDBRANCH  14  16
ENDBRANCH  13  14
ENDBRANCH  11  13
ENDBRANCH   5   9
ENDBRANCH   2   5
BRANCH   3  18
HETATM   18  C   UNK N   1      21.370  13.043   8.477  0.00  0.00     0.105 C 
BRANCH  18  19
HETATM   19  C   UNK N   1      22.201  13.419   9.688  0.00  0.00     0.044 C 
BRANCH  19  20
HETATM   20  C   UNK N   1      23.424  12.516   9.788  0.00  0.00     0.173 C 
BRANCH  20  21
HETATM   21  N   UNK N   1      24.550  13.169   9.143  0.00  0.00    -0.418 N 
HETATM   22  H   UNK N   1      24.589  14.052   8.635  0.00  0.00     0.150 HD
HETATM   23  H   UNK N   1      25.436  12.667   9.208  0.00  0.00     0.150 HD
ENDBRANCH  20  21
BRANCH  20  24
HETATM   24  C   UNK N   1      23.785  12.185  11.213  0.00  0.00     0.163 C 
HETATM   25  O   UNK N   1      22.937  11.796  12.002  0.00  0.00    -0.648 OA
BRANCH  24  26
HETATM   26  O   UNK N   1      25.059  12.322  11.626  0.00  0.00    -0.775 OA
HETATM   27  H   UNK N   1      25.422  13.154  11.860  0.00  0.00     0.167 HD
ENDBRANCH  24  26
ENDBRANCH  20  24
ENDBRANCH  19  20
ENDBRANCH  18  19
ENDBRANCH   3  18
TORSDOF 13
ENDMDL
MODEL 8
REMARK VINA RESULT:      -5.2      9.892     12.142
REMARK  13 active torsions:
REMARK  status: ('A' for Active; 'I' for Inactive)
REMARK    1  A    between atoms: S_1  and  C_16 
REMARK    2  A    between atoms: O_4  and  C_18 
REMARK    3  A    between atoms: O_6  and  C_20 
REMARK    4  A    between atoms: C_13  and  N_8 
REMARK       I    between atoms: N_8  and  C_15 
REMARK    5  A    between atoms: C_14  and  N_9 
REMARK       I    between atoms: N_10  and  C_17 
REMARK    6  A    between atoms: N_10  and  C_19 
REMARK    7  A    between atoms: C_11  and  C_12 
REMARK    8  A    between atoms: C_11  and  C_14 
REMARK    9  A    between atoms: C_12  and  C_15 
REMARK   10  A    between atoms: C_13  and  C_16 
REMARK   11  A    between atoms: C_13  and  C_17 
REMARK   12  A    between atoms: C_14  and  C_18 
REMARK   13  A    between atoms: C_19  and  C_20 
ROOT
HETATM    1  O   UNK N   1      32.138  13.962   8.705  0.00  0.00    -0.274 OA
HETATM    2  N   UNK N   1      33.240  15.599   7.636  0.00  0.00    -0.347 N 
HETATM    3  C   UNK N   1      33.189  14.396   8.259  0.00  0.00     0.218 C 
HETATM    4  H   UNK N   1      34.121  15.941   7.362  0.00  0.00     0.163 HD
ENDROOT
BRANCH   2   5
HETATM    5  C   UNK N   1      32.073  16.412   7.352  0.00  0.00     0.185 C 
BRANCH   5   6
HETATM    6  C   UNK N   1      32.103  16.794   5.876  0.00  0.00     0.105 C 
BRANCH   6   7
HETATM    7  S   UNK N   1      33.626  16.169   5.108  0.00  0.00    -0.180 SA
HETATM    8  H   UNK N   1      34.759  15.726   5.717  0.00  0.00     0.101 HD
ENDBRANCH   6   7
ENDBRANCH   5   6
BRANCH   5   9
HETATM    9  C   UNK N   1      32.092  17.655   8.230  0.00  0.00     0.241 C 
HETATM   10  O   UNK N   1      33.082  18.366   8.239  0.00  0.00    -0.271 OA
HETATM   11  N   UNK N   1      31.035  18.000   9.013  0.00  0.00    -0.349 N 
HETATM   12  H   UNK N   1      31.119  18.803   9.578  0.00  0.00     0.163 HD
BRANCH  11  13
HETATM   13  C   UNK N   1      29.799  17.258   9.065  0.00  0.00     0.232 C 
BRANCH  13  14
HETATM   14  C   UNK N   1      28.632  18.146   8.757  0.00  0.00     0.158 C 
HETATM   15  O   UNK N   1      28.737  19.003   7.897  0.00  0.00    -0.649 OA
BRANCH  14  16
HETATM   16  O   UNK N   1      27.470  18.013   9.428  0.00  0.00    -0.775 OA
HETATM   17  H   UNK N   1      27.435  17.948  10.362  0.00  0.00     0.167 HD
ENDBRANCH  14  16
ENDBRANCH  13  14
ENDBRANCH  11  13
ENDBRANCH   5   9
ENDBRANCH   2   5
BRANCH   3  18
HETATM   18  C   UNK N   1      34.433  13.578   8.361  0.00  0.00     0.105 C 
BRANCH  18  19
HETATM   19  C   UNK N   1      35.650  14.462   8.547  0.00  0.00     0.044 C 
BRANCH  19  20
HETATM   20  C   UNK N   1      35.897  14.711  10.030  0.00  0.00     0.173 C 
BRANCH  20  21
HETATM   21  N   UNK N   1      37.294  14.452  10.329  0.00  0.00    -0.418 N 
HETATM   22  H   UNK N   1      38.055  14.182   9.708  0.00  0.00     0.150 HD
HETATM   23  H   UNK N   1      37.553  14.557  11.311  0.00  0.00     0.150 HD
ENDBRANCH  20  21
BRANCH  20  24
HETATM   24  C   UNK N   1      35.545  16.115  10.448  0.00  0.00     0.163 C 
HETATM   25  O   UNK N   1      36.417  16.932  10.705  0.00  0.00    -0.648 OA
BRANCH  24  26
HETATM   26  O   UNK N   1      34.252  16.477  10.544  0.00  0.00    -0.775 OA
HETATM   27  H   UNK N   1      33.576  15.864  10.759  0.00  0.00     0.167 HD
ENDBRANCH  24  26
ENDBRANCH  20  24
ENDBRANCH  19  20
ENDBRANCH  18  19
ENDBRANCH   3  18
TORSDOF 13
ENDMDL
MODEL 9
REMARK VINA RESULT:      -5.2      4.976      8.224
REMARK  13 active torsions:
REMARK  status: ('A' for Active; 'I' for Inactive)
REMARK    1  A    between atoms: S_1  and  C_16 
REMARK    2  A    between atoms: O_4  and  C_18 
REMARK    3  A    between atoms: O_6  and  C_20 
REMARK    4  A    between atoms: C_13  and  N_8 
REMARK       I    between atoms: N_8  and  C_15 
REMARK    5  A    between atoms: C_14  and  N_9 
REMARK       I    between atoms: N_10  and  C_17 
REMARK    6  A    between atoms: N_10  and  C_19 
REMARK    7  A    between atoms: C_11  and  C_12 
REMARK    8  A    between atoms: C_11  and  C_14 
REMARK    9  A    between atoms: C_12  and  C_15 
REMARK   10  A    between atoms: C_13  and  C_16 
REMARK   11  A    between atoms: C_13  and  C_17 
REMARK   12  A    between atoms: C_14  and  C_18 
REMARK   13  A    between atoms: C_19  and  C_20 
ROOT
HETATM    1  O   UNK N   1      21.228  15.564   1.039  0.00  0.00    -0.274 OA
HETATM    2  N   UNK N   1      19.816  16.068   2.707  0.00  0.00    -0.347 N 
HETATM    3  C   UNK N   1      20.436  16.349   1.536  0.00  0.00     0.218 C 
HETATM    4  H   UNK N   1      19.245  16.763   3.108  0.00  0.00     0.163 HD
ENDROOT
BRANCH   2   5
HETATM    5  C   UNK N   1      19.946  14.804   3.408  0.00  0.00     0.185 C 
BRANCH   5   6
HETATM    6  C   UNK N   1      19.263  13.724   2.576  0.00  0.00     0.105 C 
BRANCH   6   7
HETATM    7  S   UNK N   1      20.070  12.122   2.866  0.00  0.00    -0.180 SA
HETATM    8  H   UNK N   1      20.926  11.448   2.053  0.00  0.00     0.101 HD
ENDBRANCH   6   7
ENDBRANCH   5   6
BRANCH   5   9
HETATM    9  C   UNK N   1      19.299  14.914   4.781  0.00  0.00     0.241 C 
HETATM   10  O   UNK N   1      18.140  14.566   4.926  0.00  0.00    -0.271 OA
HETATM   11  N   UNK N   1      19.974  15.395   5.859  0.00  0.00    -0.349 N 
HETATM   12  H   UNK N   1      19.492  15.465   6.715  0.00  0.00     0.163 HD
BRANCH  11  13
HETATM   13  C   UNK N   1      21.355  15.808   5.821  0.00  0.00     0.232 C 
BRANCH  13  14
HETATM   14  C   UNK N   1      21.464  17.300   5.725  0.00  0.00     0.158 C 
HETATM   15  O   UNK N   1      21.664  17.821   4.642  0.00  0.00    -0.649 OA
BRANCH  14  16
HETATM   16  O   UNK N   1      21.352  18.071   6.827  0.00  0.00    -0.775 OA
HETATM   17  H   UNK N   1      21.429  17.721   7.692  0.00  0.00     0.167 HD
ENDBRANCH  14  16
ENDBRANCH  13  14
ENDBRANCH  11  13
ENDBRANCH   5   9
ENDBRANCH   2   5
BRANCH   3  18
HETATM   18  C   UNK N   1      20.109  17.621   0.828  0.00  0.00     0.105 C 
BRANCH  18  19
HETATM   19  C   UNK N   1      19.916  18.757   1.814  0.00  0.00     0.044 C 
BRANCH  19  20
HETATM   20  C   UNK N   1      20.916  19.872   1.533  0.00  0.00     0.173 C 
BRANCH  20  21
HETATM   21  N   UNK N   1      20.370  20.753   0.515  0.00  0.00    -0.418 N 
HETATM   22  H   UNK N   1      20.849  21.351  -0.157  0.00  0.00     0.150 HD
HETATM   23  H   UNK N   1      19.351  20.776   0.465  0.00  0.00     0.150 HD
ENDBRANCH  20  21
BRANCH  20  24
HETATM   24  C   UNK N   1      21.250  20.674   2.764  0.00  0.00     0.163 C 
HETATM   25  O   UNK N   1      22.224  21.412   2.788  0.00  0.00    -0.648 OA
BRANCH  24  26
HETATM   26  O   UNK N   1      20.469  20.574   3.856  0.00  0.00    -0.775 OA
HETATM   27  H   UNK N   1      20.534  19.855   4.453  0.00  0.00     0.167 HD
ENDBRANCH  24  26
ENDBRANCH  20  24
ENDBRANCH  19  20
ENDBRANCH  18  19
ENDBRANCH   3  18
TORSDOF 13
ENDMDL
