MODEL 1
REMARK VINA RESULT:      -4.0      0.000      0.000
REMARK  6 active torsions:
REMARK  status: ('A' for Active; 'I' for Inactive)
REMARK    1  A    between atoms: S_1  and  C_7 
REMARK    2  A    between atoms: O_2  and  C_8 
REMARK    3  A    between atoms: C_6  and  N_4 
REMARK    4  A    between atoms: C_5  and  C_6 
REMARK    5  A    between atoms: C_5  and  C_7 
REMARK    6  A    between atoms: C_6  and  C_8 
ROOT
HETATM    1  C   UNK N   1      33.857  17.335   9.000  0.00  0.00     0.174 C 
ENDROOT
BRANCH   1   2
HETATM    2  N   UNK N   1      34.669  17.054  10.175  0.00  0.00    -0.418 N 
HETATM    3  H   UNK N   1      34.249  16.784  11.064  0.00  0.00     0.150 HD
HETATM    4  H   UNK N   1      35.684  17.131  10.107  0.00  0.00     0.150 HD
ENDBRANCH   1   2
BRANCH   1   5
HETATM    5  C   UNK N   1      33.483  16.032   8.306  0.00  0.00     0.045 C 
BRANCH   5   6
HETATM    6  C   UNK N   1      32.050  15.677   8.661  0.00  0.00     0.076 C 
BRANCH   6   7
HETATM    7  S   UNK N   1      30.971  17.118   8.437  0.00  0.00    -0.173 SA
HETATM    8  C   UNK N   1      30.987  16.940   6.631  0.00  0.00     0.089 C 
ENDBRANCH   6   7
ENDBRANCH   5   6
ENDBRANCH   1   5
BRANCH   1   9
HETATM    9  C   UNK N   1      34.560  18.271   8.058  0.00  0.00     0.163 C 
HETATM   10  O   UNK N   1      34.468  18.118   6.843  0.00  0.00    -0.648 OA
BRANCH   9  11
HETATM   11  O   UNK N   1      35.327  19.261   8.542  0.00  0.00    -0.775 OA
HETATM   12  H   UNK N   1      36.021  19.079   9.145  0.00  0.00     0.167 HD
ENDBRANCH   9  11
ENDBRANCH   1   9
TORSDOF 6
ENDMDL
MODEL 2
REMARK VINA RESULT:      -3.9      1.738      2.108
REMARK  6 active torsions:
REMARK  status: ('A' for Active; 'I' for Inactive)
REMARK    1  A    between atoms: S_1  and  C_7 
REMARK    2  A    between atoms: O_2  and  C_8 
REMARK    3  A    between atoms: C_6  and  N_4 
REMARK    4  A    between atoms: C_5  and  C_6 
REMARK    5  A    between atoms: C_5  and  C_7 
REMARK    6  A    between atoms: C_6  and  C_8 
ROOT
HETATM    1  C   UNK N   1      33.058  17.777   8.582  0.00  0.00     0.174 C 
ENDROOT
BRANCH   1   2
HETATM    2  N   UNK N   1      33.398  16.662   9.455  0.00  0.00    -0.418 N 
HETATM    3  H   UNK N   1      32.680  16.068   9.869  0.00  0.00     0.150 HD
HETATM    4  H   UNK N   1      34.379  16.471   9.657  0.00  0.00     0.150 HD
ENDBRANCH   1   2
BRANCH   1   5
HETATM    5  C   UNK N   1      31.959  17.360   7.615  0.00  0.00     0.045 C 
BRANCH   5   6
HETATM    6  C   UNK N   1      30.693  17.070   8.401  0.00  0.00     0.076 C 
BRANCH   6   7
HETATM    7  S   UNK N   1      30.080  18.584   9.190  0.00  0.00    -0.173 SA
HETATM    8  C   UNK N   1      28.379  17.956   9.242  0.00  0.00     0.089 C 
ENDBRANCH   6   7
ENDBRANCH   5   6
ENDBRANCH   1   5
BRANCH   1   9
HETATM    9  C   UNK N   1      34.266  18.287   7.849  0.00  0.00     0.163 C 
HETATM   10  O   UNK N   1      35.023  19.094   8.381  0.00  0.00    -0.648 OA
BRANCH   9  11
HETATM   11  O   UNK N   1      34.504  17.890   6.588  0.00  0.00    -0.775 OA
HETATM   12  H   UNK N   1      33.800  17.773   5.981  0.00  0.00     0.167 HD
ENDBRANCH   9  11
ENDBRANCH   1   9
TORSDOF 6
ENDMDL
MODEL 3
REMARK VINA RESULT:      -3.8      2.523      3.447
REMARK  6 active torsions:
REMARK  status: ('A' for Active; 'I' for Inactive)
REMARK    1  A    between atoms: S_1  and  C_7 
REMARK    2  A    between atoms: O_2  and  C_8 
REMARK    3  A    between atoms: C_6  and  N_4 
REMARK    4  A    between atoms: C_5  and  C_6 
REMARK    5  A    between atoms: C_5  and  C_7 
REMARK    6  A    between atoms: C_6  and  C_8 
ROOT
HETATM    1  C   UNK N   1      34.361  17.115   9.099  0.00  0.00     0.174 C 
ENDROOT
BRANCH   1   2
HETATM    2  N   UNK N   1      35.008  17.277  10.392  0.00  0.00    -0.418 N 
HETATM    3  H   UNK N   1      35.443  16.491  10.876  0.00  0.00     0.150 HD
HETATM    4  H   UNK N   1      35.027  18.200  10.826  0.00  0.00     0.150 HD
ENDBRANCH   1   2
BRANCH   1   5
HETATM    5  C   UNK N   1      34.728  15.764   8.502  0.00  0.00     0.045 C 
BRANCH   5   6
HETATM    6  C   UNK N   1      35.557  14.987   9.510  0.00  0.00     0.076 C 
BRANCH   6   7
HETATM    7  S   UNK N   1      34.639  13.537  10.096  0.00  0.00    -0.173 SA
HETATM    8  C   UNK N   1      35.002  13.919  11.832  0.00  0.00     0.089 C 
ENDBRANCH   6   7
ENDBRANCH   5   6
ENDBRANCH   1   5
BRANCH   1   9
HETATM    9  C   UNK N   1      34.713  18.238   8.165  0.00  0.00     0.163 C 
HETATM   10  O   UNK N   1      35.286  19.240   8.584  0.00  0.00    -0.648 OA
BRANCH   9  11
HETATM   11  O   UNK N   1      34.368  18.168   6.869  0.00  0.00    -0.775 OA
HETATM   12  H   UNK N   1      34.533  18.886   6.290  0.00  0.00     0.167 HD
ENDBRANCH   9  11
ENDBRANCH   1   9
TORSDOF 6
ENDMDL
MODEL 4
REMARK VINA RESULT:      -3.8     13.126     14.025
REMARK  6 active torsions:
REMARK  status: ('A' for Active; 'I' for Inactive)
REMARK    1  A    between atoms: S_1  and  C_7 
REMARK    2  A    between atoms: O_2  and  C_8 
REMARK    3  A    between atoms: C_6  and  N_4 
REMARK    4  A    between atoms: C_5  and  C_6 
REMARK    5  A    between atoms: C_5  and  C_7 
REMARK    6  A    between atoms: C_6  and  C_8 
ROOT
HETATM    1  C   UNK N   1      20.465  19.213   2.098  0.00  0.00     0.174 C 
ENDROOT
BRANCH   1   2
HETATM    2  N   UNK N   1      19.020  19.139   2.249  0.00  0.00    -0.418 N 
HETATM    3  H   UNK N   1      18.401  19.036   1.446  0.00  0.00     0.150 HD
HETATM    4  H   UNK N   1      18.616  19.192   3.185  0.00  0.00     0.150 HD
ENDBRANCH   1   2
BRANCH   1   5
HETATM    5  C   UNK N   1      21.129  19.241   3.468  0.00  0.00     0.045 C 
BRANCH   5   6
HETATM    6  C   UNK N   1      21.805  17.905   3.717  0.00  0.00     0.076 C 
BRANCH   6   7
HETATM    7  S   UNK N   1      22.842  17.992   5.203  0.00  0.00    -0.173 SA
HETATM    8  C   UNK N   1      21.396  18.067   6.296  0.00  0.00     0.089 C 
ENDBRANCH   6   7
ENDBRANCH   5   6
ENDBRANCH   1   5
BRANCH   1   9
HETATM    9  C   UNK N   1      20.871  20.400   1.271  0.00  0.00     0.163 C 
HETATM   10  O   UNK N   1      21.427  21.362   1.794  0.00  0.00    -0.648 OA
BRANCH   9  11
HETATM   11  O   UNK N   1      20.592  20.432  -0.042  0.00  0.00    -0.775 OA
HETATM   12  H   UNK N   1      21.233  20.721  -0.661  0.00  0.00     0.167 HD
ENDBRANCH   9  11
ENDBRANCH   1   9
TORSDOF 6
ENDMDL
MODEL 5
REMARK VINA RESULT:      -3.6      1.318      1.347
REMARK  6 active torsions:
REMARK  status: ('A' for Active; 'I' for Inactive)
REMARK    1  A    between atoms: S_1  and  C_7 
REMARK    2  A    between atoms: O_2  and  C_8 
REMARK    3  A    between atoms: C_6  and  N_4 
REMARK    4  A    between atoms: C_5  and  C_6 
REMARK    5  A    between atoms: C_5  and  C_7 
REMARK    6  A    between atoms: C_6  and  C_8 
ROOT
HETATM    1  C   UNK N   1      33.063  17.776   8.544  0.00  0.00     0.174 C 
ENDROOT
BRANCH   1   2
HETATM    2  N   UNK N   1      33.425  16.756   9.517  0.00  0.00    -0.418 N 
HETATM    3  H   UNK N   1      32.729  16.127   9.917  0.00  0.00     0.150 HD
HETATM    4  H   UNK N   1      34.399  16.669   9.805  0.00  0.00     0.150 HD
ENDBRANCH   1   2
BRANCH   1   5
HETATM    5  C   UNK N   1      32.063  17.209   7.546  0.00  0.00     0.045 C 
BRANCH   5   6
HETATM    6  C   UNK N   1      30.752  16.934   8.263  0.00  0.00     0.076 C 
BRANCH   6   7
HETATM    7  S   UNK N   1      29.371  16.978   7.088  0.00  0.00    -0.173 SA
HETATM    8  C   UNK N   1      30.491  17.066   5.663  0.00  0.00     0.089 C 
ENDBRANCH   6   7
ENDBRANCH   5   6
ENDBRANCH   1   5
BRANCH   1   9
HETATM    9  C   UNK N   1      34.276  18.326   7.848  0.00  0.00     0.163 C 
HETATM   10  O   UNK N   1      34.511  18.028   6.680  0.00  0.00    -0.648 OA
BRANCH   9  11
HETATM   11  O   UNK N   1      35.132  19.116   8.513  0.00  0.00    -0.775 OA
HETATM   12  H   UNK N   1      35.999  18.822   8.714  0.00  0.00     0.167 HD
ENDBRANCH   9  11
ENDBRANCH   1   9
TORSDOF 6
ENDMDL
MODEL 6
REMARK VINA RESULT:      -3.6     13.655     14.095
REMARK  6 active torsions:
REMARK  status: ('A' for Active; 'I' for Inactive)
REMARK    1  A    between atoms: S_1  and  C_7 
REMARK    2  A    between atoms: O_2  and  C_8 
REMARK    3  A    between atoms: C_6  and  N_4 
REMARK    4  A    between atoms: C_5  and  C_6 
REMARK    5  A    between atoms: C_5  and  C_7 
REMARK    6  A    between atoms: C_6  and  C_8 
ROOT
HETATM    1  C   UNK N   1      20.658  19.248   2.320  0.00  0.00     0.174 C 
ENDROOT
BRANCH   1   2
HETATM    2  N   UNK N   1      19.205  19.197   2.391  0.00  0.00    -0.418 N 
HETATM    3  H   UNK N   1      18.722  18.769   3.180  0.00  0.00     0.150 HD
HETATM    4  H   UNK N   1      18.657  19.599   1.631  0.00  0.00     0.150 HD
ENDBRANCH   1   2
BRANCH   1   5
HETATM    5  C   UNK N   1      21.252  19.005   3.701  0.00  0.00     0.045 C 
BRANCH   5   6
HETATM    6  C   UNK N   1      20.749  17.672   4.228  0.00  0.00     0.076 C 
BRANCH   6   7
HETATM    7  S   UNK N   1      21.572  16.304   3.367  0.00  0.00    -0.173 SA
HETATM    8  C   UNK N   1      19.996  15.468   3.036  0.00  0.00     0.089 C 
ENDBRANCH   6   7
ENDBRANCH   5   6
ENDBRANCH   1   5
BRANCH   1   9
HETATM    9  C   UNK N   1      21.134  20.550   1.743  0.00  0.00     0.163 C 
HETATM   10  O   UNK N   1      21.281  20.677   0.530  0.00  0.00    -0.648 OA
BRANCH   9  11
HETATM   11  O   UNK N   1      21.439  21.574   2.555  0.00  0.00    -0.775 OA
HETATM   12  H   UNK N   1      21.839  21.422   3.388  0.00  0.00     0.167 HD
ENDBRANCH   9  11
ENDBRANCH   1   9
TORSDOF 6
ENDMDL
MODEL 7
REMARK VINA RESULT:      -3.5     10.697     11.630
REMARK  6 active torsions:
REMARK  status: ('A' for Active; 'I' for Inactive)
REMARK    1  A    between atoms: S_1  and  C_7 
REMARK    2  A    between atoms: O_2  and  C_8 
REMARK    3  A    between atoms: C_6  and  N_4 
REMARK    4  A    between atoms: C_5  and  C_6 
REMARK    5  A    between atoms: C_5  and  C_7 
REMARK    6  A    between atoms: C_6  and  C_8 
ROOT
HETATM    1  C   UNK N   1      23.775  12.121  10.914  0.00  0.00     0.174 C 
ENDROOT
BRANCH   1   2
HETATM    2  N   UNK N   1      25.133  12.621  11.067  0.00  0.00    -0.418 N 
HETATM    3  H   UNK N   1      25.331  13.493  11.557  0.00  0.00     0.150 HD
HETATM    4  H   UNK N   1      25.907  12.085  10.674  0.00  0.00     0.150 HD
ENDBRANCH   1   2
BRANCH   1   5
HETATM    5  C   UNK N   1      22.978  13.057  10.016  0.00  0.00     0.045 C 
BRANCH   5   6
HETATM    6  C   UNK N   1      22.903  12.459   8.622  0.00  0.00     0.076 C 
BRANCH   6   7
HETATM    7  S   UNK N   1      23.316  13.712   7.377  0.00  0.00    -0.173 SA
HETATM    8  C   UNK N   1      25.094  13.379   7.526  0.00  0.00     0.089 C 
ENDBRANCH   6   7
ENDBRANCH   5   6
ENDBRANCH   1   5
BRANCH   1   9
HETATM    9  C   UNK N   1      23.103  11.940  12.246  0.00  0.00     0.163 C 
HETATM   10  O   UNK N   1      23.746  12.050  13.287  0.00  0.00    -0.648 OA
BRANCH   9  11
HETATM   11  O   UNK N   1      21.802  11.617  12.304  0.00  0.00    -0.775 OA
HETATM   12  H   UNK N   1      21.263  11.658  11.538  0.00  0.00     0.167 HD
ENDBRANCH   9  11
ENDBRANCH   1   9
TORSDOF 6
ENDMDL
MODEL 8
REMARK VINA RESULT:      -3.3     12.140     12.788
REMARK  6 active torsions:
REMARK  status: ('A' for Active; 'I' for Inactive)
REMARK    1  A    between atoms: S_1  and  C_7 
REMARK    2  A    between atoms: O_2  and  C_8 
REMARK    3  A    between atoms: C_6  and  N_4 
REMARK    4  A    between atoms: C_5  and  C_6 
REMARK    5  A    between atoms: C_5  and  C_7 
REMARK    6  A    between atoms: C_6  and  C_8 
ROOT
HETATM    1  C   UNK N   1      44.182  22.222   4.158  0.00  0.00     0.174 C 
ENDROOT
BRANCH   1   2
HETATM    2  N   UNK N   1      45.628  22.062   4.181  0.00  0.00    -0.418 N 
HETATM    3  H   UNK N   1      46.254  22.861   4.281  0.00  0.00     0.150 HD
HETATM    4  H   UNK N   1      46.025  21.127   4.094  0.00  0.00     0.150 HD
ENDBRANCH   1   2
BRANCH   1   5
HETATM    5  C   UNK N   1      43.526  20.931   3.689  0.00  0.00     0.045 C 
BRANCH   5   6
HETATM    6  C   UNK N   1      44.377  20.315   2.592  0.00  0.00     0.076 C 
BRANCH   6   7
HETATM    7  S   UNK N   1      44.744  18.581   2.979  0.00  0.00    -0.173 SA
HETATM    8  C   UNK N   1      43.172  18.015   2.273  0.00  0.00     0.089 C 
ENDBRANCH   6   7
ENDBRANCH   5   6
ENDBRANCH   1   5
BRANCH   1   9
HETATM    9  C   UNK N   1      43.771  23.385   3.300  0.00  0.00     0.163 C 
HETATM   10  O   UNK N   1      44.561  24.297   3.068  0.00  0.00    -0.648 OA
BRANCH   9  11
HETATM   11  O   UNK N   1      42.522  23.454   2.813  0.00  0.00    -0.775 OA
HETATM   12  H   UNK N   1      41.781  23.370   3.380  0.00  0.00     0.167 HD
ENDBRANCH   9  11
ENDBRANCH   1   9
TORSDOF 6
ENDMDL
MODEL 9
REMARK VINA RESULT:      -3.3      3.384      3.724
REMARK  6 active torsions:
REMARK  status: ('A' for Active; 'I' for Inactive)
REMARK    1  A    between atoms: S_1  and  C_7 
REMARK    2  A    between atoms: O_2  and  C_8 
REMARK    3  A    between atoms: C_6  and  N_4 
REMARK    4  A    between atoms: C_5  and  C_6 
REMARK    5  A    between atoms: C_5  and  C_7 
REMARK    6  A    between atoms: C_6  and  C_8 
ROOT
HETATM    1  C   UNK N   1      35.292  15.694  10.449  0.00  0.00     0.174 C 
ENDROOT
BRANCH   1   2
HETATM    2  N   UNK N   1      35.014  17.121  10.527  0.00  0.00    -0.418 N 
HETATM    3  H   UNK N   1      35.494  17.793   9.930  0.00  0.00     0.150 HD
HETATM    4  H   UNK N   1      34.322  17.455  11.198  0.00  0.00     0.150 HD
ENDBRANCH   1   2
BRANCH   1   5
HETATM    5  C   UNK N   1      35.274  15.242   8.996  0.00  0.00     0.045 C 
BRANCH   5   6
HETATM    6  C   UNK N   1      34.621  16.322   8.150  0.00  0.00     0.076 C 
BRANCH   6   7
HETATM    7  S   UNK N   1      33.067  15.713   7.442  0.00  0.00    -0.173 SA
HETATM    8  C   UNK N   1      32.645  17.348   6.777  0.00  0.00     0.089 C 
ENDBRANCH   6   7
ENDBRANCH   5   6
ENDBRANCH   1   5
BRANCH   1   9
HETATM    9  C   UNK N   1      34.323  14.900  11.279  0.00  0.00     0.163 C 
HETATM   10  O   UNK N   1      34.728  14.151  12.163  0.00  0.00    -0.648 OA
BRANCH   9  11
HETATM   11  O   UNK N   1      33.005  14.976  11.031  0.00  0.00    -0.775 OA
HETATM   12  H   UNK N   1      32.690  15.308  10.213  0.00  0.00     0.167 HD
ENDBRANCH   9  11
ENDBRANCH   1   9
TORSDOF 6
ENDMDL
