MODEL 1
REMARK VINA RESULT:      -7.4      0.000      0.000
REMARK  9 active torsions:
REMARK  status: ('A' for Active; 'I' for Inactive)
REMARK    1  A    between atoms: C_6  and  C_8 
REMARK    2  A    between atoms: C_13  and  O_15 
REMARK    3  A    between atoms: C_23  and  C_17 
REMARK    4  A    between atoms: C_17  and  C_18 
REMARK    5  A    between atoms: C_18  and  C_19 
REMARK    6  A    between atoms: C_19  and  C_22 
REMARK    7  A    between atoms: C_22  and  C_27 
REMARK    8  A    between atoms: C_27  and  O_28 
REMARK    9  A    between atoms: C_29  and  O_30 
ROOT
HETATM    1  C   UNK N   1      28.121  17.173   8.705  0.00  0.00     0.010 C 
HETATM    2  C   UNK N   1      30.939  17.915   8.379  0.00  0.00    -0.075 C 
HETATM    3  C   UNK N   1      30.645  17.101   5.911  0.00  0.00     0.010 C 
HETATM    4  C   UNK N   1      29.407  16.598   5.146  0.00  0.00     0.006 C 
HETATM    5  C   UNK N   1      28.869  18.016   9.781  0.00  0.00     0.005 C 
HETATM    6  C   UNK N   1      32.264  17.844   8.578  0.00  0.00     0.004 C 
HETATM    7  C   UNK N   1      30.101  18.798   9.262  0.00  0.00     0.034 C 
HETATM    8  C   UNK N   1      28.318  16.350   6.210  0.00  0.00    -0.002 C 
HETATM    9  C   UNK N   1      30.222  17.039   7.373  0.00  0.00     0.023 C 
HETATM   10  C   UNK N   1      28.727  17.344   7.307  0.00  0.00    -0.033 C 
HETATM   11  C   UNK N   1      28.440  18.786   6.827  0.00  0.00     0.016 C 
ENDROOT
BRANCH   6  12
HETATM   12  C   UNK N   1      33.124  16.945   7.782  0.00  0.00     0.008 C 
HETATM   13  C   UNK N   1      33.570  15.757   8.230  0.00  0.00    -0.048 C 
HETATM   14  C   UNK N   1      34.493  14.938   7.383  0.00  0.00    -0.033 C 
HETATM   15  C   UNK N   1      33.215  15.286   9.610  0.00  0.00     0.071 C 
HETATM   16  C   UNK N   1      35.172  13.711   7.965  0.00  0.00     0.153 C 
HETATM   17  C   UNK N   1      34.857  15.352   6.169  0.00  0.00     0.022 C 
HETATM   18  C   UNK N   1      34.670  13.314   9.355  0.00  0.00     0.068 C 
HETATM   19  C   UNK N   1      34.380  14.527  10.226  0.00  0.00     0.125 C 
BRANCH  16  20
HETATM   20  O   UNK N   1      35.030  12.620   7.106  0.00  0.00    -0.391 OA
HETATM   21  H   UNK N   1      35.310  11.700   6.976  0.00  0.00     0.210 HD
ENDBRANCH  16  20
BRANCH  19  22
HETATM   22  O   UNK N   1      34.024  14.102  11.505  0.00  0.00    -0.395 OA
HETATM   23  H   UNK N   1      34.676  14.082  12.224  0.00  0.00     0.210 HD
ENDBRANCH  19  22
ENDBRANCH   6  12
BRANCH   8  24
HETATM   24  C   UNK N   1      26.878  16.515   5.678  0.00  0.00    -0.014 C 
HETATM   25  C   UNK N   1      25.921  15.551   6.361  0.00  0.00     0.010 C 
BRANCH  24  26
HETATM   26  C   UNK N   1      26.731  16.419   4.155  0.00  0.00     0.005 C 
BRANCH  26  27
HETATM   27  C   UNK N   1      25.856  17.497   3.531  0.00  0.00     0.003 C 
BRANCH  27  28
HETATM   28  C   UNK N   1      25.809  18.667   4.511  0.00  0.00     0.037 C 
BRANCH  28  29
HETATM   29  C   UNK N   1      26.386  19.969   3.965  0.00  0.00     0.051 C 
HETATM   30  C   UNK N   1      26.405  21.038   5.043  0.00  0.00     0.045 C 
HETATM   31  C   UNK N   1      25.580  20.460   2.776  0.00  0.00     0.045 C 
BRANCH  29  32
HETATM   32  O   UNK N   1      27.695  19.732   3.550  0.00  0.00    -0.391 OA
HETATM   33  H   UNK N   1      28.530  19.738   4.043  0.00  0.00     0.210 HD
ENDBRANCH  29  32
ENDBRANCH  28  29
ENDBRANCH  27  28
ENDBRANCH  26  27
ENDBRANCH  24  26
ENDBRANCH   8  24
TORSDOF 9
ENDMDL
MODEL 2
REMARK VINA RESULT:      -7.2      6.122     11.038
REMARK  9 active torsions:
REMARK  status: ('A' for Active; 'I' for Inactive)
REMARK    1  A    between atoms: C_6  and  C_8 
REMARK    2  A    between atoms: C_13  and  O_15 
REMARK    3  A    between atoms: C_23  and  C_17 
REMARK    4  A    between atoms: C_17  and  C_18 
REMARK    5  A    between atoms: C_18  and  C_19 
REMARK    6  A    between atoms: C_19  and  C_22 
REMARK    7  A    between atoms: C_22  and  C_27 
REMARK    8  A    between atoms: C_27  and  O_28 
REMARK    9  A    between atoms: C_29  and  O_30 
ROOT
HETATM    1  C   UNK N   1      37.023  10.317  11.693  0.00  0.00     0.010 C 
HETATM    2  C   UNK N   1      35.104  10.448  13.906  0.00  0.00    -0.075 C 
HETATM    3  C   UNK N   1      35.290  13.042  13.631  0.00  0.00     0.010 C 
HETATM    4  C   UNK N   1      36.050  13.905  12.606  0.00  0.00     0.006 C 
HETATM    5  C   UNK N   1      36.257   9.051  12.180  0.00  0.00     0.005 C 
HETATM    6  C   UNK N   1      34.658  10.296  15.163  0.00  0.00     0.004 C 
HETATM    7  C   UNK N   1      34.923   9.333  12.914  0.00  0.00     0.034 C 
HETATM    8  C   UNK N   1      37.002  12.946  11.862  0.00  0.00    -0.002 C 
HETATM    9  C   UNK N   1      35.905  11.657  13.471  0.00  0.00     0.023 C 
HETATM   10  C   UNK N   1      36.253  11.611  11.984  0.00  0.00    -0.033 C 
HETATM   11  C   UNK N   1      34.998  11.642  11.082  0.00  0.00     0.016 C 
ENDROOT
BRANCH   6  12
HETATM   12  C   UNK N   1      34.868  11.333  16.194  0.00  0.00     0.008 C 
HETATM   13  C   UNK N   1      35.043  11.057  17.499  0.00  0.00    -0.048 C 
HETATM   14  C   UNK N   1      35.181  12.172  18.487  0.00  0.00    -0.033 C 
HETATM   15  C   UNK N   1      35.015   9.636  17.983  0.00  0.00     0.071 C 
HETATM   16  C   UNK N   1      35.158  11.877  19.976  0.00  0.00     0.153 C 
HETATM   17  C   UNK N   1      35.169  13.445  18.089  0.00  0.00     0.022 C 
HETATM   18  C   UNK N   1      35.190  10.387  20.322  0.00  0.00     0.068 C 
HETATM   19  C   UNK N   1      34.362   9.557  19.354  0.00  0.00     0.125 C 
BRANCH  16  20
HETATM   20  O   UNK N   1      36.222  12.512  20.618  0.00  0.00    -0.391 OA
HETATM   21  H   UNK N   1      36.511  12.851  21.480  0.00  0.00     0.210 HD
ENDBRANCH  16  20
BRANCH  19  22
HETATM   22  O   UNK N   1      34.348   8.229  19.778  0.00  0.00    -0.395 OA
HETATM   23  H   UNK N   1      35.168   7.713  19.831  0.00  0.00     0.210 HD
ENDBRANCH  19  22
ENDBRANCH   6  12
BRANCH   8  24
HETATM   24  C   UNK N   1      37.328  13.387  10.419  0.00  0.00    -0.014 C 
HETATM   25  C   UNK N   1      38.823  13.335  10.147  0.00  0.00     0.010 C 
BRANCH  24  26
HETATM   26  C   UNK N   1      36.762  14.752  10.010  0.00  0.00     0.005 C 
BRANCH  26  27
HETATM   27  C   UNK N   1      35.691  14.699   8.930  0.00  0.00     0.003 C 
BRANCH  27  28
HETATM   28  C   UNK N   1      34.617  15.717   9.305  0.00  0.00     0.037 C 
BRANCH  28  29
HETATM   29  C   UNK N   1      33.231  15.120   9.525  0.00  0.00     0.051 C 
HETATM   30  C   UNK N   1      33.130  13.750   8.880  0.00  0.00     0.045 C 
HETATM   31  C   UNK N   1      32.156  16.030   8.960  0.00  0.00     0.045 C 
BRANCH  29  32
HETATM   32  O   UNK N   1      33.024  14.983  10.897  0.00  0.00    -0.391 OA
HETATM   33  H   UNK N   1      32.899  15.648  11.591  0.00  0.00     0.210 HD
ENDBRANCH  29  32
ENDBRANCH  28  29
ENDBRANCH  27  28
ENDBRANCH  26  27
ENDBRANCH  24  26
ENDBRANCH   8  24
TORSDOF 9
ENDMDL
MODEL 3
REMARK VINA RESULT:      -7.1      3.279      9.997
REMARK  9 active torsions:
REMARK  status: ('A' for Active; 'I' for Inactive)
REMARK    1  A    between atoms: C_6  and  C_8 
REMARK    2  A    between atoms: C_13  and  O_15 
REMARK    3  A    between atoms: C_23  and  C_17 
REMARK    4  A    between atoms: C_17  and  C_18 
REMARK    5  A    between atoms: C_18  and  C_19 
REMARK    6  A    between atoms: C_19  and  C_22 
REMARK    7  A    between atoms: C_22  and  C_27 
REMARK    8  A    between atoms: C_27  and  O_28 
REMARK    9  A    between atoms: C_29  and  O_30 
ROOT
HETATM    1  C   UNK N   1      26.998  15.827   7.380  0.00  0.00     0.010 C 
HETATM    2  C   UNK N   1      24.967  16.171   5.292  0.00  0.00    -0.075 C 
HETATM    3  C   UNK N   1      26.770  17.625   4.078  0.00  0.00     0.010 C 
HETATM    4  C   UNK N   1      28.236  17.935   4.434  0.00  0.00     0.006 C 
HETATM    5  C   UNK N   1      25.706  14.957   7.352  0.00  0.00     0.005 C 
HETATM    6  C   UNK N   1      23.811  16.587   4.752  0.00  0.00     0.004 C 
HETATM    7  C   UNK N   1      25.032  14.826   5.964  0.00  0.00     0.034 C 
HETATM    8  C   UNK N   1      28.435  17.454   5.886  0.00  0.00    -0.002 C 
HETATM    9  C   UNK N   1      26.192  17.057   5.369  0.00  0.00     0.023 C 
HETATM   10  C   UNK N   1      27.388  16.335   5.986  0.00  0.00    -0.033 C 
HETATM   11  C   UNK N   1      27.848  15.124   5.141  0.00  0.00     0.016 C 
ENDROOT
BRANCH   6  12
HETATM   12  C   UNK N   1      23.676  17.923   4.139  0.00  0.00     0.008 C 
HETATM   13  C   UNK N   1      22.493  18.468   3.799  0.00  0.00    -0.048 C 
HETATM   14  C   UNK N   1      22.451  19.800   3.120  0.00  0.00    -0.033 C 
HETATM   15  C   UNK N   1      21.218  17.708   4.023  0.00  0.00     0.071 C 
HETATM   16  C   UNK N   1      21.147  20.317   2.539  0.00  0.00     0.153 C 
HETATM   17  C   UNK N   1      23.572  20.479   2.873  0.00  0.00     0.022 C 
HETATM   18  C   UNK N   1      19.922  19.473   2.895  0.00  0.00     0.068 C 
HETATM   19  C   UNK N   1      20.234  17.984   2.897  0.00  0.00     0.125 C 
BRANCH  16  20
HETATM   20  O   UNK N   1      20.920  21.634   2.942  0.00  0.00    -0.391 OA
HETATM   21  H   UNK N   1      20.330  22.184   3.481  0.00  0.00     0.210 HD
ENDBRANCH  16  20
BRANCH  19  22
HETATM   22  O   UNK N   1      19.061  17.267   3.128  0.00  0.00    -0.395 OA
HETATM   23  H   UNK N   1      18.905  16.825   3.978  0.00  0.00     0.210 HD
ENDBRANCH  19  22
ENDBRANCH   6  12
BRANCH   8  24
HETATM   24  C   UNK N   1      29.883  17.029   6.210  0.00  0.00    -0.014 C 
HETATM   25  C   UNK N   1      30.309  17.514   7.586  0.00  0.00     0.010 C 
BRANCH  24  26
HETATM   26  C   UNK N   1      30.929  17.425   5.160  0.00  0.00     0.005 C 
BRANCH  26  27
HETATM   27  C   UNK N   1      31.955  16.347   4.845  0.00  0.00     0.003 C 
BRANCH  27  28
HETATM   28  C   UNK N   1      33.337  16.951   5.079  0.00  0.00     0.037 C 
BRANCH  28  29
HETATM   29  C   UNK N   1      34.033  16.465   6.345  0.00  0.00     0.051 C 
HETATM   30  C   UNK N   1      33.284  15.292   6.950  0.00  0.00     0.045 C 
HETATM   31  C   UNK N   1      34.137  17.584   7.366  0.00  0.00     0.045 C 
BRANCH  29  32
HETATM   32  O   UNK N   1      35.319  16.047   6.008  0.00  0.00    -0.391 OA
HETATM   33  H   UNK N   1      35.651  15.574   5.229  0.00  0.00     0.210 HD
ENDBRANCH  29  32
ENDBRANCH  28  29
ENDBRANCH  27  28
ENDBRANCH  26  27
ENDBRANCH  24  26
ENDBRANCH   8  24
TORSDOF 9
ENDMDL
MODEL 4
REMARK VINA RESULT:      -7.1      9.607     14.066
REMARK  9 active torsions:
REMARK  status: ('A' for Active; 'I' for Inactive)
REMARK    1  A    between atoms: C_6  and  C_8 
REMARK    2  A    between atoms: C_13  and  O_15 
REMARK    3  A    between atoms: C_23  and  C_17 
REMARK    4  A    between atoms: C_17  and  C_18 
REMARK    5  A    between atoms: C_18  and  C_19 
REMARK    6  A    between atoms: C_19  and  C_22 
REMARK    7  A    between atoms: C_22  and  C_27 
REMARK    8  A    between atoms: C_27  and  O_28 
REMARK    9  A    between atoms: C_29  and  O_30 
ROOT
HETATM    1  C   UNK N   1      34.393  12.596  15.896  0.00  0.00     0.010 C 
HETATM    2  C   UNK N   1      35.237  11.450  18.460  0.00  0.00    -0.075 C 
HETATM    3  C   UNK N   1      35.577   9.234  17.112  0.00  0.00     0.010 C 
HETATM    4  C   UNK N   1      35.443   8.926  15.610  0.00  0.00     0.006 C 
HETATM    5  C   UNK N   1      34.691  13.498  17.130  0.00  0.00     0.005 C 
HETATM    6  C   UNK N   1      35.102  11.030  19.727  0.00  0.00     0.004 C 
HETATM    7  C   UNK N   1      35.636  12.874  18.187  0.00  0.00     0.034 C 
HETATM    8  C   UNK N   1      34.744  10.149  14.983  0.00  0.00    -0.002 C 
HETATM    9  C   UNK N   1      34.879  10.578  17.274  0.00  0.00     0.023 C 
HETATM   10  C   UNK N   1      35.164  11.271  15.943  0.00  0.00    -0.033 C 
HETATM   11  C   UNK N   1      36.667  11.578  15.748  0.00  0.00     0.016 C 
ENDROOT
BRANCH   6  12
HETATM   12  C   UNK N   1      34.651   9.661  20.050  0.00  0.00     0.008 C 
HETATM   13  C   UNK N   1      33.772   9.381  21.029  0.00  0.00    -0.048 C 
HETATM   14  C   UNK N   1      33.420   7.959  21.335  0.00  0.00    -0.033 C 
HETATM   15  C   UNK N   1      33.205  10.484  21.876  0.00  0.00     0.071 C 
HETATM   16  C   UNK N   1      32.606   7.625  22.571  0.00  0.00     0.153 C 
HETATM   17  C   UNK N   1      33.940   6.958  20.624  0.00  0.00     0.022 C 
HETATM   18  C   UNK N   1      32.044   8.846  23.303  0.00  0.00     0.068 C 
HETATM   19  C   UNK N   1      33.023  10.010  23.309  0.00  0.00     0.125 C 
BRANCH  16  20
HETATM   20  O   UNK N   1      31.553   6.769  22.247  0.00  0.00    -0.391 OA
HETATM   21  H   UNK N   1      31.336   5.834  22.103  0.00  0.00     0.210 HD
ENDBRANCH  16  20
BRANCH  19  22
HETATM   22  O   UNK N   1      32.497  11.051  24.072  0.00  0.00    -0.395 OA
HETATM   23  H   UNK N   1      32.099  11.829  23.650  0.00  0.00     0.210 HD
ENDBRANCH  19  22
ENDBRANCH   6  12
BRANCH   8  24
HETATM   24  C   UNK N   1      35.106  10.384  13.501  0.00  0.00    -0.014 C 
HETATM   25  C   UNK N   1      33.879  10.287  12.607  0.00  0.00     0.010 C 
BRANCH  24  26
HETATM   26  C   UNK N   1      36.230   9.494  12.956  0.00  0.00     0.005 C 
BRANCH  26  27
HETATM   27  C   UNK N   1      37.049  10.118  11.835  0.00  0.00     0.003 C 
BRANCH  27  28
HETATM   28  C   UNK N   1      37.668  11.400  12.385  0.00  0.00     0.037 C 
BRANCH  28  29
HETATM   29  C   UNK N   1      37.260  12.668  11.641  0.00  0.00     0.051 C 
HETATM   30  C   UNK N   1      36.555  13.633  12.577  0.00  0.00     0.045 C 
HETATM   31  C   UNK N   1      36.350  12.337  10.471  0.00  0.00     0.045 C 
BRANCH  29  32
HETATM   32  O   UNK N   1      38.411  13.282  11.152  0.00  0.00    -0.391 OA
HETATM   33  H   UNK N   1      38.639  14.219  11.053  0.00  0.00     0.210 HD
ENDBRANCH  29  32
ENDBRANCH  28  29
ENDBRANCH  27  28
ENDBRANCH  26  27
ENDBRANCH  24  26
ENDBRANCH   8  24
TORSDOF 9
ENDMDL
MODEL 5
REMARK VINA RESULT:      -7.0      4.274      8.838
REMARK  9 active torsions:
REMARK  status: ('A' for Active; 'I' for Inactive)
REMARK    1  A    between atoms: C_6  and  C_8 
REMARK    2  A    between atoms: C_13  and  O_15 
REMARK    3  A    between atoms: C_23  and  C_17 
REMARK    4  A    between atoms: C_17  and  C_18 
REMARK    5  A    between atoms: C_18  and  C_19 
REMARK    6  A    between atoms: C_19  and  C_22 
REMARK    7  A    between atoms: C_22  and  C_27 
REMARK    8  A    between atoms: C_27  and  O_28 
REMARK    9  A    between atoms: C_29  and  O_30 
ROOT
HETATM    1  C   UNK N   1      26.249  15.559   3.120  0.00  0.00     0.010 C 
HETATM    2  C   UNK N   1      24.350  15.386   5.349  0.00  0.00    -0.075 C 
HETATM    3  C   UNK N   1      26.428  15.840   6.871  0.00  0.00     0.010 C 
HETATM    4  C   UNK N   1      27.895  16.150   6.525  0.00  0.00     0.006 C 
HETATM    5  C   UNK N   1      24.710  15.566   2.879  0.00  0.00     0.005 C 
HETATM    6  C   UNK N   1      23.473  14.802   6.179  0.00  0.00     0.004 C 
HETATM    7  C   UNK N   1      23.858  16.035   4.085  0.00  0.00     0.034 C 
HETATM    8  C   UNK N   1      28.051  15.854   5.019  0.00  0.00    -0.002 C 
HETATM    9  C   UNK N   1      25.847  15.310   5.566  0.00  0.00     0.023 C 
HETATM   10  C   UNK N   1      26.623  16.093   4.508  0.00  0.00    -0.033 C 
HETATM   11  C   UNK N   1      26.309  17.607   4.546  0.00  0.00     0.016 C 
ENDROOT
BRANCH   6  12
HETATM   12  C   UNK N   1      23.909  14.094   7.400  0.00  0.00     0.008 C 
HETATM   13  C   UNK N   1      23.059  13.636   8.336  0.00  0.00    -0.048 C 
HETATM   14  C   UNK N   1      23.589  12.989   9.577  0.00  0.00    -0.033 C 
HETATM   15  C   UNK N   1      21.580  13.844   8.182  0.00  0.00     0.071 C 
HETATM   16  C   UNK N   1      22.654  12.671  10.729  0.00  0.00     0.153 C 
HETATM   17  C   UNK N   1      24.901  12.828   9.757  0.00  0.00     0.022 C 
HETATM   18  C   UNK N   1      21.172  12.876  10.411  0.00  0.00     0.068 C 
HETATM   19  C   UNK N   1      20.938  14.100   9.537  0.00  0.00     0.125 C 
BRANCH  16  20
HETATM   20  O   UNK N   1      22.844  11.358  11.165  0.00  0.00    -0.391 OA
HETATM   21  H   UNK N   1      22.498  10.457  11.070  0.00  0.00     0.210 HD
ENDBRANCH  16  20
BRANCH  19  22
HETATM   22  O   UNK N   1      19.568  14.291   9.366  0.00  0.00    -0.395 OA
HETATM   23  H   UNK N   1      19.229  15.030   8.838  0.00  0.00     0.210 HD
ENDBRANCH  19  22
ENDBRANCH   6  12
BRANCH   8  24
HETATM   24  C   UNK N   1      29.145  16.696   4.327  0.00  0.00    -0.014 C 
HETATM   25  C   UNK N   1      29.999  15.844   3.402  0.00  0.00     0.010 C 
BRANCH  24  26
HETATM   26  C   UNK N   1      30.037  17.510   5.273  0.00  0.00     0.005 C 
BRANCH  26  27
HETATM   27  C   UNK N   1      31.510  17.129   5.243  0.00  0.00     0.003 C 
BRANCH  27  28
HETATM   28  C   UNK N   1      32.002  17.104   6.687  0.00  0.00     0.037 C 
BRANCH  28  29
HETATM   29  C   UNK N   1      33.501  17.334   6.847  0.00  0.00     0.051 C 
HETATM   30  C   UNK N   1      34.225  16.016   7.054  0.00  0.00     0.045 C 
HETATM   31  C   UNK N   1      33.783  18.259   8.016  0.00  0.00     0.045 C 
BRANCH  29  32
HETATM   32  O   UNK N   1      33.982  17.928   5.681  0.00  0.00    -0.391 OA
HETATM   33  H   UNK N   1      34.499  17.561   4.947  0.00  0.00     0.210 HD
ENDBRANCH  29  32
ENDBRANCH  28  29
ENDBRANCH  27  28
ENDBRANCH  26  27
ENDBRANCH  24  26
ENDBRANCH   8  24
TORSDOF 9
ENDMDL
MODEL 6
REMARK VINA RESULT:      -7.0      2.808      9.753
REMARK  9 active torsions:
REMARK  status: ('A' for Active; 'I' for Inactive)
REMARK    1  A    between atoms: C_6  and  C_8 
REMARK    2  A    between atoms: C_13  and  O_15 
REMARK    3  A    between atoms: C_23  and  C_17 
REMARK    4  A    between atoms: C_17  and  C_18 
REMARK    5  A    between atoms: C_18  and  C_19 
REMARK    6  A    between atoms: C_19  and  C_22 
REMARK    7  A    between atoms: C_22  and  C_27 
REMARK    8  A    between atoms: C_27  and  O_28 
REMARK    9  A    between atoms: C_29  and  O_30 
ROOT
HETATM    1  C   UNK N   1      34.462  13.215   7.094  0.00  0.00     0.010 C 
HETATM    2  C   UNK N   1      33.783  16.067   7.016  0.00  0.00    -0.075 C 
HETATM    3  C   UNK N   1      33.670  15.892   9.623  0.00  0.00     0.010 C 
HETATM    4  C   UNK N   1      33.978  14.725  10.579  0.00  0.00     0.006 C 
HETATM    5  C   UNK N   1      34.627  14.054   5.792  0.00  0.00     0.005 C 
HETATM    6  C   UNK N   1      33.042  17.152   6.740  0.00  0.00     0.004 C 
HETATM    7  C   UNK N   1      34.788  15.579   6.009  0.00  0.00     0.034 C 
HETATM    8  C   UNK N   1      34.107  13.469   9.693  0.00  0.00    -0.002 C 
HETATM    9  C   UNK N   1      33.562  15.227   8.256  0.00  0.00     0.023 C 
HETATM   10  C   UNK N   1      34.563  14.078   8.359  0.00  0.00    -0.033 C 
HETATM   11  C   UNK N   1      36.021  14.575   8.492  0.00  0.00     0.016 C 
ENDROOT
BRANCH   6  12
HETATM   12  C   UNK N   1      31.997  17.635   7.665  0.00  0.00     0.008 C 
HETATM   13  C   UNK N   1      30.686  17.381   7.500  0.00  0.00    -0.048 C 
HETATM   14  C   UNK N   1      29.686  17.966   8.447  0.00  0.00    -0.033 C 
HETATM   15  C   UNK N   1      30.211  16.581   6.322  0.00  0.00     0.071 C 
HETATM   16  C   UNK N   1      28.202  17.868   8.144  0.00  0.00     0.153 C 
HETATM   17  C   UNK N   1      30.077  18.713   9.480  0.00  0.00     0.022 C 
HETATM   18  C   UNK N   1      27.862  16.974   6.950  0.00  0.00     0.068 C 
HETATM   19  C   UNK N   1      28.876  17.113   5.824  0.00  0.00     0.125 C 
BRANCH  16  20
HETATM   20  O   UNK N   1      27.503  17.410   9.263  0.00  0.00    -0.391 OA
HETATM   21  H   UNK N   1      26.656  17.025   9.538  0.00  0.00     0.210 HD
ENDBRANCH  16  20
BRANCH  19  22
HETATM   22  O   UNK N   1      28.460  16.356   4.731  0.00  0.00    -0.395 OA
HETATM   23  H   UNK N   1      27.534  16.084   4.635  0.00  0.00     0.210 HD
ENDBRANCH  19  22
ENDBRANCH   6  12
BRANCH   8  24
HETATM   24  C   UNK N   1      35.044  12.389  10.275  0.00  0.00    -0.014 C 
HETATM   25  C   UNK N   1      34.628  10.996   9.830  0.00  0.00     0.010 C 
BRANCH  24  26
HETATM   26  C   UNK N   1      35.218  12.429  11.798  0.00  0.00     0.005 C 
BRANCH  26  27
HETATM   27  C   UNK N   1      36.593  12.882  12.269  0.00  0.00     0.003 C 
BRANCH  27  28
HETATM   28  C   UNK N   1      36.378  13.888  13.398  0.00  0.00     0.037 C 
BRANCH  28  29
HETATM   29  C   UNK N   1      36.694  13.351  14.790  0.00  0.00     0.051 C 
HETATM   30  C   UNK N   1      37.363  11.991  14.700  0.00  0.00     0.045 C 
HETATM   31  C   UNK N   1      35.431  13.242  15.625  0.00  0.00     0.045 C 
BRANCH  29  32
HETATM   32  O   UNK N   1      37.569  14.238  15.415  0.00  0.00    -0.391 OA
HETATM   33  H   UNK N   1      38.447  14.556  15.155  0.00  0.00     0.210 HD
ENDBRANCH  29  32
ENDBRANCH  28  29
ENDBRANCH  27  28
ENDBRANCH  26  27
ENDBRANCH  24  26
ENDBRANCH   8  24
TORSDOF 9
ENDMDL
MODEL 7
REMARK VINA RESULT:      -6.8      3.408      9.695
REMARK  9 active torsions:
REMARK  status: ('A' for Active; 'I' for Inactive)
REMARK    1  A    between atoms: C_6  and  C_8 
REMARK    2  A    between atoms: C_13  and  O_15 
REMARK    3  A    between atoms: C_23  and  C_17 
REMARK    4  A    between atoms: C_17  and  C_18 
REMARK    5  A    between atoms: C_18  and  C_19 
REMARK    6  A    between atoms: C_19  and  C_22 
REMARK    7  A    between atoms: C_22  and  C_27 
REMARK    8  A    between atoms: C_27  and  O_28 
REMARK    9  A    between atoms: C_29  and  O_30 
ROOT
HETATM    1  C   UNK N   1      28.291  19.623   4.636  0.00  0.00     0.010 C 
HETATM    2  C   UNK N   1      25.486  18.948   5.165  0.00  0.00    -0.075 C 
HETATM    3  C   UNK N   1      26.353  16.497   5.447  0.00  0.00     0.010 C 
HETATM    4  C   UNK N   1      27.777  15.911   5.419  0.00  0.00     0.006 C 
HETATM    5  C   UNK N   1      27.224  20.728   4.895  0.00  0.00     0.005 C 
HETATM    6  C   UNK N   1      24.182  18.791   4.890  0.00  0.00     0.004 C 
HETATM    7  C   UNK N   1      25.981  20.266   5.694  0.00  0.00     0.034 C 
HETATM    8  C   UNK N   1      28.689  17.029   4.873  0.00  0.00    -0.002 C 
HETATM    9  C   UNK N   1      26.516  17.886   4.843  0.00  0.00     0.023 C 
HETATM   10  C   UNK N   1      27.919  18.289   5.295  0.00  0.00    -0.033 C 
HETATM   11  C   UNK N   1      28.018  18.463   6.829  0.00  0.00     0.016 C 
ENDROOT
BRANCH   6  12
HETATM   12  C   UNK N   1      23.655  17.540   4.308  0.00  0.00     0.008 C 
HETATM   13  C   UNK N   1      22.548  17.486   3.544  0.00  0.00    -0.048 C 
HETATM   14  C   UNK N   1      22.044  16.166   3.050  0.00  0.00    -0.033 C 
HETATM   15  C   UNK N   1      21.766  18.734   3.255  0.00  0.00     0.071 C 
HETATM   16  C   UNK N   1      20.686  16.073   2.380  0.00  0.00     0.153 C 
HETATM   17  C   UNK N   1      22.698  15.037   3.327  0.00  0.00     0.022 C 
HETATM   18  C   UNK N   1      20.032  17.426   2.094  0.00  0.00     0.068 C 
HETATM   19  C   UNK N   1      20.277  18.428   3.212  0.00  0.00     0.125 C 
BRANCH  16  20
HETATM   20  O   UNK N   1      20.778  15.355   1.186  0.00  0.00    -0.391 OA
HETATM   21  H   UNK N   1      21.361  14.761   0.687  0.00  0.00     0.210 HD
ENDBRANCH  16  20
BRANCH  19  22
HETATM   22  O   UNK N   1      19.576  19.602   2.943  0.00  0.00    -0.395 OA
HETATM   23  H   UNK N   1      19.485  19.932   2.035  0.00  0.00     0.210 HD
ENDBRANCH  19  22
ENDBRANCH   6  12
BRANCH   8  24
HETATM   24  C   UNK N   1      30.145  16.950   5.379  0.00  0.00    -0.014 C 
HETATM   25  C   UNK N   1      31.130  17.387   4.305  0.00  0.00     0.010 C 
BRANCH  24  26
HETATM   26  C   UNK N   1      30.561  15.592   5.958  0.00  0.00     0.005 C 
BRANCH  26  27
HETATM   27  C   UNK N   1      32.004  15.519   6.435  0.00  0.00     0.003 C 
BRANCH  27  28
HETATM   28  C   UNK N   1      32.004  15.818   7.932  0.00  0.00     0.037 C 
BRANCH  28  29
HETATM   29  C   UNK N   1      32.544  17.196   8.301  0.00  0.00     0.051 C 
HETATM   30  C   UNK N   1      31.405  18.157   8.590  0.00  0.00     0.045 C 
HETATM   31  C   UNK N   1      33.409  17.752   7.184  0.00  0.00     0.045 C 
BRANCH  29  32
HETATM   32  O   UNK N   1      33.324  17.070   9.449  0.00  0.00    -0.391 OA
HETATM   33  H   UNK N   1      34.242  17.327   9.626  0.00  0.00     0.210 HD
ENDBRANCH  29  32
ENDBRANCH  28  29
ENDBRANCH  27  28
ENDBRANCH  26  27
ENDBRANCH  24  26
ENDBRANCH   8  24
TORSDOF 9
ENDMDL
MODEL 8
REMARK VINA RESULT:      -6.8      1.933      3.006
REMARK  9 active torsions:
REMARK  status: ('A' for Active; 'I' for Inactive)
REMARK    1  A    between atoms: C_6  and  C_8 
REMARK    2  A    between atoms: C_13  and  O_15 
REMARK    3  A    between atoms: C_23  and  C_17 
REMARK    4  A    between atoms: C_17  and  C_18 
REMARK    5  A    between atoms: C_18  and  C_19 
REMARK    6  A    between atoms: C_19  and  C_22 
REMARK    7  A    between atoms: C_22  and  C_27 
REMARK    8  A    between atoms: C_27  and  O_28 
REMARK    9  A    between atoms: C_29  and  O_30 
ROOT
HETATM    1  C   UNK N   1      27.785  17.027   8.181  0.00  0.00     0.010 C 
HETATM    2  C   UNK N   1      30.595  17.866   8.187  0.00  0.00    -0.075 C 
HETATM    3  C   UNK N   1      30.573  17.211   5.655  0.00  0.00     0.010 C 
HETATM    4  C   UNK N   1      29.434  16.727   4.739  0.00  0.00     0.006 C 
HETATM    5  C   UNK N   1      28.395  17.816   9.377  0.00  0.00     0.005 C 
HETATM    6  C   UNK N   1      31.896  17.818   8.513  0.00  0.00     0.004 C 
HETATM    7  C   UNK N   1      29.645  18.664   9.036  0.00  0.00     0.034 C 
HETATM    8  C   UNK N   1      28.255  16.379   5.670  0.00  0.00    -0.002 C 
HETATM    9  C   UNK N   1      30.011  17.040   7.060  0.00  0.00     0.023 C 
HETATM   10  C   UNK N   1      28.520  17.308   6.864  0.00  0.00    -0.033 C 
HETATM   11  C   UNK N   1      28.232  18.771   6.451  0.00  0.00     0.016 C 
ENDROOT
BRANCH   6  12
HETATM   12  C   UNK N   1      32.860  16.998   7.751  0.00  0.00     0.008 C 
HETATM   13  C   UNK N   1      33.401  15.860   8.222  0.00  0.00    -0.048 C 
HETATM   14  C   UNK N   1      34.422  15.125   7.411  0.00  0.00    -0.033 C 
HETATM   15  C   UNK N   1      33.048  15.366   9.595  0.00  0.00     0.071 C 
HETATM   16  C   UNK N   1      35.193  13.971   8.023  0.00  0.00     0.153 C 
HETATM   17  C   UNK N   1      34.782  15.565   6.205  0.00  0.00     0.022 C 
HETATM   18  C   UNK N   1      34.687  13.537   9.401  0.00  0.00     0.068 C 
HETATM   19  C   UNK N   1      34.259  14.723  10.252  0.00  0.00     0.125 C 
BRANCH  16  20
HETATM   20  O   UNK N   1      35.180  12.866   7.170  0.00  0.00    -0.391 OA
HETATM   21  H   UNK N   1      35.313  11.905   7.151  0.00  0.00     0.210 HD
ENDBRANCH  16  20
BRANCH  19  22
HETATM   22  O   UNK N   1      33.906  14.274  11.524  0.00  0.00    -0.395 OA
HETATM   23  H   UNK N   1      34.488  13.680  12.024  0.00  0.00     0.210 HD
ENDBRANCH  19  22
ENDBRANCH   6  12
BRANCH   8  24
HETATM   24  C   UNK N   1      26.869  16.540   5.009  0.00  0.00    -0.014 C 
HETATM   25  C   UNK N   1      25.952  15.377   5.353  0.00  0.00     0.010 C 
BRANCH  24  26
HETATM   26  C   UNK N   1      26.893  16.765   3.492  0.00  0.00     0.005 C 
BRANCH  26  27
HETATM   27  C   UNK N   1      26.454  15.567   2.664  0.00  0.00     0.003 C 
BRANCH  27  28
HETATM   28  C   UNK N   1      27.707  14.968   2.031  0.00  0.00     0.037 C 
BRANCH  28  29
HETATM   29  C   UNK N   1      27.888  13.475   2.281  0.00  0.00     0.051 C 
HETATM   30  C   UNK N   1      26.564  12.746   2.147  0.00  0.00     0.045 C 
HETATM   31  C   UNK N   1      28.470  13.226   3.661  0.00  0.00     0.045 C 
BRANCH  29  32
HETATM   32  O   UNK N   1      28.772  12.973   1.326  0.00  0.00    -0.391 OA
HETATM   33  H   UNK N   1      28.964  13.263   0.421  0.00  0.00     0.210 HD
ENDBRANCH  29  32
ENDBRANCH  28  29
ENDBRANCH  27  28
ENDBRANCH  26  27
ENDBRANCH  24  26
ENDBRANCH   8  24
TORSDOF 9
ENDMDL
MODEL 9
REMARK VINA RESULT:      -6.7     12.860     16.028
REMARK  9 active torsions:
REMARK  status: ('A' for Active; 'I' for Inactive)
REMARK    1  A    between atoms: C_6  and  C_8 
REMARK    2  A    between atoms: C_13  and  O_15 
REMARK    3  A    between atoms: C_23  and  C_17 
REMARK    4  A    between atoms: C_17  and  C_18 
REMARK    5  A    between atoms: C_18  and  C_19 
REMARK    6  A    between atoms: C_19  and  C_22 
REMARK    7  A    between atoms: C_22  and  C_27 
REMARK    8  A    between atoms: C_27  and  O_28 
REMARK    9  A    between atoms: C_29  and  O_30 
ROOT
HETATM    1  C   UNK N   1      26.685  26.936  -7.768  0.00  0.00     0.010 C 
HETATM    2  C   UNK N   1      26.792  24.132  -6.917  0.00  0.00    -0.075 C 
HETATM    3  C   UNK N   1      27.387  25.094  -4.559  0.00  0.00     0.010 C 
HETATM    4  C   UNK N   1      27.474  26.542  -4.043  0.00  0.00     0.006 C 
HETATM    5  C   UNK N   1      26.142  25.790  -8.674  0.00  0.00     0.005 C 
HETATM    6  C   UNK N   1      27.258  22.874  -6.870  0.00  0.00     0.004 C 
HETATM    7  C   UNK N   1      25.738  24.497  -7.925  0.00  0.00     0.034 C 
HETATM    8  C   UNK N   1      27.431  27.445  -5.293  0.00  0.00    -0.002 C 
HETATM    9  C   UNK N   1      27.379  25.245  -6.075  0.00  0.00     0.023 C 
HETATM   10  C   UNK N   1      26.645  26.569  -6.279  0.00  0.00    -0.033 C 
HETATM   11  C   UNK N   1      25.165  26.498  -5.837  0.00  0.00     0.016 C 
ENDROOT
BRANCH   6  12
HETATM   12  C   UNK N   1      28.338  22.478  -5.944  0.00  0.00     0.008 C 
HETATM   13  C   UNK N   1      29.364  21.682  -6.298  0.00  0.00    -0.048 C 
HETATM   14  C   UNK N   1      30.380  21.274  -5.278  0.00  0.00    -0.033 C 
HETATM   15  C   UNK N   1      29.449  21.131  -7.691  0.00  0.00     0.071 C 
HETATM   16  C   UNK N   1      31.408  20.208  -5.612  0.00  0.00     0.153 C 
HETATM   17  C   UNK N   1      30.306  21.717  -4.023  0.00  0.00     0.022 C 
HETATM   18  C   UNK N   1      31.418  19.783  -7.081  0.00  0.00     0.068 C 
HETATM   19  C   UNK N   1      30.016  19.720  -7.669  0.00  0.00     0.125 C 
BRANCH  16  20
HETATM   20  O   UNK N   1      32.689  20.635  -5.257  0.00  0.00    -0.391 OA
HETATM   21  H   UNK N   1      33.232  20.889  -4.494  0.00  0.00     0.210 HD
ENDBRANCH  16  20
BRANCH  19  22
HETATM   22  O   UNK N   1      30.084  19.232  -8.973  0.00  0.00    -0.395 OA
HETATM   23  H   UNK N   1      30.014  18.282  -9.155  0.00  0.00     0.210 HD
ENDBRANCH  19  22
ENDBRANCH   6  12
BRANCH   8  24
HETATM   24  C   UNK N   1      26.830  28.843  -5.033  0.00  0.00    -0.014 C 
HETATM   25  C   UNK N   1      27.749  29.945  -5.536  0.00  0.00     0.010 C 
BRANCH  24  26
HETATM   26  C   UNK N   1      26.419  29.116  -3.581  0.00  0.00     0.005 C 
BRANCH  26  27
HETATM   27  C   UNK N   1      27.205  30.223  -2.895  0.00  0.00     0.003 C 
BRANCH  27  28
HETATM   28  C   UNK N   1      28.068  29.569  -1.820  0.00  0.00     0.037 C 
BRANCH  28  29
HETATM   29  C   UNK N   1      29.570  29.732  -2.029  0.00  0.00     0.051 C 
HETATM   30  C   UNK N   1      29.875  31.062  -2.695  0.00  0.00     0.045 C 
HETATM   31  C   UNK N   1      30.123  28.601  -2.877  0.00  0.00     0.045 C 
BRANCH  29  32
HETATM   32  O   UNK N   1      30.194  29.704  -0.783  0.00  0.00    -0.391 OA
HETATM   33  H   UNK N   1      29.835  29.805   0.111  0.00  0.00     0.210 HD
ENDBRANCH  29  32
ENDBRANCH  28  29
ENDBRANCH  27  28
ENDBRANCH  26  27
ENDBRANCH  24  26
ENDBRANCH   8  24
TORSDOF 9
ENDMDL
