MODEL 1
REMARK VINA RESULT:      -5.1      0.000      0.000
REMARK  16 active torsions:
REMARK  status: ('A' for Active; 'I' for Inactive)
REMARK    1  A    between atoms: O_1  and  C_16 
REMARK    2  A    between atoms: C_3  and  C_4 
REMARK    3  A    between atoms: C_3  and  C_5 
REMARK    4  A    between atoms: C_4  and  C_6 
REMARK    5  A    between atoms: C_5  and  C_7 
REMARK    6  A    between atoms: C_6  and  C_8 
REMARK    7  A    between atoms: C_7  and  C_13 
REMARK    8  A    between atoms: C_8  and  C_16 
REMARK    9  A    between atoms: C_9  and  C_10 
REMARK   10  A    between atoms: C_9  and  C_11 
REMARK   11  A    between atoms: C_10  and  C_12 
REMARK   12  A    between atoms: C_11  and  C_15 
REMARK   13  A    between atoms: C_14  and  C_18 
REMARK   14  A    between atoms: C_18  and  C_21 
REMARK   15  A    between atoms: C_19  and  C_20 
REMARK   16  A    between atoms: C_20  and  C_22 
ROOT
HETATM    1  C   UNK N   1      29.992  22.237  -4.111  0.00  0.00    -0.030 C 
HETATM    2  C   UNK N   1      29.492  23.209  -3.328  0.00  0.00    -0.027 C 
ENDROOT
BRANCH   2   3
HETATM    3  C   UNK N   1      28.516  24.155  -3.944  0.00  0.00     0.053 C 
BRANCH   3   4
HETATM    4  C   UNK N   1      27.102  24.217  -3.459  0.00  0.00    -0.027 C 
HETATM    5  C   UNK N   1      26.146  24.454  -4.375  0.00  0.00    -0.027 C 
BRANCH   5   6
HETATM    6  C   UNK N   1      26.562  24.638  -5.809  0.00  0.00     0.053 C 
BRANCH   6   7
HETATM    7  C   UNK N   1      25.618  25.360  -6.707  0.00  0.00    -0.027 C 
HETATM    8  C   UNK N   1      25.968  26.563  -7.192  0.00  0.00    -0.030 C 
BRANCH   8   9
HETATM    9  C   UNK N   1      27.292  27.185  -6.841  0.00  0.00     0.027 C 
BRANCH   9  10
HETATM   10  C   UNK N   1      27.143  28.281  -5.810  0.00  0.00     0.004 C 
BRANCH  10  11
HETATM   11  C   UNK N   1      27.971  27.919  -4.592  0.00  0.00    -0.000 C 
BRANCH  11  12
HETATM   12  C   UNK N   1      27.096  27.937  -3.357  0.00  0.00    -0.005 C 
HETATM   13  C   UNK N   1      25.643  28.057  -3.767  0.00  0.00     0.005 C 
ENDBRANCH  11  12
ENDBRANCH  10  11
ENDBRANCH   9  10
ENDBRANCH   8   9
ENDBRANCH   6   7
ENDBRANCH   5   6
ENDBRANCH   3   4
ENDBRANCH   2   3
BRANCH   1  14
HETATM   14  C   UNK N   1      29.544  22.161  -5.547  0.00  0.00     0.027 C 
BRANCH  14  15
HETATM   15  C   UNK N   1      30.033  20.979  -6.345  0.00  0.00     0.004 C 
BRANCH  15  16
HETATM   16  C   UNK N   1      29.137  20.943  -7.570  0.00  0.00     0.000 C 
BRANCH  16  17
HETATM   17  C   UNK N   1      27.911  21.812  -7.415  0.00  0.00     0.001 C 
BRANCH  17  18
HETATM   18  C   UNK N   1      27.029  21.596  -8.631  0.00  0.00     0.010 C 
BRANCH  18  19
HETATM   19  C   UNK N   1      25.789  20.808  -8.244  0.00  0.00     0.110 C 
BRANCH  19  20
HETATM   20  C   UNK N   1      24.660  21.685  -7.784  0.00  0.00     0.139 C 
HETATM   21  O   UNK N   1      24.301  22.649  -8.445  0.00  0.00    -0.650 OA
BRANCH  20  22
HETATM   22  O   UNK N   1      24.035  21.406  -6.627  0.00  0.00    -0.776 OA
HETATM   23  H   UNK N   1      24.437  21.631  -5.811  0.00  0.00     0.167 HD
ENDBRANCH  20  22
ENDBRANCH  19  20
ENDBRANCH  18  19
ENDBRANCH  17  18
ENDBRANCH  16  17
ENDBRANCH  15  16
ENDBRANCH  14  15
ENDBRANCH   1  14
TORSDOF 16
ENDMDL
MODEL 2
REMARK VINA RESULT:      -5.0     11.643     14.651
REMARK  16 active torsions:
REMARK  status: ('A' for Active; 'I' for Inactive)
REMARK    1  A    between atoms: O_1  and  C_16 
REMARK    2  A    between atoms: C_3  and  C_4 
REMARK    3  A    between atoms: C_3  and  C_5 
REMARK    4  A    between atoms: C_4  and  C_6 
REMARK    5  A    between atoms: C_5  and  C_7 
REMARK    6  A    between atoms: C_6  and  C_8 
REMARK    7  A    between atoms: C_7  and  C_13 
REMARK    8  A    between atoms: C_8  and  C_16 
REMARK    9  A    between atoms: C_9  and  C_10 
REMARK   10  A    between atoms: C_9  and  C_11 
REMARK   11  A    between atoms: C_10  and  C_12 
REMARK   12  A    between atoms: C_11  and  C_15 
REMARK   13  A    between atoms: C_14  and  C_18 
REMARK   14  A    between atoms: C_18  and  C_21 
REMARK   15  A    between atoms: C_19  and  C_20 
REMARK   16  A    between atoms: C_20  and  C_22 
ROOT
HETATM    1  C   UNK N   1      27.863  19.989   6.796  0.00  0.00    -0.030 C 
HETATM    2  C   UNK N   1      27.634  20.712   5.685  0.00  0.00    -0.027 C 
ENDROOT
BRANCH   2   3
HETATM    3  C   UNK N   1      27.539  19.973   4.391  0.00  0.00     0.053 C 
BRANCH   3   4
HETATM    4  C   UNK N   1      26.430  20.258   3.429  0.00  0.00    -0.027 C 
HETATM    5  C   UNK N   1      25.513  19.292   3.241  0.00  0.00    -0.027 C 
BRANCH   5   6
HETATM    6  C   UNK N   1      25.666  18.005   4.006  0.00  0.00     0.053 C 
BRANCH   6   7
HETATM    7  C   UNK N   1      25.467  16.735   3.253  0.00  0.00    -0.027 C 
HETATM    8  C   UNK N   1      26.540  16.002   2.914  0.00  0.00    -0.030 C 
BRANCH   8   9
HETATM    9  C   UNK N   1      27.929  16.444   3.281  0.00  0.00     0.027 C 
BRANCH   9  10
HETATM   10  C   UNK N   1      28.788  15.285   3.735  0.00  0.00     0.004 C 
BRANCH  10  11
HETATM   11  C   UNK N   1      30.018  15.833   4.431  0.00  0.00    -0.000 C 
BRANCH  11  12
HETATM   12  C   UNK N   1      30.726  16.812   3.519  0.00  0.00    -0.005 C 
HETATM   13  C   UNK N   1      31.816  17.525   4.290  0.00  0.00     0.005 C 
ENDBRANCH  11  12
ENDBRANCH  10  11
ENDBRANCH   9  10
ENDBRANCH   8   9
ENDBRANCH   6   7
ENDBRANCH   5   6
ENDBRANCH   3   4
ENDBRANCH   2   3
BRANCH   1  14
HETATM   14  C   UNK N   1      28.009  18.496   6.671  0.00  0.00     0.027 C 
BRANCH  14  15
HETATM   15  C   UNK N   1      29.297  17.898   7.179  0.00  0.00     0.004 C 
BRANCH  15  16
HETATM   16  C   UNK N   1      29.428  18.414   8.600  0.00  0.00     0.000 C 
BRANCH  16  17
HETATM   17  C   UNK N   1      30.868  18.542   9.039  0.00  0.00     0.001 C 
BRANCH  17  18
HETATM   18  C   UNK N   1      31.731  17.807   8.029  0.00  0.00     0.010 C 
BRANCH  18  19
HETATM   19  C   UNK N   1      33.111  17.553   8.609  0.00  0.00     0.110 C 
BRANCH  19  20
HETATM   20  C   UNK N   1      34.203  18.241   7.841  0.00  0.00     0.139 C 
HETATM   21  O   UNK N   1      34.902  19.096   8.366  0.00  0.00    -0.650 OA
BRANCH  20  22
HETATM   22  O   UNK N   1      34.416  17.911   6.555  0.00  0.00    -0.776 OA
HETATM   23  H   UNK N   1      34.615  17.026   6.325  0.00  0.00     0.167 HD
ENDBRANCH  20  22
ENDBRANCH  19  20
ENDBRANCH  18  19
ENDBRANCH  17  18
ENDBRANCH  16  17
ENDBRANCH  15  16
ENDBRANCH  14  15
ENDBRANCH   1  14
TORSDOF 16
ENDMDL
MODEL 3
REMARK VINA RESULT:      -4.8     25.330     28.381
REMARK  16 active torsions:
REMARK  status: ('A' for Active; 'I' for Inactive)
REMARK    1  A    between atoms: O_1  and  C_16 
REMARK    2  A    between atoms: C_3  and  C_4 
REMARK    3  A    between atoms: C_3  and  C_5 
REMARK    4  A    between atoms: C_4  and  C_6 
REMARK    5  A    between atoms: C_5  and  C_7 
REMARK    6  A    between atoms: C_6  and  C_8 
REMARK    7  A    between atoms: C_7  and  C_13 
REMARK    8  A    between atoms: C_8  and  C_16 
REMARK    9  A    between atoms: C_9  and  C_10 
REMARK   10  A    between atoms: C_9  and  C_11 
REMARK   11  A    between atoms: C_10  and  C_12 
REMARK   12  A    between atoms: C_11  and  C_15 
REMARK   13  A    between atoms: C_14  and  C_18 
REMARK   14  A    between atoms: C_18  and  C_21 
REMARK   15  A    between atoms: C_19  and  C_20 
REMARK   16  A    between atoms: C_20  and  C_22 
ROOT
HETATM    1  C   UNK N   1      35.233  13.185  18.960  0.00  0.00    -0.030 C 
HETATM    2  C   UNK N   1      35.333  13.899  17.824  0.00  0.00    -0.027 C 
ENDROOT
BRANCH   2   3
HETATM    3  C   UNK N   1      35.214  13.158  16.534  0.00  0.00     0.053 C 
BRANCH   3   4
HETATM    4  C   UNK N   1      36.207  13.374  15.435  0.00  0.00    -0.027 C 
HETATM    5  C   UNK N   1      37.034  12.355  15.143  0.00  0.00    -0.027 C 
BRANCH   5   6
HETATM    6  C   UNK N   1      36.905  11.081  15.934  0.00  0.00     0.053 C 
BRANCH   6   7
HETATM    7  C   UNK N   1      36.703   9.819  15.170  0.00  0.00    -0.027 C 
HETATM    8  C   UNK N   1      35.455   9.363  14.979  0.00  0.00    -0.030 C 
BRANCH   8   9
HETATM    9  C   UNK N   1      34.266  10.105  15.525  0.00  0.00     0.027 C 
BRANCH   9  10
HETATM   10  C   UNK N   1      33.460  10.763  14.426  0.00  0.00     0.004 C 
BRANCH  10  11
HETATM   11  C   UNK N   1      34.083  10.413  13.089  0.00  0.00    -0.000 C 
BRANCH  11  12
HETATM   12  C   UNK N   1      34.668  11.658  12.458  0.00  0.00    -0.005 C 
HETATM   13  C   UNK N   1      35.945  11.303  11.726  0.00  0.00     0.005 C 
ENDBRANCH  11  12
ENDBRANCH  10  11
ENDBRANCH   9  10
ENDBRANCH   8   9
ENDBRANCH   6   7
ENDBRANCH   5   6
ENDBRANCH   3   4
ENDBRANCH   2   3
BRANCH   1  14
HETATM   14  C   UNK N   1      35.011  11.699  18.865  0.00  0.00     0.027 C 
BRANCH  14  15
HETATM   15  C   UNK N   1      36.031  10.819  19.542  0.00  0.00     0.004 C 
BRANCH  15  16
HETATM   16  C   UNK N   1      35.610   9.403  19.196  0.00  0.00     0.000 C 
BRANCH  16  17
HETATM   17  C   UNK N   1      34.110   9.258  19.078  0.00  0.00     0.001 C 
BRANCH  17  18
HETATM   18  C   UNK N   1      33.620   8.479  20.284  0.00  0.00     0.010 C 
BRANCH  18  19
HETATM   19  C   UNK N   1      32.653   9.325  21.094  0.00  0.00     0.110 C 
BRANCH  19  20
HETATM   20  C   UNK N   1      33.341  10.174  22.125  0.00  0.00     0.139 C 
HETATM   21  O   UNK N   1      33.954   9.666  23.053  0.00  0.00    -0.650 OA
BRANCH  20  22
HETATM   22  O   UNK N   1      33.282  11.513  22.025  0.00  0.00    -0.776 OA
HETATM   23  H   UNK N   1      32.946  12.022  22.736  0.00  0.00     0.167 HD
ENDBRANCH  20  22
ENDBRANCH  19  20
ENDBRANCH  18  19
ENDBRANCH  17  18
ENDBRANCH  16  17
ENDBRANCH  15  16
ENDBRANCH  14  15
ENDBRANCH   1  14
TORSDOF 16
ENDMDL
MODEL 4
REMARK VINA RESULT:      -4.8     25.835     28.744
REMARK  16 active torsions:
REMARK  status: ('A' for Active; 'I' for Inactive)
REMARK    1  A    between atoms: O_1  and  C_16 
REMARK    2  A    between atoms: C_3  and  C_4 
REMARK    3  A    between atoms: C_3  and  C_5 
REMARK    4  A    between atoms: C_4  and  C_6 
REMARK    5  A    between atoms: C_5  and  C_7 
REMARK    6  A    between atoms: C_6  and  C_8 
REMARK    7  A    between atoms: C_7  and  C_13 
REMARK    8  A    between atoms: C_8  and  C_16 
REMARK    9  A    between atoms: C_9  and  C_10 
REMARK   10  A    between atoms: C_9  and  C_11 
REMARK   11  A    between atoms: C_10  and  C_12 
REMARK   12  A    between atoms: C_11  and  C_15 
REMARK   13  A    between atoms: C_14  and  C_18 
REMARK   14  A    between atoms: C_18  and  C_21 
REMARK   15  A    between atoms: C_19  and  C_20 
REMARK   16  A    between atoms: C_20  and  C_22 
ROOT
HETATM    1  C   UNK N   1      35.206  13.650  18.159  0.00  0.00    -0.030 C 
HETATM    2  C   UNK N   1      35.219  13.174  19.417  0.00  0.00    -0.027 C 
ENDROOT
BRANCH   2   3
HETATM    3  C   UNK N   1      34.915  11.725  19.608  0.00  0.00     0.053 C 
BRANCH   3   4
HETATM    4  C   UNK N   1      35.994  10.764  19.995  0.00  0.00    -0.027 C 
HETATM    5  C   UNK N   1      35.799   9.466  19.699  0.00  0.00    -0.027 C 
BRANCH   5   6
HETATM    6  C   UNK N   1      34.521   9.077  19.006  0.00  0.00     0.053 C 
BRANCH   6   7
HETATM    7  C   UNK N   1      34.055   7.672  19.170  0.00  0.00    -0.027 C 
HETATM    8  C   UNK N   1      32.824   7.444  19.656  0.00  0.00    -0.030 C 
BRANCH   8   9
HETATM    9  C   UNK N   1      31.916   8.582  20.033  0.00  0.00     0.027 C 
BRANCH   9  10
HETATM   10  C   UNK N   1      31.860   8.784  21.531  0.00  0.00     0.004 C 
BRANCH  10  11
HETATM   11  C   UNK N   1      32.409  10.159  21.858  0.00  0.00    -0.000 C 
BRANCH  11  12
HETATM   12  C   UNK N   1      33.476  10.041  22.925  0.00  0.00    -0.005 C 
HETATM   13  C   UNK N   1      32.892  10.418  24.270  0.00  0.00     0.005 C 
ENDBRANCH  11  12
ENDBRANCH  10  11
ENDBRANCH   9  10
ENDBRANCH   8   9
ENDBRANCH   6   7
ENDBRANCH   5   6
ENDBRANCH   3   4
ENDBRANCH   2   3
BRANCH   1  14
HETATM   14  C   UNK N   1      34.889  12.704  17.031  0.00  0.00     0.027 C 
BRANCH  14  15
HETATM   15  C   UNK N   1      36.035  12.323  16.127  0.00  0.00     0.004 C 
BRANCH  15  16
HETATM   16  C   UNK N   1      36.025  10.806  16.111  0.00  0.00     0.000 C 
BRANCH  16  17
HETATM   17  C   UNK N   1      34.692  10.240  15.679  0.00  0.00     0.001 C 
BRANCH  17  18
HETATM   18  C   UNK N   1      34.813   9.817  14.227  0.00  0.00     0.010 C 
BRANCH  18  19
HETATM   19  C   UNK N   1      34.037  10.773  13.338  0.00  0.00     0.110 C 
BRANCH  19  20
HETATM   20  C   UNK N   1      34.900  11.849  12.744  0.00  0.00     0.139 C 
HETATM   21  O   UNK N   1      36.072  11.636  12.464  0.00  0.00    -0.650 OA
BRANCH  20  22
HETATM   22  O   UNK N   1      34.377  13.066  12.517  0.00  0.00    -0.776 OA
HETATM   23  H   UNK N   1      34.148  13.620  13.236  0.00  0.00     0.167 HD
ENDBRANCH  20  22
ENDBRANCH  19  20
ENDBRANCH  18  19
ENDBRANCH  17  18
ENDBRANCH  16  17
ENDBRANCH  15  16
ENDBRANCH  14  15
ENDBRANCH   1  14
TORSDOF 16
ENDMDL
MODEL 5
REMARK VINA RESULT:      -4.8     14.823     17.102
REMARK  16 active torsions:
REMARK  status: ('A' for Active; 'I' for Inactive)
REMARK    1  A    between atoms: O_1  and  C_16 
REMARK    2  A    between atoms: C_3  and  C_4 
REMARK    3  A    between atoms: C_3  and  C_5 
REMARK    4  A    between atoms: C_4  and  C_6 
REMARK    5  A    between atoms: C_5  and  C_7 
REMARK    6  A    between atoms: C_6  and  C_8 
REMARK    7  A    between atoms: C_7  and  C_13 
REMARK    8  A    between atoms: C_8  and  C_16 
REMARK    9  A    between atoms: C_9  and  C_10 
REMARK   10  A    between atoms: C_9  and  C_11 
REMARK   11  A    between atoms: C_10  and  C_12 
REMARK   12  A    between atoms: C_11  and  C_15 
REMARK   13  A    between atoms: C_14  and  C_18 
REMARK   14  A    between atoms: C_18  and  C_21 
REMARK   15  A    between atoms: C_19  and  C_20 
REMARK   16  A    between atoms: C_20  and  C_22 
ROOT
HETATM    1  C   UNK N   1      21.091  14.991   6.328  0.00  0.00    -0.030 C 
HETATM    2  C   UNK N   1      20.727  14.013   7.177  0.00  0.00    -0.027 C 
ENDROOT
BRANCH   2   3
HETATM    3  C   UNK N   1      21.326  14.033   8.544  0.00  0.00     0.053 C 
BRANCH   3   4
HETATM    4  C   UNK N   1      20.455  13.962   9.759  0.00  0.00    -0.027 C 
HETATM    5  C   UNK N   1      20.723  12.994  10.654  0.00  0.00    -0.027 C 
BRANCH   5   6
HETATM    6  C   UNK N   1      21.868  12.059  10.373  0.00  0.00     0.053 C 
BRANCH   6   7
HETATM    7  C   UNK N   1      23.058  12.148  11.264  0.00  0.00    -0.027 C 
HETATM    8  C   UNK N   1      24.280  12.241  10.715  0.00  0.00    -0.030 C 
BRANCH   8   9
HETATM    9  C   UNK N   1      24.460  12.257   9.222  0.00  0.00     0.027 C 
BRANCH   9  10
HETATM   10  C   UNK N   1      25.057  13.560   8.740  0.00  0.00     0.004 C 
BRANCH  10  11
HETATM   11  C   UNK N   1      25.108  13.542   7.225  0.00  0.00    -0.000 C 
BRANCH  11  12
HETATM   12  C   UNK N   1      24.402  12.308   6.706  0.00  0.00    -0.005 C 
HETATM   13  C   UNK N   1      23.716  12.630   5.395  0.00  0.00     0.005 C 
ENDBRANCH  11  12
ENDBRANCH  10  11
ENDBRANCH   9  10
ENDBRANCH   8   9
ENDBRANCH   6   7
ENDBRANCH   5   6
ENDBRANCH   3   4
ENDBRANCH   2   3
BRANCH   1  14
HETATM   14  C   UNK N   1      22.069  16.035   6.800  0.00  0.00     0.027 C 
BRANCH  14  15
HETATM   15  C   UNK N   1      22.806  16.803   5.732  0.00  0.00     0.004 C 
BRANCH  15  16
HETATM   16  C   UNK N   1      21.870  17.936   5.356  0.00  0.00     0.000 C 
BRANCH  16  17
HETATM   17  C   UNK N   1      21.323  17.794   3.954  0.00  0.00     0.001 C 
BRANCH  17  18
HETATM   18  C   UNK N   1      20.937  19.176   3.461  0.00  0.00     0.010 C 
BRANCH  18  19
HETATM   19  C   UNK N   1      20.593  19.126   1.983  0.00  0.00     0.110 C 
BRANCH  19  20
HETATM   20  C   UNK N   1      20.920  20.404   1.264  0.00  0.00     0.139 C 
HETATM   21  O   UNK N   1      21.479  21.326   1.840  0.00  0.00    -0.650 OA
BRANCH  20  22
HETATM   22  O   UNK N   1      20.593  20.536  -0.033  0.00  0.00    -0.776 OA
HETATM   23  H   UNK N   1      20.689  21.364  -0.459  0.00  0.00     0.167 HD
ENDBRANCH  20  22
ENDBRANCH  19  20
ENDBRANCH  18  19
ENDBRANCH  17  18
ENDBRANCH  16  17
ENDBRANCH  15  16
ENDBRANCH  14  15
ENDBRANCH   1  14
TORSDOF 16
ENDMDL
MODEL 6
REMARK VINA RESULT:      -4.8     12.336     14.888
REMARK  16 active torsions:
REMARK  status: ('A' for Active; 'I' for Inactive)
REMARK    1  A    between atoms: O_1  and  C_16 
REMARK    2  A    between atoms: C_3  and  C_4 
REMARK    3  A    between atoms: C_3  and  C_5 
REMARK    4  A    between atoms: C_4  and  C_6 
REMARK    5  A    between atoms: C_5  and  C_7 
REMARK    6  A    between atoms: C_6  and  C_8 
REMARK    7  A    between atoms: C_7  and  C_13 
REMARK    8  A    between atoms: C_8  and  C_16 
REMARK    9  A    between atoms: C_9  and  C_10 
REMARK   10  A    between atoms: C_9  and  C_11 
REMARK   11  A    between atoms: C_10  and  C_12 
REMARK   12  A    between atoms: C_11  and  C_15 
REMARK   13  A    between atoms: C_14  and  C_18 
REMARK   14  A    between atoms: C_18  and  C_21 
REMARK   15  A    between atoms: C_19  and  C_20 
REMARK   16  A    between atoms: C_20  and  C_22 
ROOT
HETATM    1  C   UNK N   1      28.378  15.065   5.297  0.00  0.00    -0.030 C 
HETATM    2  C   UNK N   1      27.055  15.123   5.534  0.00  0.00    -0.027 C 
ENDROOT
BRANCH   2   3
HETATM    3  C   UNK N   1      26.357  16.406   5.226  0.00  0.00     0.053 C 
BRANCH   3   4
HETATM    4  C   UNK N   1      25.868  16.696   3.843  0.00  0.00    -0.027 C 
HETATM    5  C   UNK N   1      25.353  17.918   3.614  0.00  0.00    -0.027 C 
BRANCH   5   6
HETATM    6  C   UNK N   1      25.307  18.898   4.755  0.00  0.00     0.053 C 
BRANCH   6   7
HETATM    7  C   UNK N   1      25.782  20.284   4.486  0.00  0.00    -0.027 C 
HETATM    8  C   UNK N   1      27.013  20.641   4.884  0.00  0.00    -0.030 C 
BRANCH   8   9
HETATM    9  C   UNK N   1      27.913  19.666   5.594  0.00  0.00     0.027 C 
BRANCH   9  10
HETATM   10  C   UNK N   1      27.757  19.747   7.096  0.00  0.00     0.004 C 
BRANCH  10  11
HETATM   11  C   UNK N   1      28.171  18.420   7.701  0.00  0.00    -0.000 C 
BRANCH  11  12
HETATM   12  C   UNK N   1      28.873  18.659   9.021  0.00  0.00    -0.005 C 
HETATM   13  C   UNK N   1      29.079  17.338   9.731  0.00  0.00     0.005 C 
ENDBRANCH  11  12
ENDBRANCH  10  11
ENDBRANCH   9  10
ENDBRANCH   8   9
ENDBRANCH   6   7
ENDBRANCH   5   6
ENDBRANCH   3   4
ENDBRANCH   2   3
BRANCH   1  14
HETATM   14  C   UNK N   1      29.068  16.283   4.741  0.00  0.00     0.027 C 
BRANCH  14  15
HETATM   15  C   UNK N   1      30.392  16.651   5.363  0.00  0.00     0.004 C 
BRANCH  15  16
HETATM   16  C   UNK N   1      30.569  15.667   6.504  0.00  0.00     0.000 C 
BRANCH  16  17
HETATM   17  C   UNK N   1      31.792  15.966   7.341  0.00  0.00     0.001 C 
BRANCH  17  18
HETATM   18  C   UNK N   1      31.971  17.472   7.385  0.00  0.00     0.010 C 
BRANCH  18  19
HETATM   19  C   UNK N   1      33.015  17.844   8.424  0.00  0.00     0.110 C 
BRANCH  19  20
HETATM   20  C   UNK N   1      34.322  18.264   7.813  0.00  0.00     0.139 C 
HETATM   21  O   UNK N   1      34.637  17.903   6.688  0.00  0.00    -0.650 OA
BRANCH  20  22
HETATM   22  O   UNK N   1      35.158  19.047   8.515  0.00  0.00    -0.776 OA
HETATM   23  H   UNK N   1      35.229  19.958   8.311  0.00  0.00     0.167 HD
ENDBRANCH  20  22
ENDBRANCH  19  20
ENDBRANCH  18  19
ENDBRANCH  17  18
ENDBRANCH  16  17
ENDBRANCH  15  16
ENDBRANCH  14  15
ENDBRANCH   1  14
TORSDOF 16
ENDMDL
MODEL 7
REMARK VINA RESULT:      -4.8     11.012     14.049
REMARK  16 active torsions:
REMARK  status: ('A' for Active; 'I' for Inactive)
REMARK    1  A    between atoms: O_1  and  C_16 
REMARK    2  A    between atoms: C_3  and  C_4 
REMARK    3  A    between atoms: C_3  and  C_5 
REMARK    4  A    between atoms: C_4  and  C_6 
REMARK    5  A    between atoms: C_5  and  C_7 
REMARK    6  A    between atoms: C_6  and  C_8 
REMARK    7  A    between atoms: C_7  and  C_13 
REMARK    8  A    between atoms: C_8  and  C_16 
REMARK    9  A    between atoms: C_9  and  C_10 
REMARK   10  A    between atoms: C_9  and  C_11 
REMARK   11  A    between atoms: C_10  and  C_12 
REMARK   12  A    between atoms: C_11  and  C_15 
REMARK   13  A    between atoms: C_14  and  C_18 
REMARK   14  A    between atoms: C_18  and  C_21 
REMARK   15  A    between atoms: C_19  and  C_20 
REMARK   16  A    between atoms: C_20  and  C_22 
ROOT
HETATM    1  C   UNK N   1      27.919  17.654   6.686  0.00  0.00    -0.030 C 
HETATM    2  C   UNK N   1      28.590  17.287   7.792  0.00  0.00    -0.027 C 
ENDROOT
BRANCH   2   3
HETATM    3  C   UNK N   1      30.058  17.556   7.827  0.00  0.00     0.053 C 
BRANCH   3   4
HETATM    4  C   UNK N   1      30.968  16.715   8.665  0.00  0.00    -0.027 C 
HETATM    5  C   UNK N   1      32.292  16.855   8.470  0.00  0.00    -0.027 C 
BRANCH   5   6
HETATM    6  C   UNK N   1      32.759  17.839   7.431  0.00  0.00     0.053 C 
BRANCH   6   7
HETATM    7  C   UNK N   1      33.776  17.367   6.451  0.00  0.00    -0.027 C 
HETATM    8  C   UNK N   1      33.425  17.222   5.163  0.00  0.00    -0.030 C 
BRANCH   8   9
HETATM    9  C   UNK N   1      32.026  17.528   4.701  0.00  0.00     0.027 C 
BRANCH   9  10
HETATM   10  C   UNK N   1      31.428  16.381   3.918  0.00  0.00     0.004 C 
BRANCH  10  11
HETATM   11  C   UNK N   1      31.757  15.082   4.628  0.00  0.00    -0.000 C 
BRANCH  11  12
HETATM   12  C   UNK N   1      30.659  14.748   5.615  0.00  0.00    -0.005 C 
HETATM   13  C   UNK N   1      29.361  14.517   4.870  0.00  0.00     0.005 C 
ENDBRANCH  11  12
ENDBRANCH  10  11
ENDBRANCH   9  10
ENDBRANCH   8   9
ENDBRANCH   6   7
ENDBRANCH   5   6
ENDBRANCH   3   4
ENDBRANCH   2   3
BRANCH   1  14
HETATM   14  C   UNK N   1      28.679  18.307   5.561  0.00  0.00     0.027 C 
BRANCH  14  15
HETATM   15  C   UNK N   1      28.137  18.098   4.169  0.00  0.00     0.004 C 
BRANCH  15  16
HETATM   16  C   UNK N   1      26.854  17.313   4.369  0.00  0.00     0.000 C 
BRANCH  16  17
HETATM   17  C   UNK N   1      25.708  17.858   3.548  0.00  0.00     0.001 C 
BRANCH  17  18
HETATM   18  C   UNK N   1      25.131  19.052   4.287  0.00  0.00     0.010 C 
BRANCH  18  19
HETATM   19  C   UNK N   1      23.753  19.387   3.744  0.00  0.00     0.110 C 
BRANCH  19  20
HETATM   20  C   UNK N   1      23.754  20.600   2.858  0.00  0.00     0.139 C 
HETATM   21  O   UNK N   1      24.699  20.842   2.120  0.00  0.00    -0.650 OA
BRANCH  20  22
HETATM   22  O   UNK N   1      22.699  21.432   2.875  0.00  0.00    -0.776 OA
HETATM   23  H   UNK N   1      22.798  22.321   2.596  0.00  0.00     0.167 HD
ENDBRANCH  20  22
ENDBRANCH  19  20
ENDBRANCH  18  19
ENDBRANCH  17  18
ENDBRANCH  16  17
ENDBRANCH  15  16
ENDBRANCH  14  15
ENDBRANCH   1  14
TORSDOF 16
ENDMDL
MODEL 8
REMARK VINA RESULT:      -4.7      1.026      2.273
REMARK  16 active torsions:
REMARK  status: ('A' for Active; 'I' for Inactive)
REMARK    1  A    between atoms: O_1  and  C_16 
REMARK    2  A    between atoms: C_3  and  C_4 
REMARK    3  A    between atoms: C_3  and  C_5 
REMARK    4  A    between atoms: C_4  and  C_6 
REMARK    5  A    between atoms: C_5  and  C_7 
REMARK    6  A    between atoms: C_6  and  C_8 
REMARK    7  A    between atoms: C_7  and  C_13 
REMARK    8  A    between atoms: C_8  and  C_16 
REMARK    9  A    between atoms: C_9  and  C_10 
REMARK   10  A    between atoms: C_9  and  C_11 
REMARK   11  A    between atoms: C_10  and  C_12 
REMARK   12  A    between atoms: C_11  and  C_15 
REMARK   13  A    between atoms: C_14  and  C_18 
REMARK   14  A    between atoms: C_18  and  C_21 
REMARK   15  A    between atoms: C_19  and  C_20 
REMARK   16  A    between atoms: C_20  and  C_22 
ROOT
HETATM    1  C   UNK N   1      31.216  20.461  -4.803  0.00  0.00    -0.030 C 
HETATM    2  C   UNK N   1      30.843  21.088  -3.673  0.00  0.00    -0.027 C 
ENDROOT
BRANCH   2   3
HETATM    3  C   UNK N   1      29.924  22.257  -3.806  0.00  0.00     0.053 C 
BRANCH   3   4
HETATM    4  C   UNK N   1      30.314  23.600  -3.274  0.00  0.00    -0.027 C 
HETATM    5  C   UNK N   1      29.531  24.644  -3.600  0.00  0.00    -0.027 C 
BRANCH   5   6
HETATM    6  C   UNK N   1      28.328  24.389  -4.468  0.00  0.00     0.053 C 
BRANCH   6   7
HETATM    7  C   UNK N   1      27.021  24.184  -3.783  0.00  0.00    -0.027 C 
HETATM    8  C   UNK N   1      25.890  24.532  -4.416  0.00  0.00    -0.030 C 
BRANCH   8   9
HETATM    9  C   UNK N   1      25.925  25.123  -5.799  0.00  0.00     0.027 C 
BRANCH   9  10
HETATM   10  C   UNK N   1      25.164  26.428  -5.873  0.00  0.00     0.004 C 
BRANCH  10  11
HETATM   11  C   UNK N   1      26.114  27.565  -5.551  0.00  0.00    -0.000 C 
BRANCH  11  12
HETATM   12  C   UNK N   1      25.681  28.244  -4.270  0.00  0.00    -0.005 C 
HETATM   13  C   UNK N   1      26.649  27.895  -3.159  0.00  0.00     0.005 C 
ENDBRANCH  11  12
ENDBRANCH  10  11
ENDBRANCH   9  10
ENDBRANCH   8   9
ENDBRANCH   6   7
ENDBRANCH   5   6
ENDBRANCH   3   4
ENDBRANCH   2   3
BRANCH   1  14
HETATM   14  C   UNK N   1      30.692  20.969  -6.120  0.00  0.00     0.027 C 
BRANCH  14  15
HETATM   15  C   UNK N   1      29.946  19.977  -6.978  0.00  0.00     0.004 C 
BRANCH  15  16
HETATM   16  C   UNK N   1      29.275  20.819  -8.047  0.00  0.00     0.000 C 
BRANCH  16  17
HETATM   17  C   UNK N   1      28.825  22.164  -7.527  0.00  0.00     0.001 C 
BRANCH  17  18
HETATM   18  C   UNK N   1      27.368  22.042  -7.119  0.00  0.00     0.010 C 
BRANCH  18  19
HETATM   19  C   UNK N   1      26.482  22.000  -8.352  0.00  0.00     0.110 C 
BRANCH  19  20
HETATM   20  C   UNK N   1      25.049  22.340  -8.054  0.00  0.00     0.139 C 
HETATM   21  O   UNK N   1      24.422  21.731  -7.199  0.00  0.00    -0.650 OA
BRANCH  20  22
HETATM   22  O   UNK N   1      24.448  23.329  -8.737  0.00  0.00    -0.776 OA
HETATM   23  H   UNK N   1      24.941  24.078  -9.006  0.00  0.00     0.167 HD
ENDBRANCH  20  22
ENDBRANCH  19  20
ENDBRANCH  18  19
ENDBRANCH  17  18
ENDBRANCH  16  17
ENDBRANCH  15  16
ENDBRANCH  14  15
ENDBRANCH   1  14
TORSDOF 16
ENDMDL
MODEL 9
REMARK VINA RESULT:      -4.7     25.163     28.160
REMARK  16 active torsions:
REMARK  status: ('A' for Active; 'I' for Inactive)
REMARK    1  A    between atoms: O_1  and  C_16 
REMARK    2  A    between atoms: C_3  and  C_4 
REMARK    3  A    between atoms: C_3  and  C_5 
REMARK    4  A    between atoms: C_4  and  C_6 
REMARK    5  A    between atoms: C_5  and  C_7 
REMARK    6  A    between atoms: C_6  and  C_8 
REMARK    7  A    between atoms: C_7  and  C_13 
REMARK    8  A    between atoms: C_8  and  C_16 
REMARK    9  A    between atoms: C_9  and  C_10 
REMARK   10  A    between atoms: C_9  and  C_11 
REMARK   11  A    between atoms: C_10  and  C_12 
REMARK   12  A    between atoms: C_11  and  C_15 
REMARK   13  A    between atoms: C_14  and  C_18 
REMARK   14  A    between atoms: C_18  and  C_21 
REMARK   15  A    between atoms: C_19  and  C_20 
REMARK   16  A    between atoms: C_20  and  C_22 
ROOT
HETATM    1  C   UNK N   1      35.169  13.164  18.853  0.00  0.00    -0.030 C 
HETATM    2  C   UNK N   1      35.276  13.942  17.761  0.00  0.00    -0.027 C 
ENDROOT
BRANCH   2   3
HETATM    3  C   UNK N   1      35.529  13.264  16.455  0.00  0.00     0.053 C 
BRANCH   3   4
HETATM    4  C   UNK N   1      36.646  13.711  15.567  0.00  0.00    -0.027 C 
HETATM    5  C   UNK N   1      36.438  13.655  14.239  0.00  0.00    -0.027 C 
BRANCH   5   6
HETATM    6  C   UNK N   1      35.108  13.152  13.746  0.00  0.00     0.053 C 
BRANCH   6   7
HETATM    7  C   UNK N   1      35.116  11.954  12.861  0.00  0.00    -0.027 C 
HETATM    8  C   UNK N   1      34.413  10.869  13.225  0.00  0.00    -0.030 C 
BRANCH   8   9
HETATM    9  C   UNK N   1      33.623  10.850  14.505  0.00  0.00     0.027 C 
BRANCH   9  10
HETATM   10  C   UNK N   1      34.332  10.073  15.592  0.00  0.00     0.004 C 
BRANCH  10  11
HETATM   11  C   UNK N   1      35.569   9.425  15.001  0.00  0.00    -0.000 C 
BRANCH  11  12
HETATM   12  C   UNK N   1      36.790   9.841  15.792  0.00  0.00    -0.005 C 
HETATM   13  C   UNK N   1      37.906  10.219  14.842  0.00  0.00     0.005 C 
ENDBRANCH  11  12
ENDBRANCH  10  11
ENDBRANCH   9  10
ENDBRANCH   8   9
ENDBRANCH   6   7
ENDBRANCH   5   6
ENDBRANCH   3   4
ENDBRANCH   2   3
BRANCH   1  14
HETATM   14  C   UNK N   1      35.309  11.673  18.696  0.00  0.00     0.027 C 
BRANCH  14  15
HETATM   15  C   UNK N   1      36.000  10.938  19.817  0.00  0.00     0.004 C 
BRANCH  15  16
HETATM   16  C   UNK N   1      35.559   9.494  19.663  0.00  0.00     0.000 C 
BRANCH  16  17
HETATM   17  C   UNK N   1      34.226   9.369  18.961  0.00  0.00     0.001 C 
BRANCH  17  18
HETATM   18  C   UNK N   1      33.647   8.008  19.301  0.00  0.00     0.010 C 
BRANCH  18  19
HETATM   19  C   UNK N   1      32.960   8.055  20.655  0.00  0.00     0.110 C 
BRANCH  19  20
HETATM   20  C   UNK N   1      31.514   7.655  20.591  0.00  0.00     0.139 C 
HETATM   21  O   UNK N   1      30.688   8.362  20.030  0.00  0.00    -0.650 OA
BRANCH  20  22
HETATM   22  O   UNK N   1      31.121   6.502  21.158  0.00  0.00    -0.776 OA
HETATM   23  H   UNK N   1      31.749   5.948  21.577  0.00  0.00     0.167 HD
ENDBRANCH  20  22
ENDBRANCH  19  20
ENDBRANCH  18  19
ENDBRANCH  17  18
ENDBRANCH  16  17
ENDBRANCH  15  16
ENDBRANCH  14  15
ENDBRANCH   1  14
TORSDOF 16
ENDMDL
