MODEL 1
REMARK VINA RESULT:      -5.4      0.000      0.000
REMARK  5 active torsions:
REMARK  status: ('A' for Active; 'I' for Inactive)
REMARK    1  A    between atoms: O_1  and  C_9 
REMARK    2  A    between atoms: C_5  and  N_3 
REMARK    3  A    between atoms: C_4  and  C_5 
REMARK    4  A    between atoms: C_4  and  C_6 
REMARK    5  A    between atoms: C_5  and  C_9 
ROOT
HETATM    1  C   UNK N   1      33.287  17.667   8.706  0.00  0.00     0.177 C 
ENDROOT
BRANCH   1   2
HETATM    2  N   UNK N   1      33.870  16.658   9.573  0.00  0.00    -0.417 N 
HETATM    3  H   UNK N   1      34.410  15.815   9.376  0.00  0.00     0.150 HD
HETATM    4  H   UNK N   1      33.709  16.823  10.567  0.00  0.00     0.150 HD
ENDBRANCH   1   2
BRANCH   1   5
HETATM    5  C   UNK N   1      32.210  17.058   7.791  0.00  0.00     0.074 C 
BRANCH   5   6
HETATM    6  C   UNK N   1      30.780  17.478   8.000  0.00  0.00    -0.056 A 
HETATM    7  C   UNK N   1      29.769  17.218   7.061  0.00  0.00     0.007 A 
HETATM    8  C   UNK N   1      28.466  17.677   7.281  0.00  0.00     0.001 A 
HETATM    9  C   UNK N   1      28.165  18.394   8.442  0.00  0.00     0.000 A 
HETATM   10  C   UNK N   1      29.164  18.647   9.385  0.00  0.00     0.001 A 
HETATM   11  C   UNK N   1      30.467  18.195   9.161  0.00  0.00     0.007 A 
ENDBRANCH   5   6
ENDBRANCH   1   5
BRANCH   1  12
HETATM   12  C   UNK N   1      34.393  18.292   7.893  0.00  0.00     0.163 C 
HETATM   13  O   UNK N   1      34.533  18.023   6.710  0.00  0.00    -0.648 OA
BRANCH  12  14
HETATM   14  O   UNK N   1      35.256  19.138   8.486  0.00  0.00    -0.775 OA
HETATM   15  H   UNK N   1      35.159  20.066   8.397  0.00  0.00     0.167 HD
ENDBRANCH  12  14
ENDBRANCH   1  12
TORSDOF 5
ENDMDL
MODEL 2
REMARK VINA RESULT:      -5.2      9.428     10.630
REMARK  5 active torsions:
REMARK  status: ('A' for Active; 'I' for Inactive)
REMARK    1  A    between atoms: O_1  and  C_9 
REMARK    2  A    between atoms: C_5  and  N_3 
REMARK    3  A    between atoms: C_4  and  C_5 
REMARK    4  A    between atoms: C_4  and  C_6 
REMARK    5  A    between atoms: C_5  and  C_9 
ROOT
HETATM    1  C   UNK N   1      36.353  13.552  14.629  0.00  0.00     0.177 C 
ENDROOT
BRANCH   1   2
HETATM    2  N   UNK N   1      37.584  12.781  14.681  0.00  0.00    -0.417 N 
HETATM    3  H   UNK N   1      38.313  12.702  15.390  0.00  0.00     0.150 HD
HETATM    4  H   UNK N   1      37.750  12.212  13.851  0.00  0.00     0.150 HD
ENDBRANCH   1   2
BRANCH   1   5
HETATM    5  C   UNK N   1      35.195  12.795  15.304  0.00  0.00     0.074 C 
BRANCH   5   6
HETATM    6  C   UNK N   1      35.295  12.516  16.781  0.00  0.00    -0.056 A 
HETATM    7  C   UNK N   1      35.512  11.227  17.295  0.00  0.00     0.007 A 
HETATM    8  C   UNK N   1      35.544  11.016  18.677  0.00  0.00     0.001 A 
HETATM    9  C   UNK N   1      35.363  12.090  19.553  0.00  0.00     0.000 A 
HETATM   10  C   UNK N   1      35.156  13.376  19.047  0.00  0.00     0.001 A 
HETATM   11  C   UNK N   1      35.118  13.586  17.666  0.00  0.00     0.007 A 
ENDBRANCH   5   6
ENDBRANCH   1   5
BRANCH   1  12
HETATM   12  C   UNK N   1      36.035  13.843  13.185  0.00  0.00     0.163 C 
HETATM   13  O   UNK N   1      34.878  13.915  12.797  0.00  0.00    -0.648 OA
BRANCH  12  14
HETATM   14  O   UNK N   1      37.039  13.999  12.301  0.00  0.00    -0.775 OA
HETATM   15  H   UNK N   1      36.868  14.045  11.381  0.00  0.00     0.167 HD
ENDBRANCH  12  14
ENDBRANCH   1  12
TORSDOF 5
ENDMDL
MODEL 3
REMARK VINA RESULT:      -5.1     10.141     11.820
REMARK  5 active torsions:
REMARK  status: ('A' for Active; 'I' for Inactive)
REMARK    1  A    between atoms: O_1  and  C_9 
REMARK    2  A    between atoms: C_5  and  N_3 
REMARK    3  A    between atoms: C_4  and  C_5 
REMARK    4  A    between atoms: C_4  and  C_6 
REMARK    5  A    between atoms: C_5  and  C_9 
ROOT
HETATM    1  C   UNK N   1      20.787  19.518   2.084  0.00  0.00     0.177 C 
ENDROOT
BRANCH   1   2
HETATM    2  N   UNK N   1      19.381  19.233   2.317  0.00  0.00    -0.417 N 
HETATM    3  H   UNK N   1      18.657  19.732   2.834  0.00  0.00     0.150 HD
HETATM    4  H   UNK N   1      19.056  18.368   1.882  0.00  0.00     0.150 HD
ENDBRANCH   1   2
BRANCH   1   5
HETATM    5  C   UNK N   1      21.529  19.768   3.408  0.00  0.00     0.074 C 
BRANCH   5   6
HETATM    6  C   UNK N   1      23.014  19.517   3.448  0.00  0.00    -0.056 A 
HETATM    7  C   UNK N   1      23.569  18.344   3.984  0.00  0.00     0.007 A 
HETATM    8  C   UNK N   1      24.957  18.184   4.044  0.00  0.00     0.001 A 
HETATM    9  C   UNK N   1      25.798  19.193   3.565  0.00  0.00     0.000 A 
HETATM   10  C   UNK N   1      25.250  20.358   3.022  0.00  0.00     0.001 A 
HETATM   11  C   UNK N   1      23.864  20.520   2.969  0.00  0.00     0.007 A 
ENDBRANCH   5   6
ENDBRANCH   1   5
BRANCH   1  12
HETATM   12  C   UNK N   1      20.883  20.720   1.178  0.00  0.00     0.163 C 
HETATM   13  O   UNK N   1      21.052  20.589  -0.024  0.00  0.00    -0.648 OA
BRANCH  12  14
HETATM   14  O   UNK N   1      20.812  21.957   1.706  0.00  0.00    -0.775 OA
HETATM   15  H   UNK N   1      20.565  22.085   2.600  0.00  0.00     0.167 HD
ENDBRANCH  12  14
ENDBRANCH   1  12
TORSDOF 5
ENDMDL
MODEL 4
REMARK VINA RESULT:      -4.9      2.630      3.607
REMARK  5 active torsions:
REMARK  status: ('A' for Active; 'I' for Inactive)
REMARK    1  A    between atoms: O_1  and  C_9 
REMARK    2  A    between atoms: C_5  and  N_3 
REMARK    3  A    between atoms: C_4  and  C_5 
REMARK    4  A    between atoms: C_4  and  C_6 
REMARK    5  A    between atoms: C_5  and  C_9 
ROOT
HETATM    1  C   UNK N   1      34.532  17.487   8.569  0.00  0.00     0.177 C 
ENDROOT
BRANCH   1   2
HETATM    2  N   UNK N   1      34.955  18.877   8.549  0.00  0.00    -0.417 N 
HETATM    3  H   UNK N   1      35.844  19.318   8.314  0.00  0.00     0.150 HD
HETATM    4  H   UNK N   1      34.225  19.536   8.822  0.00  0.00     0.150 HD
ENDBRANCH   1   2
BRANCH   1   5
HETATM    5  C   UNK N   1      33.024  17.362   8.290  0.00  0.00     0.074 C 
BRANCH   5   6
HETATM    6  C   UNK N   1      32.567  17.335   6.855  0.00  0.00    -0.056 A 
HETATM    7  C   UNK N   1      33.455  17.474   5.776  0.00  0.00     0.007 A 
HETATM    8  C   UNK N   1      32.971  17.495   4.463  0.00  0.00     0.001 A 
HETATM    9  C   UNK N   1      31.600  17.372   4.222  0.00  0.00     0.000 A 
HETATM   10  C   UNK N   1      30.714  17.224   5.291  0.00  0.00     0.001 A 
HETATM   11  C   UNK N   1      31.196  17.210   6.603  0.00  0.00     0.007 A 
ENDBRANCH   5   6
ENDBRANCH   1   5
BRANCH   1  12
HETATM   12  C   UNK N   1      34.879  16.903   9.915  0.00  0.00     0.163 C 
HETATM   13  O   UNK N   1      35.900  17.234  10.499  0.00  0.00    -0.648 OA
BRANCH  12  14
HETATM   14  O   UNK N   1      34.069  15.983  10.470  0.00  0.00    -0.775 OA
HETATM   15  H   UNK N   1      33.325  16.240  10.979  0.00  0.00     0.167 HD
ENDBRANCH  12  14
ENDBRANCH   1  12
TORSDOF 5
ENDMDL
MODEL 5
REMARK VINA RESULT:      -4.9      3.846      5.318
REMARK  5 active torsions:
REMARK  status: ('A' for Active; 'I' for Inactive)
REMARK    1  A    between atoms: O_1  and  C_9 
REMARK    2  A    between atoms: C_5  and  N_3 
REMARK    3  A    between atoms: C_4  and  C_5 
REMARK    4  A    between atoms: C_4  and  C_6 
REMARK    5  A    between atoms: C_5  and  C_9 
ROOT
HETATM    1  C   UNK N   1      28.783  18.334   7.459  0.00  0.00     0.177 C 
ENDROOT
BRANCH   1   2
HETATM    2  N   UNK N   1      27.474  18.430   6.835  0.00  0.00    -0.417 N 
HETATM    3  H   UNK N   1      27.173  18.363   5.863  0.00  0.00     0.150 HD
HETATM    4  H   UNK N   1      26.713  18.597   7.494  0.00  0.00     0.150 HD
ENDBRANCH   1   2
BRANCH   1   5
HETATM    5  C   UNK N   1      29.511  17.050   7.026  0.00  0.00     0.074 C 
BRANCH   5   6
HETATM    6  C   UNK N   1      30.862  17.185   6.374  0.00  0.00    -0.056 A 
HETATM    7  C   UNK N   1      32.056  17.231   7.111  0.00  0.00     0.007 A 
HETATM    8  C   UNK N   1      33.281  17.411   6.459  0.00  0.00     0.001 A 
HETATM    9  C   UNK N   1      33.319  17.541   5.068  0.00  0.00     0.000 A 
HETATM   10  C   UNK N   1      32.134  17.486   4.329  0.00  0.00     0.001 A 
HETATM   11  C   UNK N   1      30.911  17.313   4.981  0.00  0.00     0.007 A 
ENDBRANCH   5   6
ENDBRANCH   1   5
BRANCH   1  12
HETATM   12  C   UNK N   1      28.599  18.369   8.955  0.00  0.00     0.163 C 
HETATM   13  O   UNK N   1      29.523  18.672   9.696  0.00  0.00    -0.648 OA
BRANCH  12  14
HETATM   14  O   UNK N   1      27.408  18.035   9.487  0.00  0.00    -0.775 OA
HETATM   15  H   UNK N   1      26.884  17.358   9.106  0.00  0.00     0.167 HD
ENDBRANCH  12  14
ENDBRANCH   1  12
TORSDOF 5
ENDMDL
MODEL 6
REMARK VINA RESULT:      -4.8     10.880     12.028
REMARK  5 active torsions:
REMARK  status: ('A' for Active; 'I' for Inactive)
REMARK    1  A    between atoms: O_1  and  C_9 
REMARK    2  A    between atoms: C_5  and  N_3 
REMARK    3  A    between atoms: C_4  and  C_5 
REMARK    4  A    between atoms: C_4  and  C_6 
REMARK    5  A    between atoms: C_5  and  C_9 
ROOT
HETATM    1  C   UNK N   1      20.977  15.875   8.512  0.00  0.00     0.177 C 
ENDROOT
BRANCH   1   2
HETATM    2  N   UNK N   1      21.500  16.197   7.195  0.00  0.00    -0.417 N 
HETATM    3  H   UNK N   1      22.432  16.112   6.789  0.00  0.00     0.150 HD
HETATM    4  H   UNK N   1      20.803  16.581   6.555  0.00  0.00     0.150 HD
ENDBRANCH   1   2
BRANCH   1   5
HETATM    5  C   UNK N   1      20.566  14.395   8.600  0.00  0.00     0.074 C 
BRANCH   5   6
HETATM    6  C   UNK N   1      21.280  13.518   9.595  0.00  0.00    -0.056 A 
HETATM    7  C   UNK N   1      20.607  12.836  10.621  0.00  0.00     0.007 A 
HETATM    8  C   UNK N   1      21.325  12.076  11.552  0.00  0.00     0.001 A 
HETATM    9  C   UNK N   1      22.717  11.990  11.458  0.00  0.00     0.000 A 
HETATM   10  C   UNK N   1      23.390  12.659  10.432  0.00  0.00     0.001 A 
HETATM   11  C   UNK N   1      22.674  13.423   9.508  0.00  0.00     0.007 A 
ENDBRANCH   5   6
ENDBRANCH   1   5
BRANCH   1  12
HETATM   12  C   UNK N   1      19.801  16.777   8.789  0.00  0.00     0.163 C 
HETATM   13  O   UNK N   1      19.946  17.985   8.894  0.00  0.00    -0.648 OA
BRANCH  12  14
HETATM   14  O   UNK N   1      18.576  16.241   8.952  0.00  0.00    -0.775 OA
HETATM   15  H   UNK N   1      17.977  16.593   9.581  0.00  0.00     0.167 HD
ENDBRANCH  12  14
ENDBRANCH   1  12
TORSDOF 5
ENDMDL
MODEL 7
REMARK VINA RESULT:      -4.7     12.982     13.768
REMARK  5 active torsions:
REMARK  status: ('A' for Active; 'I' for Inactive)
REMARK    1  A    between atoms: O_1  and  C_9 
REMARK    2  A    between atoms: C_5  and  N_3 
REMARK    3  A    between atoms: C_4  and  C_5 
REMARK    4  A    between atoms: C_4  and  C_6 
REMARK    5  A    between atoms: C_5  and  C_9 
ROOT
HETATM    1  C   UNK N   1      30.301  21.970  -3.823  0.00  0.00     0.177 C 
ENDROOT
BRANCH   1   2
HETATM    2  N   UNK N   1      31.136  21.161  -4.696  0.00  0.00    -0.417 N 
HETATM    3  H   UNK N   1      32.133  20.946  -4.683  0.00  0.00     0.150 HD
HETATM    4  H   UNK N   1      30.629  20.728  -5.468  0.00  0.00     0.150 HD
ENDBRANCH   1   2
BRANCH   1   5
HETATM    5  C   UNK N   1      29.938  23.310  -4.488  0.00  0.00     0.074 C 
BRANCH   5   6
HETATM    6  C   UNK N   1      28.483  23.613  -4.726  0.00  0.00    -0.056 A 
HETATM    7  C   UNK N   1      27.847  23.357  -5.952  0.00  0.00     0.007 A 
HETATM    8  C   UNK N   1      26.505  23.707  -6.137  0.00  0.00     0.001 A 
HETATM    9  C   UNK N   1      25.791  24.310  -5.098  0.00  0.00     0.000 A 
HETATM   10  C   UNK N   1      26.415  24.557  -3.873  0.00  0.00     0.001 A 
HETATM   11  C   UNK N   1      27.758  24.214  -3.691  0.00  0.00     0.007 A 
ENDBRANCH   5   6
ENDBRANCH   1   5
BRANCH   1  12
HETATM   12  C   UNK N   1      31.042  22.194  -2.530  0.00  0.00     0.163 C 
HETATM   13  O   UNK N   1      30.667  23.035  -1.727  0.00  0.00    -0.648 OA
BRANCH  12  14
HETATM   14  O   UNK N   1      32.151  21.477  -2.266  0.00  0.00    -0.775 OA
HETATM   15  H   UNK N   1      32.496  21.426  -1.397  0.00  0.00     0.167 HD
ENDBRANCH  12  14
ENDBRANCH   1  12
TORSDOF 5
ENDMDL
MODEL 8
REMARK VINA RESULT:      -4.7     10.654     11.269
REMARK  5 active torsions:
REMARK  status: ('A' for Active; 'I' for Inactive)
REMARK    1  A    between atoms: O_1  and  C_9 
REMARK    2  A    between atoms: C_5  and  N_3 
REMARK    3  A    between atoms: C_4  and  C_5 
REMARK    4  A    between atoms: C_4  and  C_6 
REMARK    5  A    between atoms: C_5  and  C_9 
ROOT
HETATM    1  C   UNK N   1      23.771  11.957  11.407  0.00  0.00     0.177 C 
ENDROOT
BRANCH   1   2
HETATM    2  N   UNK N   1      25.040  12.661  11.331  0.00  0.00    -0.417 N 
HETATM    3  H   UNK N   1      25.913  12.448  10.849  0.00  0.00     0.150 HD
HETATM    4  H   UNK N   1      25.062  13.533  11.862  0.00  0.00     0.150 HD
ENDBRANCH   1   2
BRANCH   1   5
HETATM    5  C   UNK N   1      22.707  12.636  10.525  0.00  0.00     0.074 C 
BRANCH   5   6
HETATM    6  C   UNK N   1      22.557  12.163   9.104  0.00  0.00    -0.056 A 
HETATM    7  C   UNK N   1      21.532  12.619   8.259  0.00  0.00     0.007 A 
HETATM    8  C   UNK N   1      21.406  12.108   6.963  0.00  0.00     0.001 A 
HETATM    9  C   UNK N   1      22.306  11.142   6.503  0.00  0.00     0.000 A 
HETATM   10  C   UNK N   1      23.333  10.692   7.336  0.00  0.00     0.001 A 
HETATM   11  C   UNK N   1      23.454  11.198   8.632  0.00  0.00     0.007 A 
ENDBRANCH   5   6
ENDBRANCH   1   5
BRANCH   1  12
HETATM   12  C   UNK N   1      23.332  11.923  12.849  0.00  0.00     0.163 C 
HETATM   13  O   UNK N   1      22.378  11.245  13.200  0.00  0.00    -0.648 OA
BRANCH  12  14
HETATM   14  O   UNK N   1      23.982  12.672  13.760  0.00  0.00    -0.775 OA
HETATM   15  H   UNK N   1      24.429  12.273  14.480  0.00  0.00     0.167 HD
ENDBRANCH  12  14
ENDBRANCH   1  12
TORSDOF 5
ENDMDL
MODEL 9
REMARK VINA RESULT:      -4.6     16.005     17.023
REMARK  5 active torsions:
REMARK  status: ('A' for Active; 'I' for Inactive)
REMARK    1  A    between atoms: O_1  and  C_9 
REMARK    2  A    between atoms: C_5  and  N_3 
REMARK    3  A    between atoms: C_4  and  C_5 
REMARK    4  A    between atoms: C_4  and  C_6 
REMARK    5  A    between atoms: C_5  and  C_9 
ROOT
HETATM    1  C   UNK N   1      25.535  24.671  -5.207  0.00  0.00     0.177 C 
ENDROOT
BRANCH   1   2
HETATM    2  N   UNK N   1      25.251  23.455  -5.950  0.00  0.00    -0.417 N 
HETATM    3  H   UNK N   1      25.856  22.728  -6.332  0.00  0.00     0.150 HD
HETATM    4  H   UNK N   1      24.257  23.298  -6.122  0.00  0.00     0.150 HD
ENDBRANCH   1   2
BRANCH   1   5
HETATM    5  C   UNK N   1      25.733  25.867  -6.156  0.00  0.00     0.074 C 
BRANCH   5   6
HETATM    6  C   UNK N   1      26.159  27.182  -5.560  0.00  0.00    -0.056 A 
HETATM    7  C   UNK N   1      25.592  27.699  -4.383  0.00  0.00     0.007 A 
HETATM    8  C   UNK N   1      25.987  28.952  -3.901  0.00  0.00     0.001 A 
HETATM    9  C   UNK N   1      26.952  29.692  -4.589  0.00  0.00     0.000 A 
HETATM   10  C   UNK N   1      27.527  29.179  -5.754  0.00  0.00     0.001 A 
HETATM   11  C   UNK N   1      27.127  27.931  -6.239  0.00  0.00     0.007 A 
ENDBRANCH   5   6
ENDBRANCH   1   5
BRANCH   1  12
HETATM   12  C   UNK N   1      26.767  24.439  -4.369  0.00  0.00     0.163 C 
HETATM   13  O   UNK N   1      27.839  24.169  -4.888  0.00  0.00    -0.648 OA
BRANCH  12  14
HETATM   14  O   UNK N   1      26.678  24.503  -3.027  0.00  0.00    -0.775 OA
HETATM   15  H   UNK N   1      26.254  25.225  -2.606  0.00  0.00     0.167 HD
ENDBRANCH  12  14
ENDBRANCH   1  12
TORSDOF 5
ENDMDL
