MODEL 1
REMARK VINA RESULT:      -4.0      0.000      0.000
REMARK  5 active torsions:
REMARK  status: ('A' for Active; 'I' for Inactive)
REMARK    1  A    between atoms: C_2  and  C_1 
REMARK    2  A    between atoms: O_4  and  C_1 
REMARK    3  A    between atoms: C_3  and  C_2 
REMARK    4  A    between atoms: C_2  and  N_6 
REMARK    5  A    between atoms: O_7  and  C_3 
ROOT
HETATM    1  C   UNK N   1      34.124  17.251   9.072  0.00  0.00     0.197 C 
ENDROOT
BRANCH   1   2
HETATM    2  C   UNK N   1      34.623  18.299   8.103  0.00  0.00     0.165 C 
HETATM    3  O   UNK N   1      35.270  19.255   8.486  0.00  0.00    -0.648 OA
BRANCH   2   4
HETATM    4  O   UNK N   1      34.341  18.167   6.788  0.00  0.00    -0.775 OA
HETATM    5  H   UNK N   1      34.951  18.473   6.145  0.00  0.00     0.167 HD
ENDBRANCH   2   4
ENDBRANCH   1   2
BRANCH   1   6
HETATM    6  C   UNK N   1      34.893  16.476  10.149  0.00  0.00     0.199 C 
BRANCH   6   7
HETATM    7  O   UNK N   1      36.003  17.163  10.638  0.00  0.00    -0.398 OA
HETATM    8  H   UNK N   1      35.890  18.032  11.052  0.00  0.00     0.209 HD
ENDBRANCH   6   7
ENDBRANCH   1   6
BRANCH   1   9
HETATM    9  N   UNK N   1      32.716  16.926   8.974  0.00  0.00    -0.416 N 
HETATM   10  H   UNK N   1      32.394  16.259   8.274  0.00  0.00     0.150 HD
HETATM   11  H   UNK N   1      32.047  17.365   9.607  0.00  0.00     0.150 HD
ENDBRANCH   1   9
TORSDOF 5
ENDMDL
MODEL 2
REMARK VINA RESULT:      -3.9     15.226     15.938
REMARK  5 active torsions:
REMARK  status: ('A' for Active; 'I' for Inactive)
REMARK    1  A    between atoms: C_2  and  C_1 
REMARK    2  A    between atoms: O_4  and  C_1 
REMARK    3  A    between atoms: C_3  and  C_2 
REMARK    4  A    between atoms: C_2  and  N_6 
REMARK    5  A    between atoms: O_7  and  C_3 
ROOT
HETATM    1  C   UNK N   1      20.639  19.976   1.596  0.00  0.00     0.197 C 
ENDROOT
BRANCH   1   2
HETATM    2  C   UNK N   1      20.981  20.765   2.838  0.00  0.00     0.165 C 
HETATM    3  O   UNK N   1      20.385  20.587   3.883  0.00  0.00    -0.648 OA
BRANCH   2   4
HETATM    4  O   UNK N   1      21.969  21.686   2.782  0.00  0.00    -0.775 OA
HETATM    5  H   UNK N   1      21.786  22.552   2.473  0.00  0.00     0.167 HD
ENDBRANCH   2   4
ENDBRANCH   1   2
BRANCH   1   6
HETATM    6  C   UNK N   1      20.412  18.468   1.431  0.00  0.00     0.199 C 
BRANCH   6   7
HETATM    7  O   UNK N   1      20.256  18.074   0.103  0.00  0.00    -0.398 OA
HETATM    8  H   UNK N   1      19.865  18.685  -0.541  0.00  0.00     0.209 HD
ENDBRANCH   6   7
ENDBRANCH   1   6
BRANCH   1   9
HETATM    9  N   UNK N   1      20.504  20.750   0.378  0.00  0.00    -0.416 N 
HETATM   10  H   UNK N   1      21.265  20.769  -0.301  0.00  0.00     0.150 HD
HETATM   11  H   UNK N   1      19.648  21.275   0.200  0.00  0.00     0.150 HD
ENDBRANCH   1   9
TORSDOF 5
ENDMDL
MODEL 3
REMARK VINA RESULT:      -3.9     12.146     12.464
REMARK  5 active torsions:
REMARK  status: ('A' for Active; 'I' for Inactive)
REMARK    1  A    between atoms: C_2  and  C_1 
REMARK    2  A    between atoms: O_4  and  C_1 
REMARK    3  A    between atoms: C_3  and  C_2 
REMARK    4  A    between atoms: C_2  and  N_6 
REMARK    5  A    between atoms: O_7  and  C_3 
ROOT
HETATM    1  C   UNK N   1      23.248  11.910  11.622  0.00  0.00     0.197 C 
ENDROOT
BRANCH   1   2
HETATM    2  C   UNK N   1      24.465  12.278  10.805  0.00  0.00     0.165 C 
HETATM    3  O   UNK N   1      24.517  12.052   9.612  0.00  0.00    -0.648 OA
BRANCH   2   4
HETATM    4  O   UNK N   1      25.514  12.870  11.418  0.00  0.00    -0.775 OA
HETATM    5  H   UNK N   1      26.069  12.371  11.985  0.00  0.00     0.167 HD
ENDBRANCH   2   4
ENDBRANCH   1   2
BRANCH   1   6
HETATM    6  C   UNK N   1      23.087  11.820  13.145  0.00  0.00     0.199 C 
BRANCH   6   7
HETATM    7  O   UNK N   1      23.969  12.642  13.843  0.00  0.00    -0.398 OA
HETATM    8  H   UNK N   1      24.636  13.157  13.362  0.00  0.00     0.209 HD
ENDBRANCH   6   7
ENDBRANCH   1   6
BRANCH   1   9
HETATM    9  N   UNK N   1      22.055  11.594  10.863  0.00  0.00    -0.416 N 
HETATM   10  H   UNK N   1      22.124  11.030  10.016  0.00  0.00     0.150 HD
HETATM   11  H   UNK N   1      21.146  11.937  11.175  0.00  0.00     0.150 HD
ENDBRANCH   1   9
TORSDOF 5
ENDMDL
MODEL 4
REMARK VINA RESULT:      -3.9     15.307     15.764
REMARK  5 active torsions:
REMARK  status: ('A' for Active; 'I' for Inactive)
REMARK    1  A    between atoms: C_2  and  C_1 
REMARK    2  A    between atoms: O_4  and  C_1 
REMARK    3  A    between atoms: C_3  and  C_2 
REMARK    4  A    between atoms: C_2  and  N_6 
REMARK    5  A    between atoms: O_7  and  C_3 
ROOT
HETATM    1  C   UNK N   1      20.536  19.340   1.874  0.00  0.00     0.197 C 
ENDROOT
BRANCH   1   2
HETATM    2  C   UNK N   1      20.901  20.640   1.196  0.00  0.00     0.165 C 
HETATM    3  O   UNK N   1      21.097  20.693  -0.003  0.00  0.00    -0.648 OA
BRANCH   2   4
HETATM    4  O   UNK N   1      21.011  21.763   1.940  0.00  0.00    -0.775 OA
HETATM    5  H   UNK N   1      21.573  22.458   1.660  0.00  0.00     0.167 HD
ENDBRANCH   2   4
ENDBRANCH   1   2
BRANCH   1   6
HETATM    6  C   UNK N   1      20.539  18.986   3.367  0.00  0.00     0.199 C 
BRANCH   6   7
HETATM    7  O   UNK N   1      20.653  20.098   4.199  0.00  0.00    -0.398 OA
HETATM    8  H   UNK N   1      21.440  20.209   4.755  0.00  0.00     0.209 HD
ENDBRANCH   6   7
ENDBRANCH   1   6
BRANCH   1   9
HETATM    9  N   UNK N   1      20.122  18.267   0.994  0.00  0.00    -0.416 N 
HETATM   10  H   UNK N   1      20.037  17.316   1.353  0.00  0.00     0.150 HD
HETATM   11  H   UNK N   1      19.914  18.463   0.014  0.00  0.00     0.150 HD
ENDBRANCH   1   9
TORSDOF 5
ENDMDL
MODEL 5
REMARK VINA RESULT:      -3.8      1.804      2.213
REMARK  5 active torsions:
REMARK  status: ('A' for Active; 'I' for Inactive)
REMARK    1  A    between atoms: C_2  and  C_1 
REMARK    2  A    between atoms: O_4  and  C_1 
REMARK    3  A    between atoms: C_3  and  C_2 
REMARK    4  A    between atoms: C_2  and  N_6 
REMARK    5  A    between atoms: O_7  and  C_3 
ROOT
HETATM    1  C   UNK N   1      34.335  17.120   9.128  0.00  0.00     0.197 C 
ENDROOT
BRANCH   1   2
HETATM    2  C   UNK N   1      34.685  18.223   8.156  0.00  0.00     0.165 C 
HETATM    3  O   UNK N   1      34.380  18.150   6.981  0.00  0.00    -0.648 OA
BRANCH   2   4
HETATM    4  O   UNK N   1      35.351  19.310   8.606  0.00  0.00    -0.775 OA
HETATM    5  H   UNK N   1      35.712  19.313   9.471  0.00  0.00     0.167 HD
ENDBRANCH   2   4
ENDBRANCH   1   2
BRANCH   1   6
HETATM    6  C   UNK N   1      33.411  15.911   8.937  0.00  0.00     0.199 C 
BRANCH   6   7
HETATM    7  O   UNK N   1      32.864  15.439  10.129  0.00  0.00    -0.398 OA
HETATM    8  H   UNK N   1      33.420  14.953  10.758  0.00  0.00     0.209 HD
ENDBRANCH   6   7
ENDBRANCH   1   6
BRANCH   1   9
HETATM    9  N   UNK N   1      34.959  17.211  10.432  0.00  0.00    -0.416 N 
HETATM   10  H   UNK N   1      35.853  17.690  10.537  0.00  0.00     0.150 HD
HETATM   11  H   UNK N   1      34.503  16.796  11.245  0.00  0.00     0.150 HD
ENDBRANCH   1   9
TORSDOF 5
ENDMDL
MODEL 6
REMARK VINA RESULT:      -3.7      0.878      2.870
REMARK  5 active torsions:
REMARK  status: ('A' for Active; 'I' for Inactive)
REMARK    1  A    between atoms: C_2  and  C_1 
REMARK    2  A    between atoms: O_4  and  C_1 
REMARK    3  A    between atoms: C_3  and  C_2 
REMARK    4  A    between atoms: C_2  and  N_6 
REMARK    5  A    between atoms: O_7  and  C_3 
ROOT
HETATM    1  C   UNK N   1      34.088  17.247   9.124  0.00  0.00     0.197 C 
ENDROOT
BRANCH   1   2
HETATM    2  C   UNK N   1      34.904  16.719  10.281  0.00  0.00     0.165 C 
HETATM    3  O   UNK N   1      35.995  17.183  10.548  0.00  0.00    -0.648 OA
BRANCH   2   4
HETATM    4  O   UNK N   1      34.406  15.711  11.031  0.00  0.00    -0.775 OA
HETATM    5  H   UNK N   1      34.749  14.843  10.938  0.00  0.00     0.167 HD
ENDBRANCH   2   4
ENDBRANCH   1   2
BRANCH   1   6
HETATM    6  C   UNK N   1      34.466  18.282   8.057  0.00  0.00     0.199 C 
BRANCH   6   7
HETATM    7  O   UNK N   1      35.331  19.269   8.527  0.00  0.00    -0.398 OA
HETATM    8  H   UNK N   1      35.024  19.908   9.188  0.00  0.00     0.209 HD
ENDBRANCH   6   7
ENDBRANCH   1   6
BRANCH   1   9
HETATM    9  N   UNK N   1      32.752  16.701   8.997  0.00  0.00    -0.416 N 
HETATM   10  H   UNK N   1      32.411  16.393   8.086  0.00  0.00     0.150 HD
HETATM   11  H   UNK N   1      32.152  16.625   9.819  0.00  0.00     0.150 HD
ENDBRANCH   1   9
TORSDOF 5
ENDMDL
MODEL 7
REMARK VINA RESULT:      -3.7     15.773     16.294
REMARK  5 active torsions:
REMARK  status: ('A' for Active; 'I' for Inactive)
REMARK    1  A    between atoms: C_2  and  C_1 
REMARK    2  A    between atoms: O_4  and  C_1 
REMARK    3  A    between atoms: C_3  and  C_2 
REMARK    4  A    between atoms: C_2  and  N_6 
REMARK    5  A    between atoms: O_7  and  C_3 
ROOT
HETATM    1  C   UNK N   1      18.320  18.176   9.684  0.00  0.00     0.197 C 
ENDROOT
BRANCH   1   2
HETATM    2  C   UNK N   1      18.174  19.004  10.939  0.00  0.00     0.165 C 
HETATM    3  O   UNK N   1      17.187  18.912  11.645  0.00  0.00    -0.648 OA
BRANCH   2   4
HETATM    4  O   UNK N   1      19.160  19.862  11.280  0.00  0.00    -0.775 OA
HETATM    5  H   UNK N   1      19.994  19.533  11.555  0.00  0.00     0.167 HD
ENDBRANCH   2   4
ENDBRANCH   1   2
BRANCH   1   6
HETATM    6  C   UNK N   1      19.578  17.866   8.862  0.00  0.00     0.199 C 
BRANCH   6   7
HETATM    7  O   UNK N   1      20.278  19.007   8.473  0.00  0.00    -0.398 OA
HETATM    8  H   UNK N   1      19.806  19.842   8.336  0.00  0.00     0.209 HD
ENDBRANCH   6   7
ENDBRANCH   1   6
BRANCH   1   9
HETATM    9  N   UNK N   1      17.099  17.584   9.176  0.00  0.00    -0.416 N 
HETATM   10  H   UNK N   1      16.828  17.730   8.204  0.00  0.00     0.150 HD
HETATM   11  H   UNK N   1      16.511  17.021   9.791  0.00  0.00     0.150 HD
ENDBRANCH   1   9
TORSDOF 5
ENDMDL
MODEL 8
REMARK VINA RESULT:      -3.7     15.608     16.048
REMARK  5 active torsions:
REMARK  status: ('A' for Active; 'I' for Inactive)
REMARK    1  A    between atoms: C_2  and  C_1 
REMARK    2  A    between atoms: O_4  and  C_1 
REMARK    3  A    between atoms: C_3  and  C_2 
REMARK    4  A    between atoms: C_2  and  N_6 
REMARK    5  A    between atoms: O_7  and  C_3 
ROOT
HETATM    1  C   UNK N   1      20.727  19.461   2.399  0.00  0.00     0.197 C 
ENDROOT
BRANCH   1   2
HETATM    2  C   UNK N   1      20.741  20.393   1.209  0.00  0.00     0.165 C 
HETATM    3  O   UNK N   1      20.851  21.596   1.351  0.00  0.00    -0.648 OA
BRANCH   2   4
HETATM    4  O   UNK N   1      20.630  19.875  -0.034  0.00  0.00    -0.775 OA
HETATM    5  H   UNK N   1      21.392  19.560  -0.480  0.00  0.00     0.167 HD
ENDBRANCH   2   4
ENDBRANCH   1   2
BRANCH   1   6
HETATM    6  C   UNK N   1      19.660  18.447   2.829  0.00  0.00     0.199 C 
BRANCH   6   7
HETATM    7  O   UNK N   1      18.380  18.766   2.378  0.00  0.00    -0.398 OA
HETATM    8  H   UNK N   1      18.001  18.294   1.621  0.00  0.00     0.209 HD
ENDBRANCH   6   7
ENDBRANCH   1   6
BRANCH   1   9
HETATM    9  N   UNK N   1      21.887  19.529   3.264  0.00  0.00    -0.416 N 
HETATM   10  H   UNK N   1      21.921  20.215   4.018  0.00  0.00     0.150 HD
HETATM   11  H   UNK N   1      22.670  18.891   3.118  0.00  0.00     0.150 HD
ENDBRANCH   1   9
TORSDOF 5
ENDMDL
MODEL 9
REMARK VINA RESULT:      -3.5      1.935      2.475
REMARK  5 active torsions:
REMARK  status: ('A' for Active; 'I' for Inactive)
REMARK    1  A    between atoms: C_2  and  C_1 
REMARK    2  A    between atoms: O_4  and  C_1 
REMARK    3  A    between atoms: C_3  and  C_2 
REMARK    4  A    between atoms: C_2  and  N_6 
REMARK    5  A    between atoms: O_7  and  C_3 
ROOT
HETATM    1  C   UNK N   1      33.352  17.420   8.649  0.00  0.00     0.197 C 
ENDROOT
BRANCH   1   2
HETATM    2  C   UNK N   1      34.354  18.235   7.863  0.00  0.00     0.165 C 
HETATM    3  O   UNK N   1      35.033  19.088   8.400  0.00  0.00    -0.648 OA
BRANCH   2   4
HETATM    4  O   UNK N   1      34.494  18.006   6.539  0.00  0.00    -0.775 OA
HETATM    5  H   UNK N   1      33.881  17.456   6.090  0.00  0.00     0.167 HD
ENDBRANCH   2   4
ENDBRANCH   1   2
BRANCH   1   6
HETATM    6  C   UNK N   1      31.851  17.221   8.403  0.00  0.00     0.199 C 
BRANCH   6   7
HETATM    7  O   UNK N   1      31.047  17.887   9.325  0.00  0.00    -0.398 OA
HETATM    8  H   UNK N   1      30.223  18.308   9.034  0.00  0.00     0.209 HD
ENDBRANCH   6   7
ENDBRANCH   1   6
BRANCH   1   9
HETATM    9  N   UNK N   1      33.879  16.722   9.804  0.00  0.00    -0.416 N 
HETATM   10  H   UNK N   1      34.598  17.159  10.380  0.00  0.00     0.150 HD
HETATM   11  H   UNK N   1      33.530  15.792  10.041  0.00  0.00     0.150 HD
ENDBRANCH   1   9
TORSDOF 5
ENDMDL
