MODEL 1
REMARK VINA RESULT:      -3.0      0.000      0.000
REMARK  3 active torsions:
REMARK  status: ('A' for Active; 'I' for Inactive)
REMARK    1  A    between atoms: O_1  and  C_7 
REMARK    2  A    between atoms: N_2  and  C_3 
REMARK    3  A    between atoms: C_3  and  C_7 
ROOT
HETATM    1  N   UNK N   1      34.353  15.856   8.589  0.00  0.00    -0.077 N 
HETATM    2  C   UNK N   1      35.238  14.887   9.212  0.00  0.00     0.271 C 
HETATM    3  C   UNK N   1      34.641  15.885   7.165  0.00  0.00     0.271 C 
HETATM    4  C   UNK N   1      32.982  15.420   8.805  0.00  0.00     0.271 C 
ENDROOT
BRANCH   1   5
HETATM    5  C   UNK N   1      34.595  17.166   9.200  0.00  0.00     0.262 C 
BRANCH   5   6
HETATM    6  C   UNK N   1      34.509  18.312   8.193  0.00  0.00     0.192 C 
BRANCH   6   7
HETATM    7  O   UNK N   1      35.379  19.335   8.568  0.00  0.00    -0.399 OA
HETATM    8  H   UNK N   1      36.073  19.305   9.244  0.00  0.00     0.209 HD
ENDBRANCH   6   7
ENDBRANCH   5   6
ENDBRANCH   1   5
TORSDOF 3
ENDMDL
MODEL 2
REMARK VINA RESULT:      -2.9     11.793     12.765
REMARK  3 active torsions:
REMARK  status: ('A' for Active; 'I' for Inactive)
REMARK    1  A    between atoms: O_1  and  C_7 
REMARK    2  A    between atoms: N_2  and  C_3 
REMARK    3  A    between atoms: C_3  and  C_7 
ROOT
HETATM    1  N   UNK N   1      22.020  12.988   9.676  0.00  0.00    -0.077 N 
HETATM    2  C   UNK N   1      21.386  14.293   9.599  0.00  0.00     0.271 C 
HETATM    3  C   UNK N   1      21.446  12.270  10.802  0.00  0.00     0.271 C 
HETATM    4  C   UNK N   1      21.738  12.273   8.441  0.00  0.00     0.271 C 
ENDROOT
BRANCH   1   5
HETATM    5  C   UNK N   1      23.462  13.183   9.858  0.00  0.00     0.262 C 
BRANCH   5   6
HETATM    6  C   UNK N   1      24.091  12.119  10.757  0.00  0.00     0.192 C 
BRANCH   6   7
HETATM    7  O   UNK N   1      25.207  12.651  11.403  0.00  0.00    -0.399 OA
HETATM    8  H   UNK N   1      25.485  13.579  11.440  0.00  0.00     0.209 HD
ENDBRANCH   6   7
ENDBRANCH   5   6
ENDBRANCH   1   5
TORSDOF 3
ENDMDL
MODEL 3
REMARK VINA RESULT:      -2.9      1.987      2.793
REMARK  3 active torsions:
REMARK  status: ('A' for Active; 'I' for Inactive)
REMARK    1  A    between atoms: O_1  and  C_7 
REMARK    2  A    between atoms: N_2  and  C_3 
REMARK    3  A    between atoms: C_3  and  C_7 
ROOT
HETATM    1  N   UNK N   1      32.187  17.178   7.908  0.00  0.00    -0.077 N 
HETATM    2  C   UNK N   1      31.462  16.683   6.751  0.00  0.00     0.271 C 
HETATM    3  C   UNK N   1      31.297  18.040   8.669  0.00  0.00     0.271 C 
HETATM    4  C   UNK N   1      32.580  16.036   8.720  0.00  0.00     0.271 C 
ENDROOT
BRANCH   1   5
HETATM    5  C   UNK N   1      33.360  17.922   7.437  0.00  0.00     0.262 C 
BRANCH   5   6
HETATM    6  C   UNK N   1      34.486  17.964   8.469  0.00  0.00     0.192 C 
BRANCH   6   7
HETATM    7  O   UNK N   1      35.117  19.207   8.426  0.00  0.00    -0.399 OA
HETATM    8  H   UNK N   1      34.705  20.079   8.327  0.00  0.00     0.209 HD
ENDBRANCH   6   7
ENDBRANCH   5   6
ENDBRANCH   1   5
TORSDOF 3
ENDMDL
MODEL 4
REMARK VINA RESULT:      -2.8     11.744     12.927
REMARK  3 active torsions:
REMARK  status: ('A' for Active; 'I' for Inactive)
REMARK    1  A    between atoms: O_1  and  C_7 
REMARK    2  A    between atoms: N_2  and  C_3 
REMARK    3  A    between atoms: C_3  and  C_7 
ROOT
HETATM    1  N   UNK N   1      23.500  12.476  10.067  0.00  0.00    -0.077 N 
HETATM    2  C   UNK N   1      23.306  11.378   9.136  0.00  0.00     0.271 C 
HETATM    3  C   UNK N   1      23.584  11.924  11.409  0.00  0.00     0.271 C 
HETATM    4  C   UNK N   1      24.748  13.141   9.728  0.00  0.00     0.271 C 
ENDROOT
BRANCH   1   5
HETATM    5  C   UNK N   1      22.361  13.393   9.948  0.00  0.00     0.262 C 
BRANCH   5   6
HETATM    6  C   UNK N   1      21.059  12.786  10.469  0.00  0.00     0.192 C 
BRANCH   6   7
HETATM    7  O   UNK N   1      19.978  13.552  10.036  0.00  0.00    -0.399 OA
HETATM    8  H   UNK N   1      19.971  14.495   9.810  0.00  0.00     0.209 HD
ENDBRANCH   6   7
ENDBRANCH   5   6
ENDBRANCH   1   5
TORSDOF 3
ENDMDL
MODEL 5
REMARK VINA RESULT:      -2.8     11.267     12.146
REMARK  3 active torsions:
REMARK  status: ('A' for Active; 'I' for Inactive)
REMARK    1  A    between atoms: O_1  and  C_7 
REMARK    2  A    between atoms: N_2  and  C_3 
REMARK    3  A    between atoms: C_3  and  C_7 
ROOT
HETATM    1  N   UNK N   1      42.781  22.201   2.431  0.00  0.00    -0.077 N 
HETATM    2  C   UNK N   1      41.786  23.143   1.949  0.00  0.00     0.271 C 
HETATM    3  C   UNK N   1      42.089  21.022   2.925  0.00  0.00     0.271 C 
HETATM    4  C   UNK N   1      43.640  21.838   1.315  0.00  0.00     0.271 C 
ENDROOT
BRANCH   1   5
HETATM    5  C   UNK N   1      43.548  22.845   3.503  0.00  0.00     0.262 C 
BRANCH   5   6
HETATM    6  C   UNK N   1      44.474  21.872   4.232  0.00  0.00     0.192 C 
BRANCH   6   7
HETATM    7  O   UNK N   1      45.782  22.354   4.199  0.00  0.00    -0.399 OA
HETATM    8  H   UNK N   1      46.074  23.273   4.092  0.00  0.00     0.209 HD
ENDBRANCH   6   7
ENDBRANCH   5   6
ENDBRANCH   1   5
TORSDOF 3
ENDMDL
MODEL 6
REMARK VINA RESULT:      -2.8      1.979      2.275
REMARK  3 active torsions:
REMARK  status: ('A' for Active; 'I' for Inactive)
REMARK    1  A    between atoms: O_1  and  C_7 
REMARK    2  A    between atoms: N_2  and  C_3 
REMARK    3  A    between atoms: C_3  and  C_7 
ROOT
HETATM    1  N   UNK N   1      34.027  16.003   8.977  0.00  0.00    -0.077 N 
HETATM    2  C   UNK N   1      33.653  14.921   9.872  0.00  0.00     0.271 C 
HETATM    3  C   UNK N   1      34.700  15.426   7.824  0.00  0.00     0.271 C 
HETATM    4  C   UNK N   1      32.812  16.678   8.551  0.00  0.00     0.271 C 
ENDROOT
BRANCH   1   5
HETATM    5  C   UNK N   1      34.917  16.917   9.700  0.00  0.00     0.262 C 
BRANCH   5   6
HETATM    6  C   UNK N   1      35.495  16.296  10.971  0.00  0.00     0.192 C 
BRANCH   6   7
HETATM    7  O   UNK N   1      36.877  16.158  10.840  0.00  0.00    -0.399 OA
HETATM    8  H   UNK N   1      37.547  16.210  11.538  0.00  0.00     0.209 HD
ENDBRANCH   6   7
ENDBRANCH   5   6
ENDBRANCH   1   5
TORSDOF 3
ENDMDL
MODEL 7
REMARK VINA RESULT:      -2.8      2.303      3.170
REMARK  3 active torsions:
REMARK  status: ('A' for Active; 'I' for Inactive)
REMARK    1  A    between atoms: O_1  and  C_7 
REMARK    2  A    between atoms: N_2  and  C_3 
REMARK    3  A    between atoms: C_3  and  C_7 
ROOT
HETATM    1  N   UNK N   1      33.970  16.989   8.314  0.00  0.00    -0.077 N 
HETATM    2  C   UNK N   1      32.519  17.037   8.348  0.00  0.00     0.271 C 
HETATM    3  C   UNK N   1      34.373  16.229   7.142  0.00  0.00     0.271 C 
HETATM    4  C   UNK N   1      34.466  18.353   8.212  0.00  0.00     0.271 C 
ENDROOT
BRANCH   1   5
HETATM    5  C   UNK N   1      34.442  16.344   9.544  0.00  0.00     0.262 C 
BRANCH   5   6
HETATM    6  C   UNK N   1      33.687  15.053   9.860  0.00  0.00     0.192 C 
BRANCH   6   7
HETATM    7  O   UNK N   1      33.428  14.983  11.228  0.00  0.00    -0.399 OA
HETATM    8  H   UNK N   1      33.394  14.190  11.785  0.00  0.00     0.209 HD
ENDBRANCH   6   7
ENDBRANCH   5   6
ENDBRANCH   1   5
TORSDOF 3
ENDMDL
MODEL 8
REMARK VINA RESULT:      -2.7     14.416     15.046
REMARK  3 active torsions:
REMARK  status: ('A' for Active; 'I' for Inactive)
REMARK    1  A    between atoms: O_1  and  C_7 
REMARK    2  A    between atoms: N_2  and  C_3 
REMARK    3  A    between atoms: C_3  and  C_7 
ROOT
HETATM    1  N   UNK N   1      20.578  18.233   3.052  0.00  0.00    -0.077 N 
HETATM    2  C   UNK N   1      21.936  17.845   3.395  0.00  0.00     0.271 C 
HETATM    3  C   UNK N   1      20.384  18.000   1.630  0.00  0.00     0.271 C 
HETATM    4  C   UNK N   1      19.662  17.402   3.817  0.00  0.00     0.271 C 
ENDROOT
BRANCH   1   5
HETATM    5  C   UNK N   1      20.405  19.653   3.378  0.00  0.00     0.262 C 
BRANCH   5   6
HETATM    6  C   UNK N   1      20.847  20.576   2.244  0.00  0.00     0.192 C 
BRANCH   6   7
HETATM    7  O   UNK N   1      21.699  21.560   2.744  0.00  0.00    -0.399 OA
HETATM    8  H   UNK N   1      22.549  21.852   2.378  0.00  0.00     0.209 HD
ENDBRANCH   6   7
ENDBRANCH   5   6
ENDBRANCH   1   5
TORSDOF 3
ENDMDL
MODEL 9
REMARK VINA RESULT:      -2.7      4.057      5.048
REMARK  3 active torsions:
REMARK  status: ('A' for Active; 'I' for Inactive)
REMARK    1  A    between atoms: O_1  and  C_7 
REMARK    2  A    between atoms: N_2  and  C_3 
REMARK    3  A    between atoms: C_3  and  C_7 
ROOT
HETATM    1  N   UNK N   1      35.986  13.384  12.592  0.00  0.00    -0.077 N 
HETATM    2  C   UNK N   1      37.164  12.604  12.254  0.00  0.00     0.271 C 
HETATM    3  C   UNK N   1      34.921  12.464  12.961  0.00  0.00     0.271 C 
HETATM    4  C   UNK N   1      36.315  14.235  13.725  0.00  0.00     0.271 C 
ENDROOT
BRANCH   1   5
HETATM    5  C   UNK N   1      35.606  14.182  11.422  0.00  0.00     0.262 C 
BRANCH   5   6
HETATM    6  C   UNK N   1      35.827  15.680  11.633  0.00  0.00     0.192 C 
BRANCH   6   7
HETATM    7  O   UNK N   1      36.897  16.111  10.849  0.00  0.00    -0.399 OA
HETATM    8  H   UNK N   1      36.878  16.392   9.922  0.00  0.00     0.209 HD
ENDBRANCH   6   7
ENDBRANCH   5   6
ENDBRANCH   1   5
TORSDOF 3
ENDMDL
