REMARK  2 active torsions:
REMARK  status: ('A' for Active; 'I' for Inactive)
REMARK    1  A    between atoms: C_15  and  O_3 
REMARK    2  A    between atoms: O_4  and  C_21 
ROOT
HETATM    1  O   UNK N   1       1.068  -0.239  -0.796  0.00  0.00    -0.338 OA
HETATM    2  O   UNK N   1       6.295  -2.699  -0.977  0.00  0.00    -0.064 OA
HETATM    3  N   UNK N   1       6.154  -1.379  -0.693  0.00  0.00     0.015 N 
HETATM    4  C   UNK N   1       3.249  -1.127  -0.601  0.00  0.00     0.031 C 
HETATM    5  C   UNK N   1       4.009  -1.890   0.495  0.00  0.00     0.063 C 
HETATM    6  C   UNK N   1       5.429  -1.214   0.596  0.00  0.00     0.267 C 
HETATM    7  C   UNK N   1       1.727  -1.476  -0.806  0.00  0.00     0.175 C 
HETATM    8  C   UNK N   1       4.008  -1.201  -1.939  0.00  0.00     0.054 C 
HETATM    9  C   UNK N   1       3.124   0.276  -0.164  0.00  0.00    -0.003 A 
HETATM   10  C   UNK N   1       5.461  -0.730  -1.813  0.00  0.00     0.313 C 
HETATM   11  C   UNK N   1       5.349   0.316   0.966  0.00  0.00     0.082 C 
HETATM   12  C   UNK N   1       4.102   1.017   0.477  0.00  0.00    -0.045 A 
HETATM   13  C   UNK N   1       1.245  -2.397   0.345  0.00  0.00     0.171 C 
HETATM   14  C   UNK N   1       3.185  -1.842   1.769  0.00  0.00    -0.020 C 
HETATM   15  C   UNK N   1       1.879   0.735  -0.373  0.00  0.00     0.110 A 
HETATM   16  C   UNK N   1       1.859  -2.069   1.690  0.00  0.00     0.004 C 
HETATM   17  C   UNK N   1       7.499  -0.821  -0.613  0.00  0.00     0.357 C 
HETATM   18  C   UNK N   1       3.811   2.350   0.809  0.00  0.00     0.011 A 
HETATM   19  C   UNK N   1       1.541   2.061  -0.086  0.00  0.00     0.102 A 
HETATM   20  C   UNK N   1       2.542   2.887   0.488  0.00  0.00     0.040 A 
ENDROOT
BRANCH  13  21
HETATM   21  O   UNK N   1      -0.147  -2.466   0.414  0.00  0.00    -0.389 OA
HETATM   22  H   UNK N   1      -0.673  -1.653   0.462  0.00  0.00     0.210 HD
ENDBRANCH  13  21
BRANCH  19  23
HETATM   23  O   UNK N   1       0.292   2.514  -0.346  0.00  0.00    -0.353 OA
HETATM   24  C   UNK N   1      -0.084   3.825  -0.149  0.00  0.00     0.210 C 
ENDBRANCH  19  23
TORSDOF 2
