REMARK  2 active torsions:
REMARK  status: ('A' for Active; 'I' for Inactive)
REMARK    1  A    between atoms: C_12  and  O_2 
REMARK    2  A    between atoms: C_23  and  C_25 
ROOT
HETATM    1  O   UNK N   1       8.696   1.894  -1.681  0.00  0.00    -0.389 OA
HETATM    2  O   UNK N   1       0.185  -3.090  -0.744  0.00  0.00    -0.287 OA
HETATM    3  C   UNK N   1       7.302   1.229   0.178  0.00  0.00    -0.007 C 
HETATM    4  C   UNK N   1       7.265  -0.191  -0.387  0.00  0.00     0.001 C 
HETATM    5  C   UNK N   1       6.033  -0.953   0.127  0.00  0.00    -0.002 C 
HETATM    6  C   UNK N   1       4.711  -0.203  -0.273  0.00  0.00     0.035 C 
HETATM    7  C   UNK N   1       8.685   1.693  -0.297  0.00  0.00     0.062 C 
HETATM    8  C   UNK N   1       6.096   1.999  -0.358  0.00  0.00     0.044 C 
HETATM    9  C   UNK N   1       8.633  -0.747   0.004  0.00  0.00     0.009 C 
HETATM   10  C   UNK N   1       4.795   1.314   0.101  0.00  0.00     0.124 C 
HETATM   11  C   UNK N   1       3.502  -0.917   0.433  0.00  0.00     0.005 A 
HETATM   12  C   UNK N   1       9.567   0.482   0.028  0.00  0.00     0.038 C 
HETATM   13  C   UNK N   1       5.983  -2.392  -0.400  0.00  0.00     0.010 C 
HETATM   14  C   UNK N   1       7.258   1.243   1.725  0.00  0.00     0.019 C 
HETATM   15  C   UNK N   1       4.847  -3.151   0.286  0.00  0.00     0.036 C 
HETATM   16  C   UNK N   1       3.552  -2.413   0.106  0.00  0.00    -0.064 A 
HETATM   17  C   UNK N   1       9.184   2.963   0.381  0.00  0.00     0.046 C 
HETATM   18  C   UNK N   1       3.642  -0.771   1.946  0.00  0.00     0.025 C 
HETATM   19  C   UNK N   1       2.168  -0.275   0.084  0.00  0.00     0.006 A 
HETATM   20  C   UNK N   1       2.474  -3.098  -0.302  0.00  0.00     0.059 A 
HETATM   21  C   UNK N   1       1.091  -0.965  -0.329  0.00  0.00     0.049 A 
HETATM   22  C   UNK N   1       1.178  -2.430  -0.475  0.00  0.00     0.185 A 
HETATM   23  H   UNK N   1       8.820   1.957  -2.641  0.00  0.00     0.210 HD
ENDROOT
BRANCH  10  24
HETATM   24  O   UNK N   1       3.711   2.021  -0.423  0.00  0.00    -0.395 OA
HETATM   25  H   UNK N   1       3.760   2.919  -0.787  0.00  0.00     0.210 HD
ENDBRANCH  10  24
BRANCH  21  26
HETATM   26  C   UNK N   1      -0.181  -0.269  -0.610  0.00  0.00     0.273 C 
HETATM   27  O   UNK N   1      -0.275   0.945  -0.507  0.00  0.00    -0.301 OA
ENDBRANCH  21  26
TORSDOF 2
