REMARK  6 active torsions:
REMARK  status: ('A' for Active; 'I' for Inactive)
REMARK    1  A    between atoms: N_2  and  C_10 
REMARK    2  A    between atoms: N_3  and  C_4 
REMARK    3  A    between atoms: N_3  and  C_12 
REMARK       I    between atoms: N_3  and  C_13 
REMARK    4  A    between atoms: C_10  and  C_11 
REMARK    5  A    between atoms: C_11  and  C_15 
REMARK    6  A    between atoms: C_13  and  C_14 
ROOT
HETATM    1  N   UNK N   1       2.919  -0.992   0.842  0.00  0.00     0.089 N 
HETATM    2  C   UNK N   1       2.919   1.703   0.262  0.00  0.00     0.100 C 
HETATM    3  C   UNK N   1       1.532   1.030   0.286  0.00  0.00     0.033 C 
HETATM    4  C   UNK N   1       3.685   1.324   1.527  0.00  0.00     0.056 C 
HETATM    5  C   UNK N   1       1.583  -0.375   0.908  0.00  0.00     0.278 C 
HETATM    6  C   UNK N   1       3.926  -0.197   1.567  0.00  0.00     0.274 C 
HETATM    7  C   UNK N   1       0.955   0.943  -1.116  0.00  0.00     0.014 C 
ENDROOT
BRANCH   2   8
HETATM    8  N   UNK N   1       3.010   3.155  -0.017  0.00  0.00    -0.313 N 
HETATM    9  C   UNK N   1       1.879   3.966  -0.048  0.00  0.00     0.224 C 
HETATM   10  O   UNK N   1       0.777   3.516   0.218  0.00  0.00    -0.273 OA
BRANCH   8  11
HETATM   11  C   UNK N   1       4.344   3.676  -0.259  0.00  0.00     0.037 A 
HETATM   12  C   UNK N   1       4.637   5.053  -0.213  0.00  0.00     0.030 A 
HETATM   13  C   UNK N   1       5.939   5.525  -0.398  0.00  0.00     0.002 A 
HETATM   14  C   UNK N   1       6.980   4.627  -0.634  0.00  0.00     0.000 A 
HETATM   15  C   UNK N   1       6.718   3.258  -0.683  0.00  0.00     0.002 A 
HETATM   16  C   UNK N   1       5.417   2.788  -0.491  0.00  0.00     0.030 A 
ENDBRANCH   8  11
BRANCH   9  17
HETATM   17  C   UNK N   1       1.929   5.414  -0.455  0.00  0.00     0.099 C 
HETATM   18  C   UNK N   1       1.407   6.309   0.653  0.00  0.00     0.014 C 
ENDBRANCH   9  17
ENDBRANCH   2   8
BRANCH   1  19
HETATM   19  C   UNK N   1       3.374  -1.203  -0.537  0.00  0.00     0.277 C 
BRANCH  19  20
HETATM   20  C   UNK N   1       2.437  -2.114  -1.335  0.00  0.00     0.068 C 
BRANCH  20  21
HETATM   21  C   UNK N   1       2.177  -3.409  -0.641  0.00  0.00    -0.057 A 
HETATM   22  C   UNK N   1       3.235  -4.267  -0.315  0.00  0.00     0.007 A 
HETATM   23  C   UNK N   1       2.980  -5.475   0.339  0.00  0.00     0.001 A 
HETATM   24  C   UNK N   1       1.667  -5.831   0.663  0.00  0.00     0.000 A 
HETATM   25  C   UNK N   1       0.609  -4.979   0.332  0.00  0.00     0.001 A 
HETATM   26  C   UNK N   1       0.864  -3.768  -0.318  0.00  0.00     0.007 A 
ENDBRANCH  20  21
ENDBRANCH  19  20
ENDBRANCH   1  19
TORSDOF 6
