REMARK  4 active torsions:
REMARK  status: ('A' for Active; 'I' for Inactive)
REMARK    1  A    between atoms: C_14  and  O_2 
REMARK    2  A    between atoms: O_3  and  C_20 
REMARK    3  A    between atoms: O_3  and  C_22 
REMARK    4  A    between atoms: C_22  and  C_23 
ROOT
HETATM    1  O   UNK N   1       3.594  -0.872  -0.402  0.00  0.00    -0.338 OA
HETATM    2  N   UNK N   1       8.569  -2.476  -0.942  0.00  0.00     0.089 N 
HETATM    3  C   UNK N   1       5.704  -1.935  -0.608  0.00  0.00     0.030 C 
HETATM    4  C   UNK N   1       6.468  -2.834   0.375  0.00  0.00     0.057 C 
HETATM    5  C   UNK N   1       7.954  -2.308   0.391  0.00  0.00     0.235 C 
HETATM    6  C   UNK N   1       4.137  -2.131  -0.677  0.00  0.00     0.175 C 
HETATM    7  C   UNK N   1       6.341  -2.021  -2.006  0.00  0.00     0.048 C 
HETATM    8  C   UNK N   1       5.759  -0.568  -0.051  0.00  0.00    -0.003 A 
HETATM    9  C   UNK N   1       8.099  -0.800   0.789  0.00  0.00     0.075 C 
HETATM   10  C   UNK N   1       7.851  -1.741  -1.996  0.00  0.00     0.273 C 
HETATM   11  C   UNK N   1       6.870   0.034   0.524  0.00  0.00    -0.046 A 
HETATM   12  C   UNK N   1       3.694  -3.170   0.383  0.00  0.00     0.171 C 
HETATM   13  C   UNK N   1       5.744  -2.817   1.709  0.00  0.00    -0.020 C 
HETATM   14  C   UNK N   1       4.536  -0.015   0.002  0.00  0.00     0.110 A 
HETATM   15  C   UNK N   1       4.405  -2.977   1.708  0.00  0.00     0.004 C 
HETATM   16  C   UNK N   1       6.731   1.328   1.050  0.00  0.00     0.011 A 
HETATM   17  C   UNK N   1       8.704  -3.882  -1.312  0.00  0.00     0.310 C 
HETATM   18  C   UNK N   1       4.337   1.260   0.530  0.00  0.00     0.103 A 
HETATM   19  C   UNK N   1       5.469   1.958   1.023  0.00  0.00     0.040 A 
ENDROOT
BRANCH  18  20
HETATM   20  O   UNK N   1       3.091   1.773   0.599  0.00  0.00    -0.344 OA
BRANCH  20  21
HETATM   21  C   UNK N   1       2.806   2.969   1.216  0.00  0.00     0.214 C 
BRANCH  21  22
HETATM   22  C   UNK N   1       1.562   3.528   0.633  0.00  0.00    -0.034 A 
HETATM   23  C   UNK N   1       0.354   2.826   0.737  0.00  0.00     0.009 A 
HETATM   24  C   UNK N   1      -0.806   3.346   0.157  0.00  0.00     0.001 A 
HETATM   25  C   UNK N   1      -0.759   4.565  -0.527  0.00  0.00     0.000 A 
HETATM   26  C   UNK N   1       0.447   5.267  -0.626  0.00  0.00     0.001 A 
HETATM   27  C   UNK N   1       1.607   4.748  -0.046  0.00  0.00     0.009 A 
ENDBRANCH  21  22
ENDBRANCH  20  21
ENDBRANCH  18  20
BRANCH  12  28
HETATM   28  O   UNK N   1       2.308  -3.188   0.541  0.00  0.00    -0.389 OA
HETATM   29  H   UNK N   1       1.815  -2.360   0.651  0.00  0.00     0.210 HD
ENDBRANCH  12  28
TORSDOF 4
