REMARK  3 active torsions:
REMARK  status: ('A' for Active; 'I' for Inactive)
REMARK    1  A    between atoms: C_2  and  N_1 
REMARK    2  A    between atoms: C_2  and  C_3 
REMARK    3  A    between atoms: C_3  and  C_4 
ROOT
HETATM    1  C   UNK N   1       2.183  -0.359   0.258  0.00  0.00    -0.056 A 
HETATM    2  C   UNK N   1       3.257  -1.262   0.269  0.00  0.00     0.007 A 
HETATM    3  C   UNK N   1       0.890  -0.829  -0.002  0.00  0.00     0.007 A 
HETATM    4  C   UNK N   1       3.040  -2.617   0.008  0.00  0.00     0.001 A 
HETATM    5  C   UNK N   1       0.671  -2.186  -0.255  0.00  0.00     0.001 A 
HETATM    6  C   UNK N   1       1.746  -3.081  -0.252  0.00  0.00     0.000 A 
ENDROOT
BRANCH   1   7
HETATM    7  C   UNK N   1       2.392   1.091   0.563  0.00  0.00     0.062 C 
BRANCH   7   8
HETATM    8  C   UNK N   1       3.404   1.756  -0.362  0.00  0.00     0.074 C 
HETATM    9  C   UNK N   1       4.815   1.441   0.100  0.00  0.00     0.032 C 
BRANCH   8  10
HETATM   10  N   UNK N   1       3.213   3.193  -0.328  0.00  0.00    -0.426 N 
HETATM   11  H   UNK N   1       4.021   3.815  -0.303  0.00  0.00     0.150 HD
HETATM   12  H   UNK N   1       2.270   3.583  -0.328  0.00  0.00     0.150 HD
ENDBRANCH   8  10
ENDBRANCH   7   8
ENDBRANCH   1   7
TORSDOF 3
