REMARK  1 active torsions:
REMARK  status: ('A' for Active; 'I' for Inactive)
REMARK    1  A    between atoms: C_12  and  C_17 
ROOT
HETATM    1 Cl   UNK N   1      -0.419  -0.572  -0.398  0.00  0.00    -0.084 Cl
HETATM    2  N   UNK N   1       5.385  -2.104  -0.068  0.00  0.00    -0.301 N 
HETATM    3  N   UNK N   1       5.811   0.873  -0.651  0.00  0.00    -0.383 N 
ATOM      4  HN  UNK N   1       6.376   1.702  -0.470  1.00  0.00     0.160 HD
HETATM    5  N   UNK N   1       7.185  -3.362   0.403  0.00  0.00    -0.354 N 
ATOM      6  HN  UNK N   1       7.765  -4.130   0.740  1.00  0.00     0.166 HD
HETATM    7  C   UNK N   1       4.014  -1.660  -0.211  0.00  0.00     0.053 A 
HETATM    8  C   UNK N   1       6.486  -1.458  -0.460  0.00  0.00     0.051 A 
HETATM    9  C   UNK N   1       3.625  -0.271  -0.328  0.00  0.00     0.020 A 
HETATM   10  C   UNK N   1       6.490  -0.232  -1.261  0.00  0.00     0.179 C 
HETATM   11  C   UNK N   1       4.567   0.944  -0.304  0.00  0.00     0.054 C 
HETATM   12  C   UNK N   1       5.840  -3.277   0.444  0.00  0.00     0.084 A 
HETATM   13  C   UNK N   1       7.599  -2.219  -0.176  0.00  0.00     0.116 A 
HETATM   14  C   UNK N   1       3.006  -2.642  -0.159  0.00  0.00     0.032 A 
HETATM   15  C   UNK N   1       2.244  -0.002  -0.387  0.00  0.00     0.040 A 
HETATM   16  C   UNK N   1       4.995  -4.375   1.000  0.00  0.00     0.089 C 
HETATM   17  C   UNK N   1       1.657  -2.322  -0.229  0.00  0.00     0.026 A 
HETATM   18  C   UNK N   1       1.277  -0.998  -0.343  0.00  0.00     0.035 A 
ENDROOT
BRANCH  11  19
HETATM   19  C   UNK N   1       4.059   2.342   0.040  0.00  0.00     0.030 A 
HETATM   20  C   UNK N   1       4.913   3.479  -0.039  0.00  0.00     0.128 A 
HETATM   21  F   UNK N   1       6.218   3.366  -0.388  0.00  0.00    -0.205 F 
HETATM   22  C   UNK N   1       4.418   4.760   0.231  0.00  0.00     0.043 A 
HETATM   23  C   UNK N   1       3.083   4.945   0.583  0.00  0.00     0.003 A 
HETATM   24  C   UNK N   1       2.235   3.846   0.680  0.00  0.00     0.001 A 
HETATM   25  C   UNK N   1       2.720   2.565   0.414  0.00  0.00     0.017 A 
ENDBRANCH  11  19
TORSDOF 1
