REMARK  4 active torsions:
REMARK  status: ('A' for Active; 'I' for Inactive)
REMARK    1  A    between atoms: C_5  and  O_1 
REMARK    2  A    between atoms: O_2  and  C_23 
REMARK    3  A    between atoms: N_3  and  C_16 
REMARK    4  A    between atoms: C_16  and  C_17 
ROOT
HETATM    1  N   UNK N   1       5.823   0.711  -1.231  0.00  0.00     0.096 N 
HETATM    2  C   UNK N   1       5.355  -2.084  -0.538  0.00  0.00     0.022 C 
HETATM    3  C   UNK N   1       6.494  -1.270   0.151  0.00  0.00     0.101 C 
HETATM    4  C   UNK N   1       6.064   0.207   0.163  0.00  0.00     0.262 C 
HETATM    5  C   UNK N   1       5.386  -1.671  -2.005  0.00  0.00     0.048 C 
HETATM    6  C   UNK N   1       5.580  -3.610  -0.411  0.00  0.00     0.017 C 
HETATM    7  C   UNK N   1       6.747  -1.811   1.570  0.00  0.00     0.041 C 
HETATM    8  C   UNK N   1       3.953  -1.736  -0.010  0.00  0.00    -0.037 A 
HETATM    9  C   UNK N   1       5.051  -0.177  -2.123  0.00  0.00     0.274 C 
HETATM   10  C   UNK N   1       4.853   0.356   1.103  0.00  0.00     0.078 C 
HETATM   11  C   UNK N   1       6.911  -4.001   0.232  0.00  0.00     0.001 C 
HETATM   12  C   UNK N   1       7.083  -3.314   1.590  0.00  0.00     0.003 C 
HETATM   13  C   UNK N   1       3.738  -0.575   0.772  0.00  0.00    -0.049 A 
HETATM   14  C   UNK N   1       2.837  -2.493  -0.407  0.00  0.00     0.045 A 
HETATM   15  C   UNK N   1       2.449  -0.228   1.180  0.00  0.00     0.010 A 
HETATM   16  C   UNK N   1       1.548  -2.132  -0.000  0.00  0.00     0.066 A 
HETATM   17  C   UNK N   1       1.358  -1.007   0.803  0.00  0.00     0.037 A 
ENDROOT
BRANCH   1  18
HETATM   18  C   UNK N   1       5.073   1.973  -1.286  0.00  0.00     0.277 C 
BRANCH  18  19
HETATM   19  C   UNK N   1       5.667   3.116  -0.474  0.00  0.00     0.014 A 
HETATM   20  C   UNK N   1       5.222   4.417  -1.116  0.00  0.00     0.006 A 
HETATM   21  C   UNK N   1       4.254   4.669   0.021  0.00  0.00     0.001 A 
HETATM   22  C   UNK N   1       4.742   3.407   0.698  0.00  0.00     0.006 A 
ENDBRANCH  18  19
ENDBRANCH   1  18
BRANCH   3  23
HETATM   23  O   UNK N   1       7.695  -1.385  -0.569  0.00  0.00    -0.386 OA
HETATM   24  H   UNK N   1       8.040  -2.143  -1.066  0.00  0.00     0.210 HD
ENDBRANCH   3  23
BRANCH  16  25
HETATM   25  O   UNK N   1       0.492  -2.860  -0.390  0.00  0.00    -0.361 OA
HETATM   26  H   UNK N   1      -0.318  -2.475  -0.662  0.00  0.00     0.217 HD
ENDBRANCH  16  25
TORSDOF 4
