REMARK  1 active torsions:
REMARK  status: ('A' for Active; 'I' for Inactive)
REMARK    1  A    between atoms: C_4  and  C_7 
ROOT
HETATM    1  O   UNK N   1       5.307   0.548  -0.101  0.00  0.00    -0.378 OA
HETATM    2  N   UNK N   1       5.354  -2.270   0.177  0.00  0.00    -0.413 N 
HETATM    3  C   UNK N   1       4.135  -1.497   0.435  0.00  0.00     0.106 C 
HETATM    4  C   UNK N   1       4.141  -0.190  -0.405  0.00  0.00     0.176 C 
HETATM    5  C   UNK N   1       6.538  -1.431   0.347  0.00  0.00     0.140 C 
HETATM    6  C   UNK N   1       6.405  -0.203  -0.544  0.00  0.00     0.188 C 
HETATM    7  C   UNK N   1       2.951  -2.387   0.096  0.00  0.00     0.035 C 
HETATM    8  H   UNK N   1       5.373  -3.255  -0.085  0.00  0.00     0.153 HD
ENDROOT
BRANCH   4   9
HETATM    9  C   UNK N   1       2.920   0.684  -0.182  0.00  0.00    -0.028 A 
HETATM   10  C   UNK N   1       1.634   0.199  -0.469  0.00  0.00     0.010 A 
HETATM   11  C   UNK N   1       0.511   1.009  -0.279  0.00  0.00     0.001 A 
HETATM   12  C   UNK N   1       0.662   2.317   0.185  0.00  0.00     0.000 A 
HETATM   13  C   UNK N   1       1.936   2.816   0.461  0.00  0.00     0.001 A 
HETATM   14  C   UNK N   1       3.059   2.004   0.279  0.00  0.00     0.010 A 
ENDBRANCH   4   9
TORSDOF 1
