REMARK  1 active torsions:
REMARK  status: ('A' for Active; 'I' for Inactive)
REMARK    1  A    between atoms: C_8  and  C_11 
ROOT
HETATM    1 Cl   UNK N   1       1.971  -4.321   0.388  0.00  0.00    -0.084 Cl
HETATM    2  O   UNK N   1       2.350   3.775  -0.217  0.00  0.00    -0.271 OA
HETATM    3  N   UNK N   1       1.713   1.633  -0.398  0.00  0.00    -0.320 N 
HETATM    4  N   UNK N   1       4.586   1.483   0.667  0.00  0.00    -0.380 N 
ATOM      5  HN  UNK N   1       5.515   1.898   0.601  1.00  0.00     0.160 HD
HETATM    6  C   UNK N   1       3.101  -0.430   0.223  0.00  0.00     0.020 A 
HETATM    7  C   UNK N   1       1.852   0.228  -0.098  0.00  0.00     0.049 A 
HETATM    8  C   UNK N   1       4.461   0.248   0.317  0.00  0.00     0.051 C 
HETATM    9  C   UNK N   1       3.525   2.316   1.140  0.00  0.00     0.223 C 
HETATM   10  C   UNK N   1       2.520   2.606   0.105  0.00  0.00     0.241 C 
HETATM   11  C   UNK N   1       3.076  -1.831   0.365  0.00  0.00     0.040 A 
HETATM   12  C   UNK N   1       0.697  -0.571  -0.247  0.00  0.00     0.032 A 
HETATM   13  C   UNK N   1       0.602   2.047  -1.235  0.00  0.00     0.159 C 
HETATM   14  C   UNK N   1       1.915  -2.580   0.223  0.00  0.00     0.035 A 
HETATM   15  C   UNK N   1       0.722  -1.949  -0.080  0.00  0.00     0.026 A 
ENDROOT
BRANCH   8  16
HETATM   16  C   UNK N   1       5.754  -0.504   0.104  0.00  0.00    -0.009 A 
HETATM   17  C   UNK N   1       6.974   0.196   0.173  0.00  0.00     0.014 A 
HETATM   18  C   UNK N   1       8.194  -0.468   0.018  0.00  0.00     0.001 A 
HETATM   19  C   UNK N   1       8.218  -1.846  -0.196  0.00  0.00     0.000 A 
HETATM   20  C   UNK N   1       7.020  -2.558  -0.269  0.00  0.00     0.001 A 
HETATM   21  C   UNK N   1       5.800  -1.891  -0.126  0.00  0.00     0.014 A 
ENDBRANCH   8  16
TORSDOF 1
