REMARK  5 active torsions:
REMARK  status: ('A' for Active; 'I' for Inactive)
REMARK    1  A    between atoms: C_6  and  O_12 
REMARK    2  A    between atoms: C_7  and  C_9 
REMARK    3  A    between atoms: C_9  and  O_10 
REMARK    4  A    between atoms: O_12  and  C_14 
REMARK    5  A    between atoms: C_14  and  C_15 
ROOT
HETATM    1  C   UNK N   1      -1.728  -0.879   1.402  0.00  0.00     0.039 C 
HETATM    2  C   UNK N   1      -0.264  -1.269   1.224  0.00  0.00     0.038 C 
HETATM    3  C   UNK N   1       0.572   0.983   0.910  0.00  0.00     0.069 C 
HETATM    4  N   UNK N   1      -0.962  -0.207  -0.713  0.00  0.00     0.094 N 
HETATM    5  C   UNK N   1      -0.834   0.742  -1.817  0.00  0.00     0.310 C 
HETATM    6  C   UNK N   1      -0.491   2.086   0.849  0.00  0.00     0.150 C 
HETATM    7  C   UNK N   1      -1.946   1.534   0.797  0.00  0.00     0.148 C 
HETATM    8  C   UNK N   1      -2.032   0.076   0.245  0.00  0.00     0.239 C 
HETATM    9  C   UNK N   1       0.214  -0.318   0.156  0.00  0.00     0.225 C 
ENDROOT
BRANCH   6  10
HETATM   10  O   UNK N   1      -0.219   2.977  -0.180  0.00  0.00    -0.311 OA
BRANCH  10  11
HETATM   11  C   UNK N   1       0.776   3.896  -0.079  0.00  0.00     0.293 C 
HETATM   12  O   UNK N   1       0.478   5.069   0.104  0.00  0.00    -0.259 OA
BRANCH  11  13
HETATM   13  C   UNK N   1       2.213   3.517  -0.160  0.00  0.00     0.039 A 
HETATM   14  C   UNK N   1       3.205   4.434   0.218  0.00  0.00     0.017 A 
HETATM   15  C   UNK N   1       4.556   4.074   0.177  0.00  0.00     0.001 A 
HETATM   16  C   UNK N   1       4.928   2.799  -0.255  0.00  0.00     0.000 A 
HETATM   17  C   UNK N   1       3.951   1.887  -0.657  0.00  0.00     0.001 A 
HETATM   18  C   UNK N   1       2.602   2.246  -0.611  0.00  0.00     0.017 A 
ENDBRANCH  11  13
ENDBRANCH  10  11
ENDBRANCH   6  10
BRANCH   7  19
HETATM   19  C   UNK N   1      -2.961   2.626   0.432  0.00  0.00     0.267 C 
HETATM   20  O   UNK N   1      -2.891   3.675   1.053  0.00  0.00    -0.265 OA
BRANCH  19  21
HETATM   21  O   UNK N   1      -3.940   2.525  -0.511  0.00  0.00    -0.326 OA
HETATM   22  C   UNK N   1      -4.207   1.453  -1.322  0.00  0.00     0.213 C 
ENDBRANCH  19  21
ENDBRANCH   7  19
TORSDOF 5
