REMARK  3 active torsions:
REMARK  status: ('A' for Active; 'I' for Inactive)
REMARK    1  A    between atoms: C_7  and  C_8 
REMARK    2  A    between atoms: N_9  and  O_15 
REMARK    3  A    between atoms: C_17  and  N_23 
ROOT
HETATM    1  C   UNK N   1      -1.957   1.399   0.151  0.00  0.00     0.026 A 
HETATM    2  C   UNK N   1      -2.009   0.035   0.391  0.00  0.00     0.035 A 
HETATM    3  C   UNK N   1       0.432  -0.127   0.218  0.00  0.00     0.022 A 
HETATM    4  C   UNK N   1       0.472   1.290  -0.019  0.00  0.00     0.046 A 
HETATM    5  C   UNK N   1      -0.835  -0.709   0.418  0.00  0.00     0.040 A 
HETATM    6  C   UNK N   1      -0.727   2.015  -0.059  0.00  0.00     0.032 A 
HETATM    7  C   UNK N   1       1.640  -1.061   0.227  0.00  0.00     0.080 C 
HETATM    8  N   UNK N   1       2.834  -0.637   0.573  0.00  0.00    -0.252 N 
HETATM    9  N   UNK N   1       1.653   2.027  -0.303  0.00  0.00    -0.344 N 
ATOM     10  HN  UNK N   1       1.552   2.845  -0.905  1.00  0.00     0.167 HD
HETATM   11  C   UNK N   1       3.059   0.680   1.107  0.00  0.00     0.232 C 
HETATM   12  C   UNK N   1       2.833   1.762   0.125  0.00  0.00     0.097 C 
HETATM   13 Cl   UNK N   1      -3.550  -0.757   0.636  0.00  0.00    -0.084 Cl
ENDROOT
BRANCH   7  14
HETATM   14  C   UNK N   1       1.417  -2.541  -0.108  0.00  0.00    -0.006 A 
HETATM   15  C   UNK N   1       0.247  -2.973  -0.764  0.00  0.00     0.014 A 
HETATM   16  C   UNK N   1       0.009  -4.327  -1.012  0.00  0.00     0.001 A 
HETATM   17  C   UNK N   1       0.936  -5.285  -0.603  0.00  0.00     0.000 A 
HETATM   18  C   UNK N   1       2.107  -4.885   0.040  0.00  0.00     0.001 A 
HETATM   19  C   UNK N   1       2.344  -3.529   0.282  0.00  0.00     0.014 A 
ENDBRANCH   7  14
BRANCH   8  20
HETATM   20  O   UNK N   1       3.772  -1.374   0.546  0.00  0.00    -0.287 OA
ATOM     21  HO  UNK N   1       4.636  -1.067   0.797  1.00  0.00     0.244 HD
ENDBRANCH   8  20
BRANCH  12  22
HETATM   22  N   UNK N   1       3.913   2.628  -0.190  0.00  0.00    -0.383 N 
HETATM   23  C   UNK N   1       3.723   3.834  -0.955  0.00  0.00     0.147 C 
HETATM   24  H   UNK N   1       4.818   2.397   0.123  0.00  0.00     0.160 HD
ENDBRANCH  12  22
TORSDOF 3
