REMARK  4 active torsions:
REMARK  status: ('A' for Active; 'I' for Inactive)
REMARK    1  A    between atoms: C_6  and  C_7 
REMARK    2  A    between atoms: C_6  and  C_9 
REMARK    3  A    between atoms: C_7  and  C_8 
REMARK    4  A    between atoms: C_9  and  C_14 
ROOT
HETATM    1  O   UNK N   1       5.311   0.552   1.264  0.00  0.00    -0.272 OA
HETATM    2  O   UNK N   1       1.587  -0.629  -1.375  0.00  0.00    -0.272 OA
HETATM    3  O   UNK N   1       4.489  -3.648   0.090  0.00  0.00    -0.247 OA
HETATM    4  N   UNK N   1       4.908  -1.539   0.656  0.00  0.00    -0.278 N 
HETATM    5  N   UNK N   1       3.039  -2.133  -0.642  0.00  0.00    -0.278 N 
HETATM    6  C   UNK N   1       3.342   0.299  -0.055  0.00  0.00     0.126 A 
HETATM    7  C   UNK N   1       4.593  -0.220   0.651  0.00  0.00     0.244 A 
HETATM    8  C   UNK N   1       2.600  -0.856  -0.730  0.00  0.00     0.244 A 
HETATM    9  C   UNK N   1       4.156  -2.476   0.036  0.00  0.00     0.329 A 
HETATM   10  H   UNK N   1       5.721  -1.826   1.133  0.00  0.00     0.173 HD
HETATM   11  H   UNK N   1       2.523  -2.841  -1.090  0.00  0.00     0.173 HD
ENDROOT
BRANCH   6  12
HETATM   12  C   UNK N   1       3.703   1.299  -1.191  0.00  0.00     0.033 C 
BRANCH  12  13
HETATM   13  C   UNK N   1       4.247   2.714  -0.907  0.00  0.00    -0.021 C 
HETATM   14  C   UNK N   1       3.274   3.639  -0.209  0.00  0.00     0.009 C 
HETATM   15  C   UNK N   1       5.629   2.783  -0.293  0.00  0.00     0.009 C 
ENDBRANCH  12  13
ENDBRANCH   6  12
BRANCH   6  16
HETATM   16  C   UNK N   1       2.442   0.930   1.033  0.00  0.00     0.055 C 
BRANCH  16  17
HETATM   17  C   UNK N   1       1.053   1.286   0.591  0.00  0.00    -0.035 C 
HETATM   18  C   UNK N   1       0.564   2.506   0.786  0.00  0.00     0.007 C 
ENDBRANCH  16  17
ENDBRANCH   6  16
TORSDOF 4
