MODEL 1
REMARK VINA RESULT:      -5.7      0.000      0.000
REMARK  8 active torsions:
REMARK  status: ('A' for Active; 'I' for Inactive)
REMARK    1  A    between atoms: N_2  and  C_9 
REMARK    2  A    between atoms: N_2  and  C_11 
REMARK    3  A    between atoms: N_2  and  C_12 
REMARK    4  A    between atoms: N_3  and  C_8 
REMARK    5  A    between atoms: N_3  and  C_13 
REMARK    6  A    between atoms: C_6  and  C_7 
REMARK    7  A    between atoms: C_6  and  C_8 
REMARK    8  A    between atoms: C_7  and  C_9 
ROOT
HETATM    1 Cl   UNK N   1      32.576  14.546   5.330  0.00  0.00    -0.084 Cl
HETATM    2  N   UNK N   1      30.681  17.523   9.032  0.00  0.00    -0.365 N 
ATOM      3  HN  UNK N   1      31.491  17.252   9.589  1.00  0.00     0.165 HD
HETATM    4  C   UNK N   1      28.478  18.260   7.522  0.00  0.00     0.042 A 
HETATM    5  C   UNK N   1      29.423  17.373   6.990  0.00  0.00     0.017 A 
HETATM    6  C   UNK N   1      28.659  18.774   8.808  0.00  0.00     0.047 A 
HETATM    7  C   UNK N   1      30.539  17.015   7.779  0.00  0.00     0.046 A 
HETATM    8  C   UNK N   1      29.297  16.864   5.691  0.00  0.00     0.018 A 
HETATM    9  C   UNK N   1      29.768  18.384   9.558  0.00  0.00     0.090 A 
HETATM   10  C   UNK N   1      31.506  16.150   7.260  0.00  0.00     0.054 A 
HETATM   11  C   UNK N   1      30.269  15.998   5.182  0.00  0.00     0.025 A 
HETATM   12  C   UNK N   1      31.370  15.641   5.966  0.00  0.00     0.036 A 
ENDROOT
BRANCH   4  13
HETATM   13  N   UNK N   1      27.407  18.721   6.733  0.00  0.00    -0.385 N 
HETATM   14  H   UNK N   1      26.596  18.179   6.601  0.00  0.00     0.160 HD
BRANCH  13  15
HETATM   15  C   UNK N   1      27.549  20.015   6.132  0.00  0.00     0.077 C 
HETATM   16  C   UNK N   1      26.607  21.068   6.691  0.00  0.00     0.032 C 
BRANCH  15  17
HETATM   17  C   UNK N   1      27.854  19.951   4.637  0.00  0.00     0.026 C 
BRANCH  17  18
HETATM   18  C   UNK N   1      26.738  20.445   3.739  0.00  0.00     0.032 C 
BRANCH  18  19
HETATM   19  C   UNK N   1      25.703  19.363   3.401  0.00  0.00     0.272 C 
BRANCH  19  20
HETATM   20  N   UNK N   1      24.379  19.676   3.959  0.00  0.00     0.087 N 
BRANCH  20  21
HETATM   21  C   UNK N   1      23.677  18.426   4.279  0.00  0.00     0.268 C 
HETATM   22  C   UNK N   1      24.660  17.283   4.438  0.00  0.00     0.037 C 
ENDBRANCH  20  21
BRANCH  20  23
HETATM   23  C   UNK N   1      23.688  20.513   2.966  0.00  0.00     0.268 C 
HETATM   24  C   UNK N   1      22.201  20.231   2.787  0.00  0.00     0.037 C 
ENDBRANCH  20  23
ENDBRANCH  19  20
ENDBRANCH  18  19
ENDBRANCH  17  18
ENDBRANCH  15  17
ENDBRANCH  13  15
ENDBRANCH   4  13
TORSDOF 8
ENDMDL
MODEL 2
REMARK VINA RESULT:      -5.5      7.410     11.074
REMARK  8 active torsions:
REMARK  status: ('A' for Active; 'I' for Inactive)
REMARK    1  A    between atoms: N_2  and  C_9 
REMARK    2  A    between atoms: N_2  and  C_11 
REMARK    3  A    between atoms: N_2  and  C_12 
REMARK    4  A    between atoms: N_3  and  C_8 
REMARK    5  A    between atoms: N_3  and  C_13 
REMARK    6  A    between atoms: C_6  and  C_7 
REMARK    7  A    between atoms: C_6  and  C_8 
REMARK    8  A    between atoms: C_7  and  C_9 
ROOT
HETATM    1 Cl   UNK N   1      34.949  13.364  18.077  0.00  0.00    -0.084 Cl
HETATM    2  N   UNK N   1      34.200  11.378  13.425  0.00  0.00    -0.365 N 
ATOM      3  HN  UNK N   1      33.422  10.858  13.831  1.00  0.00     0.165 HD
HETATM    4  C   UNK N   1      36.311  12.787  12.316  0.00  0.00     0.042 A 
HETATM    5  C   UNK N   1      36.018  12.928  13.678  0.00  0.00     0.017 A 
HETATM    6  C   UNK N   1      35.530  11.942  11.523  0.00  0.00     0.047 A 
HETATM    7  C   UNK N   1      34.934  12.201  14.219  0.00  0.00     0.046 A 
HETATM    8  C   UNK N   1      36.754  13.793  14.498  0.00  0.00     0.018 A 
HETATM    9  C   UNK N   1      34.478  11.233  12.100  0.00  0.00     0.090 A 
HETATM   10  C   UNK N   1      34.609  12.344  15.570  0.00  0.00     0.054 A 
HETATM   11  C   UNK N   1      36.422  13.927  15.849  0.00  0.00     0.025 A 
HETATM   12  C   UNK N   1      35.353  13.203  16.383  0.00  0.00     0.036 A 
ENDROOT
BRANCH   4  13
HETATM   13  N   UNK N   1      37.316  13.569  11.716  0.00  0.00    -0.385 N 
HETATM   14  H   UNK N   1      38.236  13.583  12.069  0.00  0.00     0.160 HD
BRANCH  13  15
HETATM   15  C   UNK N   1      36.943  14.344  10.569  0.00  0.00     0.077 C 
HETATM   16  C   UNK N   1      37.837  14.135   9.358  0.00  0.00     0.032 C 
BRANCH  15  17
HETATM   17  C   UNK N   1      36.426  15.735  10.928  0.00  0.00     0.026 C 
BRANCH  17  18
HETATM   18  C   UNK N   1      34.946  15.948  10.678  0.00  0.00     0.032 C 
BRANCH  18  19
HETATM   19  C   UNK N   1      34.640  16.551   9.301  0.00  0.00     0.272 C 
BRANCH  19  20
HETATM   20  N   UNK N   1      33.336  16.110   8.785  0.00  0.00     0.087 N 
BRANCH  20  21
HETATM   21  C   UNK N   1      33.542  15.206   7.646  0.00  0.00     0.268 C 
HETATM   22  C   UNK N   1      34.933  15.378   7.068  0.00  0.00     0.037 C 
ENDBRANCH  20  21
BRANCH  20  23
HETATM   23  C   UNK N   1      32.579  17.327   8.453  0.00  0.00     0.268 C 
HETATM   24  C   UNK N   1      31.729  17.250   7.190  0.00  0.00     0.037 C 
ENDBRANCH  20  23
ENDBRANCH  19  20
ENDBRANCH  18  19
ENDBRANCH  17  18
ENDBRANCH  15  17
ENDBRANCH  13  15
ENDBRANCH   4  13
TORSDOF 8
ENDMDL
MODEL 3
REMARK VINA RESULT:      -5.3     11.979     15.354
REMARK  8 active torsions:
REMARK  status: ('A' for Active; 'I' for Inactive)
REMARK    1  A    between atoms: N_2  and  C_9 
REMARK    2  A    between atoms: N_2  and  C_11 
REMARK    3  A    between atoms: N_2  and  C_12 
REMARK    4  A    between atoms: N_3  and  C_8 
REMARK    5  A    between atoms: N_3  and  C_13 
REMARK    6  A    between atoms: C_6  and  C_7 
REMARK    7  A    between atoms: C_6  and  C_8 
REMARK    8  A    between atoms: C_7  and  C_9 
ROOT
HETATM    1 Cl   UNK N   1      30.441  30.853  -7.725  0.00  0.00    -0.084 Cl
HETATM    2  N   UNK N   1      26.892  29.563  -4.276  0.00  0.00    -0.365 N 
ATOM      3  HN  UNK N   1      27.192  30.380  -3.743  1.00  0.00     0.165 HD
HETATM    4  C   UNK N   1      26.077  27.344  -5.720  0.00  0.00     0.042 A 
HETATM    5  C   UNK N   1      27.116  28.148  -6.205  0.00  0.00     0.017 A 
HETATM    6  C   UNK N   1      25.452  27.673  -4.515  0.00  0.00     0.047 A 
HETATM    7  C   UNK N   1      27.511  29.276  -5.452  0.00  0.00     0.046 A 
HETATM    8  C   UNK N   1      27.743  27.873  -7.427  0.00  0.00     0.018 A 
HETATM    9  C   UNK N   1      25.882  28.787  -3.796  0.00  0.00     0.090 A 
HETATM   10  C   UNK N   1      28.530  30.105  -5.927  0.00  0.00     0.054 A 
HETATM   11  C   UNK N   1      28.763  28.707  -7.893  0.00  0.00     0.025 A 
HETATM   12  C   UNK N   1      29.156  29.819  -7.143  0.00  0.00     0.036 A 
ENDROOT
BRANCH   4  13
HETATM   13  N   UNK N   1      25.584  26.272  -6.488  0.00  0.00    -0.385 N 
HETATM   14  H   UNK N   1      24.868  26.401  -7.151  0.00  0.00     0.160 HD
BRANCH  13  15
HETATM   15  C   UNK N   1      26.171  24.983  -6.261  0.00  0.00     0.077 C 
HETATM   16  C   UNK N   1      26.405  24.175  -7.526  0.00  0.00     0.032 C 
BRANCH  15  17
HETATM   17  C   UNK N   1      25.669  24.312  -4.986  0.00  0.00     0.026 C 
BRANCH  17  18
HETATM   18  C   UNK N   1      26.693  24.212  -3.873  0.00  0.00     0.032 C 
BRANCH  18  19
HETATM   19  C   UNK N   1      28.137  24.115  -4.380  0.00  0.00     0.272 C 
BRANCH  19  20
HETATM   20  N   UNK N   1      29.048  24.978  -3.614  0.00  0.00     0.087 N 
BRANCH  20  21
HETATM   21  C   UNK N   1      29.429  26.136  -4.434  0.00  0.00     0.268 C 
HETATM   22  C   UNK N   1      30.419  27.015  -3.695  0.00  0.00     0.037 C 
ENDBRANCH  20  21
BRANCH  20  23
HETATM   23  C   UNK N   1      30.183  24.136  -3.204  0.00  0.00     0.268 C 
HETATM   24  C   UNK N   1      29.817  22.817  -2.533  0.00  0.00     0.037 C 
ENDBRANCH  20  23
ENDBRANCH  19  20
ENDBRANCH  18  19
ENDBRANCH  17  18
ENDBRANCH  15  17
ENDBRANCH  13  15
ENDBRANCH   4  13
TORSDOF 8
ENDMDL
MODEL 4
REMARK VINA RESULT:      -5.3      7.391     11.689
REMARK  8 active torsions:
REMARK  status: ('A' for Active; 'I' for Inactive)
REMARK    1  A    between atoms: N_2  and  C_9 
REMARK    2  A    between atoms: N_2  and  C_11 
REMARK    3  A    between atoms: N_2  and  C_12 
REMARK    4  A    between atoms: N_3  and  C_8 
REMARK    5  A    between atoms: N_3  and  C_13 
REMARK    6  A    between atoms: C_6  and  C_7 
REMARK    7  A    between atoms: C_6  and  C_8 
REMARK    8  A    between atoms: C_7  and  C_9 
ROOT
HETATM    1 Cl   UNK N   1      33.064  17.634   4.843  0.00  0.00    -0.084 Cl
HETATM    2  N   UNK N   1      34.612  17.318   9.707  0.00  0.00    -0.365 N 
ATOM      3  HN  UNK N   1      34.155  18.217   9.854  1.00  0.00     0.165 HD
HETATM    4  C   UNK N   1      35.858  14.875   9.311  0.00  0.00     0.042 A 
HETATM    5  C   UNK N   1      35.219  15.513   8.241  0.00  0.00     0.017 A 
HETATM    6  C   UNK N   1      35.855  15.472  10.574  0.00  0.00     0.047 A 
HETATM    7  C   UNK N   1      34.587  16.756   8.469  0.00  0.00     0.046 A 
HETATM    8  C   UNK N   1      35.167  14.930   6.968  0.00  0.00     0.018 A 
HETATM    9  C   UNK N   1      35.232  16.706  10.753  0.00  0.00     0.090 A 
HETATM   10  C   UNK N   1      33.923  17.400   7.422  0.00  0.00     0.054 A 
HETATM   11  C   UNK N   1      34.502  15.583   5.926  0.00  0.00     0.025 A 
HETATM   12  C   UNK N   1      33.884  16.816   6.153  0.00  0.00     0.036 A 
ENDROOT
BRANCH   4  13
HETATM   13  N   UNK N   1      36.409  13.590   9.151  0.00  0.00    -0.385 N 
HETATM   14  H   UNK N   1      36.267  13.068   8.328  0.00  0.00     0.160 HD
BRANCH  13  15
HETATM   15  C   UNK N   1      37.187  13.073  10.239  0.00  0.00     0.077 C 
HETATM   16  C   UNK N   1      38.689  13.187  10.040  0.00  0.00     0.032 C 
BRANCH  15  17
HETATM   17  C   UNK N   1      36.575  11.828  10.876  0.00  0.00     0.026 C 
BRANCH  17  18
HETATM   18  C   UNK N   1      35.462  12.102  11.868  0.00  0.00     0.032 C 
BRANCH  18  19
HETATM   19  C   UNK N   1      35.908  12.954  13.063  0.00  0.00     0.272 C 
BRANCH  19  20
HETATM   20  N   UNK N   1      35.597  12.307  14.346  0.00  0.00     0.087 N 
BRANCH  20  21
HETATM   21  C   UNK N   1      34.312  11.603  14.239  0.00  0.00     0.268 C 
HETATM   22  C   UNK N   1      34.319  10.341  15.079  0.00  0.00     0.037 C 
ENDBRANCH  20  21
BRANCH  20  23
HETATM   23  C   UNK N   1      35.617  13.364  15.369  0.00  0.00     0.268 C 
HETATM   24  C   UNK N   1      36.881  14.215  15.413  0.00  0.00     0.037 C 
ENDBRANCH  20  23
ENDBRANCH  19  20
ENDBRANCH  18  19
ENDBRANCH  17  18
ENDBRANCH  15  17
ENDBRANCH  13  15
ENDBRANCH   4  13
TORSDOF 8
ENDMDL
MODEL 5
REMARK VINA RESULT:      -5.2      2.905      6.763
REMARK  8 active torsions:
REMARK  status: ('A' for Active; 'I' for Inactive)
REMARK    1  A    between atoms: N_2  and  C_9 
REMARK    2  A    between atoms: N_2  and  C_11 
REMARK    3  A    between atoms: N_2  and  C_12 
REMARK    4  A    between atoms: N_3  and  C_8 
REMARK    5  A    between atoms: N_3  and  C_13 
REMARK    6  A    between atoms: C_6  and  C_7 
REMARK    7  A    between atoms: C_6  and  C_8 
REMARK    8  A    between atoms: C_7  and  C_9 
ROOT
HETATM    1 Cl   UNK N   1      25.001  20.734   2.446  0.00  0.00    -0.084 Cl
HETATM    2  N   UNK N   1      25.301  16.647   5.504  0.00  0.00    -0.365 N 
ATOM      3  HN  UNK N   1      24.366  16.401   5.178  1.00  0.00     0.165 HD
HETATM    4  C   UNK N   1      27.838  17.310   6.396  0.00  0.00     0.042 A 
HETATM    5  C   UNK N   1      27.184  18.139   5.477  0.00  0.00     0.017 A 
HETATM    6  C   UNK N   1      27.210  16.148   6.851  0.00  0.00     0.047 A 
HETATM    7  C   UNK N   1      25.892  17.777   5.035  0.00  0.00     0.046 A 
HETATM    8  C   UNK N   1      27.795  19.292   4.968  0.00  0.00     0.018 A 
HETATM    9  C   UNK N   1      25.928  15.835   6.400  0.00  0.00     0.090 A 
HETATM   10  C   UNK N   1      25.229  18.576   4.100  0.00  0.00     0.054 A 
HETATM   11  C   UNK N   1      27.123  20.087   4.035  0.00  0.00     0.025 A 
HETATM   12  C   UNK N   1      25.842  19.730   3.604  0.00  0.00     0.036 A 
ENDROOT
BRANCH   4  13
HETATM   13  N   UNK N   1      29.165  17.579   6.783  0.00  0.00    -0.385 N 
HETATM   14  H   UNK N   1      29.849  17.841   6.126  0.00  0.00     0.160 HD
BRANCH  13  15
HETATM   15  C   UNK N   1      29.476  17.455   8.178  0.00  0.00     0.077 C 
HETATM   16  C   UNK N   1      28.863  18.536   9.051  0.00  0.00     0.032 C 
BRANCH  15  17
HETATM   17  C   UNK N   1      30.896  16.954   8.432  0.00  0.00     0.026 C 
BRANCH  17  18
HETATM   18  C   UNK N   1      31.878  17.227   7.310  0.00  0.00     0.032 C 
BRANCH  18  19
HETATM   19  C   UNK N   1      32.730  16.007   6.935  0.00  0.00     0.272 C 
BRANCH  19  20
HETATM   20  N   UNK N   1      32.644  15.697   5.501  0.00  0.00     0.087 N 
BRANCH  20  21
HETATM   21  C   UNK N   1      32.020  16.824   4.794  0.00  0.00     0.268 C 
HETATM   22  C   UNK N   1      32.699  17.062   3.459  0.00  0.00     0.037 C 
ENDBRANCH  20  21
BRANCH  20  23
HETATM   23  C   UNK N   1      31.901  14.433   5.385  0.00  0.00     0.268 C 
HETATM   24  C   UNK N   1      30.391  14.569   5.224  0.00  0.00     0.037 C 
ENDBRANCH  20  23
ENDBRANCH  19  20
ENDBRANCH  18  19
ENDBRANCH  17  18
ENDBRANCH  15  17
ENDBRANCH  13  15
ENDBRANCH   4  13
TORSDOF 8
ENDMDL
MODEL 6
REMARK VINA RESULT:      -5.2      4.037      8.472
REMARK  8 active torsions:
REMARK  status: ('A' for Active; 'I' for Inactive)
REMARK    1  A    between atoms: N_2  and  C_9 
REMARK    2  A    between atoms: N_2  and  C_11 
REMARK    3  A    between atoms: N_2  and  C_12 
REMARK    4  A    between atoms: N_3  and  C_8 
REMARK    5  A    between atoms: N_3  and  C_13 
REMARK    6  A    between atoms: C_6  and  C_7 
REMARK    7  A    between atoms: C_6  and  C_8 
REMARK    8  A    between atoms: C_7  and  C_9 
ROOT
HETATM    1 Cl   UNK N   1      19.746  13.521   0.475  0.00  0.00    -0.084 Cl
HETATM    2  N   UNK N   1      19.806  18.495   1.662  0.00  0.00    -0.365 N 
ATOM      3  HN  UNK N   1      19.100  18.621   0.936  1.00  0.00     0.165 HD
HETATM    4  C   UNK N   1      21.725  18.159   3.631  0.00  0.00     0.042 A 
HETATM    5  C   UNK N   1      21.284  17.054   2.891  0.00  0.00     0.017 A 
HETATM    6  C   UNK N   1      21.186  19.422   3.377  0.00  0.00     0.047 A 
HETATM    7  C   UNK N   1      20.303  17.251   1.895  0.00  0.00     0.046 A 
HETATM    8  C   UNK N   1      21.772  15.765   3.141  0.00  0.00     0.018 A 
HETATM    9  C   UNK N   1      20.229  19.575   2.375  0.00  0.00     0.090 A 
HETATM   10  C   UNK N   1      19.831  16.161   1.160  0.00  0.00     0.054 A 
HETATM   11  C   UNK N   1      21.296  14.681   2.399  0.00  0.00     0.025 A 
HETATM   12  C   UNK N   1      20.329  14.879   1.410  0.00  0.00     0.036 A 
ENDROOT
BRANCH   4  13
HETATM   13  N   UNK N   1      22.625  17.989   4.701  0.00  0.00    -0.385 N 
HETATM   14  H   UNK N   1      22.307  17.870   5.625  0.00  0.00     0.160 HD
BRANCH  13  15
HETATM   15  C   UNK N   1      24.023  17.999   4.385  0.00  0.00     0.077 C 
HETATM   16  C   UNK N   1      24.818  16.883   5.043  0.00  0.00     0.032 C 
BRANCH  15  17
HETATM   17  C   UNK N   1      24.601  19.407   4.268  0.00  0.00     0.026 C 
BRANCH  17  18
HETATM   18  C   UNK N   1      25.688  19.564   3.222  0.00  0.00     0.032 C 
BRANCH  18  19
HETATM   19  C   UNK N   1      27.001  20.121   3.785  0.00  0.00     0.272 C 
BRANCH  19  20
HETATM   20  N   UNK N   1      27.152  19.829   5.218  0.00  0.00     0.087 N 
BRANCH  20  21
HETATM   21  C   UNK N   1      27.530  21.057   5.930  0.00  0.00     0.268 C 
HETATM   22  C   UNK N   1      26.446  21.468   6.907  0.00  0.00     0.037 C 
ENDBRANCH  20  21
BRANCH  20  23
HETATM   23  C   UNK N   1      28.143  18.746   5.327  0.00  0.00     0.268 C 
HETATM   24  C   UNK N   1      28.273  18.108   6.705  0.00  0.00     0.037 C 
ENDBRANCH  20  23
ENDBRANCH  19  20
ENDBRANCH  18  19
ENDBRANCH  17  18
ENDBRANCH  15  17
ENDBRANCH  13  15
ENDBRANCH   4  13
TORSDOF 8
ENDMDL
MODEL 7
REMARK VINA RESULT:      -5.1      3.265      7.792
REMARK  8 active torsions:
REMARK  status: ('A' for Active; 'I' for Inactive)
REMARK    1  A    between atoms: N_2  and  C_9 
REMARK    2  A    between atoms: N_2  and  C_11 
REMARK    3  A    between atoms: N_2  and  C_12 
REMARK    4  A    between atoms: N_3  and  C_8 
REMARK    5  A    between atoms: N_3  and  C_13 
REMARK    6  A    between atoms: C_6  and  C_7 
REMARK    7  A    between atoms: C_6  and  C_8 
REMARK    8  A    between atoms: C_7  and  C_9 
ROOT
HETATM    1 Cl   UNK N   1      20.689  20.512   2.359  0.00  0.00    -0.084 Cl
HETATM    2  N   UNK N   1      25.770  20.717   2.894  0.00  0.00    -0.365 N 
ATOM      3  HN  UNK N   1      25.755  21.490   2.229  1.00  0.00     0.165 HD
HETATM    4  C   UNK N   1      25.818  18.617   4.700  0.00  0.00     0.042 A 
HETATM    5  C   UNK N   1      24.600  19.037   4.151  0.00  0.00     0.017 A 
HETATM    6  C   UNK N   1      27.001  19.267   4.340  0.00  0.00     0.047 A 
HETATM    7  C   UNK N   1      24.602  20.113   3.235  0.00  0.00     0.046 A 
HETATM    8  C   UNK N   1      23.388  18.436   4.515  0.00  0.00     0.018 A 
HETATM    9  C   UNK N   1      26.960  20.316   3.421  0.00  0.00     0.090 A 
HETATM   10  C   UNK N   1      23.396  20.564   2.692  0.00  0.00     0.054 A 
HETATM   11  C   UNK N   1      22.188  18.892   3.965  0.00  0.00     0.025 A 
HETATM   12  C   UNK N   1      22.193  19.953   3.054  0.00  0.00     0.036 A 
ENDROOT
BRANCH   4  13
HETATM   13  N   UNK N   1      25.849  17.619   5.692  0.00  0.00    -0.385 N 
HETATM   14  H   UNK N   1      25.447  17.763   6.579  0.00  0.00     0.160 HD
BRANCH  13  15
HETATM   15  C   UNK N   1      26.490  16.381   5.354  0.00  0.00     0.077 C 
HETATM   16  C   UNK N   1      25.551  15.325   4.797  0.00  0.00     0.032 C 
BRANCH  15  17
HETATM   17  C   UNK N   1      27.609  16.002   6.321  0.00  0.00     0.026 C 
BRANCH  17  18
HETATM   18  C   UNK N   1      28.205  17.164   7.091  0.00  0.00     0.032 C 
BRANCH  18  19
HETATM   19  C   UNK N   1      29.649  17.487   6.685  0.00  0.00     0.272 C 
BRANCH  19  20
HETATM   20  N   UNK N   1      30.627  16.827   7.563  0.00  0.00     0.087 N 
BRANCH  20  21
HETATM   21  C   UNK N   1      31.187  17.813   8.497  0.00  0.00     0.268 C 
HETATM   22  C   UNK N   1      32.687  17.937   8.313  0.00  0.00     0.037 C 
ENDBRANCH  20  21
BRANCH  20  23
HETATM   23  C   UNK N   1      31.628  16.200   6.685  0.00  0.00     0.268 C 
HETATM   24  C   UNK N   1      31.196  14.899   6.018  0.00  0.00     0.037 C 
ENDBRANCH  20  23
ENDBRANCH  19  20
ENDBRANCH  18  19
ENDBRANCH  17  18
ENDBRANCH  15  17
ENDBRANCH  13  15
ENDBRANCH   4  13
TORSDOF 8
ENDMDL
MODEL 8
REMARK VINA RESULT:      -4.9     11.158     13.015
REMARK  8 active torsions:
REMARK  status: ('A' for Active; 'I' for Inactive)
REMARK    1  A    between atoms: N_2  and  C_9 
REMARK    2  A    between atoms: N_2  and  C_11 
REMARK    3  A    between atoms: N_2  and  C_12 
REMARK    4  A    between atoms: N_3  and  C_8 
REMARK    5  A    between atoms: N_3  and  C_13 
REMARK    6  A    between atoms: C_6  and  C_7 
REMARK    7  A    between atoms: C_6  and  C_8 
REMARK    8  A    between atoms: C_7  and  C_9 
ROOT
HETATM    1 Cl   UNK N   1      30.494  18.550  -8.946  0.00  0.00    -0.084 Cl
HETATM    2  N   UNK N   1      31.384  20.715  -4.399  0.00  0.00    -0.365 N 
ATOM      3  HN  UNK N   1      32.067  19.974  -4.240  1.00  0.00     0.165 HD
HETATM    4  C   UNK N   1      29.529  22.728  -4.823  0.00  0.00     0.042 A 
HETATM    5  C   UNK N   1      29.729  21.747  -5.802  0.00  0.00     0.017 A 
HETATM    6  C   UNK N   1      30.274  22.690  -3.642  0.00  0.00     0.047 A 
HETATM    7  C   UNK N   1      30.683  20.733  -5.564  0.00  0.00     0.046 A 
HETATM    8  C   UNK N   1      29.029  21.772  -7.016  0.00  0.00     0.018 A 
HETATM    9  C   UNK N   1      31.196  21.663  -3.441  0.00  0.00     0.090 A 
HETATM   10  C   UNK N   1      30.916  19.757  -6.535  0.00  0.00     0.054 A 
HETATM   11  C   UNK N   1      29.268  20.790  -7.981  0.00  0.00     0.025 A 
HETATM   12  C   UNK N   1      30.209  19.784  -7.740  0.00  0.00     0.036 A 
ENDROOT
BRANCH   4  13
HETATM   13  N   UNK N   1      28.664  23.813  -5.064  0.00  0.00    -0.385 N 
HETATM   14  H   UNK N   1      28.346  24.025  -5.972  0.00  0.00     0.160 HD
BRANCH  13  15
HETATM   15  C   UNK N   1      28.265  24.594  -3.930  0.00  0.00     0.077 C 
HETATM   16  C   UNK N   1      26.823  24.377  -3.500  0.00  0.00     0.032 C 
BRANCH  15  17
HETATM   17  C   UNK N   1      28.885  25.989  -3.916  0.00  0.00     0.026 C 
BRANCH  17  18
HETATM   18  C   UNK N   1      28.792  26.740  -5.229  0.00  0.00     0.032 C 
BRANCH  18  19
HETATM   19  C   UNK N   1      27.548  27.632  -5.335  0.00  0.00     0.272 C 
BRANCH  19  20
HETATM   20  N   UNK N   1      27.051  28.042  -4.014  0.00  0.00     0.087 N 
BRANCH  20  21
HETATM   21  C   UNK N   1      25.587  27.922  -3.984  0.00  0.00     0.268 C 
HETATM   22  C   UNK N   1      25.074  27.282  -5.259  0.00  0.00     0.037 C 
ENDBRANCH  20  21
BRANCH  20  23
HETATM   23  C   UNK N   1      27.545  29.409  -3.781  0.00  0.00     0.268 C 
HETATM   24  C   UNK N   1      27.634  30.296  -5.018  0.00  0.00     0.037 C 
ENDBRANCH  20  23
ENDBRANCH  19  20
ENDBRANCH  18  19
ENDBRANCH  17  18
ENDBRANCH  15  17
ENDBRANCH  13  15
ENDBRANCH   4  13
TORSDOF 8
ENDMDL
MODEL 9
REMARK VINA RESULT:      -4.9     12.094     14.740
REMARK  8 active torsions:
REMARK  status: ('A' for Active; 'I' for Inactive)
REMARK    1  A    between atoms: N_2  and  C_9 
REMARK    2  A    between atoms: N_2  and  C_11 
REMARK    3  A    between atoms: N_2  and  C_12 
REMARK    4  A    between atoms: N_3  and  C_8 
REMARK    5  A    between atoms: N_3  and  C_13 
REMARK    6  A    between atoms: C_6  and  C_7 
REMARK    7  A    between atoms: C_6  and  C_8 
REMARK    8  A    between atoms: C_7  and  C_9 
ROOT
HETATM    1 Cl   UNK N   1      35.317  13.397  18.261  0.00  0.00    -0.084 Cl
HETATM    2  N   UNK N   1      36.786  13.939  13.392  0.00  0.00    -0.365 N 
ATOM      3  HN  UNK N   1      37.459  14.628  13.728  1.00  0.00     0.165 HD
HETATM    4  C   UNK N   1      34.958  12.072  12.473  0.00  0.00     0.042 A 
HETATM    5  C   UNK N   1      35.014  12.378  13.839  0.00  0.00     0.017 A 
HETATM    6  C   UNK N   1      35.830  12.704  11.585  0.00  0.00     0.047 A 
HETATM    7  C   UNK N   1      35.958  13.331  14.283  0.00  0.00     0.046 A 
HETATM    8  C   UNK N   1      34.182  11.739  14.766  0.00  0.00     0.018 A 
HETATM    9  C   UNK N   1      36.737  13.649  12.063  0.00  0.00     0.090 A 
HETATM   10  C   UNK N   1      36.048  13.636  15.643  0.00  0.00     0.054 A 
HETATM   11  C   UNK N   1      34.279  12.052  16.125  0.00  0.00     0.025 A 
HETATM   12  C   UNK N   1      35.209  13.000  16.561  0.00  0.00     0.036 A 
ENDROOT
BRANCH   4  13
HETATM   13  N   UNK N   1      34.104  11.055  12.004  0.00  0.00    -0.385 N 
HETATM   14  H   UNK N   1      33.136  11.074  12.181  0.00  0.00     0.160 HD
BRANCH  13  15
HETATM   15  C   UNK N   1      34.707   9.990  11.255  0.00  0.00     0.077 C 
HETATM   16  C   UNK N   1      33.742   9.237  10.356  0.00  0.00     0.032 C 
BRANCH  15  17
HETATM   17  C   UNK N   1      35.792   9.250  12.035  0.00  0.00     0.026 C 
BRANCH  17  18
HETATM   18  C   UNK N   1      35.294   8.479  13.241  0.00  0.00     0.032 C 
BRANCH  18  19
HETATM   19  C   UNK N   1      36.387   8.203  14.282  0.00  0.00     0.272 C 
BRANCH  19  20
HETATM   20  N   UNK N   1      36.318   9.138  15.413  0.00  0.00     0.087 N 
BRANCH  20  21
HETATM   21  C   UNK N   1      37.476  10.042  15.371  0.00  0.00     0.268 C 
HETATM   22  C   UNK N   1      38.630   9.402  14.625  0.00  0.00     0.037 C 
ENDBRANCH  20  21
BRANCH  20  23
HETATM   23  C   UNK N   1      36.242   8.321  16.634  0.00  0.00     0.268 C 
HETATM   24  C   UNK N   1      35.170   8.733  17.637  0.00  0.00     0.037 C 
ENDBRANCH  20  23
ENDBRANCH  19  20
ENDBRANCH  18  19
ENDBRANCH  17  18
ENDBRANCH  15  17
ENDBRANCH  13  15
ENDBRANCH   4  13
TORSDOF 8
ENDMDL
