REMARK  6 active torsions:
REMARK  status: ('A' for Active; 'I' for Inactive)
REMARK    1  A    between atoms: C_4  and  C_2 
REMARK    2  A    between atoms: O_19  and  C_2 
REMARK    3  A    between atoms: C_10  and  C_6 
REMARK    4  A    between atoms: C_8  and  O_20 
REMARK    5  A    between atoms: C_9  and  O_21 
REMARK    6  A    between atoms: N_12  and  C_11 
ROOT
HETATM    1  C   UNK N   1       6.650  -1.517   0.094  0.00  0.00     0.158 C 
HETATM    2  C   UNK N   1       5.235   0.442  -0.185  0.00  0.00     0.184 A 
HETATM    3  C   UNK N   1       2.908   0.290  -0.108  0.00  0.00     0.092 A 
HETATM    4  C   UNK N   1       1.575   0.606  -0.170  0.00  0.00     0.086 A 
HETATM    5  C   UNK N   1       2.970  -1.039   0.108  0.00  0.00     0.120 A 
HETATM    6  C   UNK N   1       4.198  -1.676   0.188  0.00  0.00     0.132 A 
HETATM    7  N   UNK N   1       4.014   1.055  -0.260  0.00  0.00    -0.349 N 
HETATM    8  N   UNK N   1       0.867  -0.539   0.001  0.00  0.00    -0.299 N 
ATOM      9  HN  UNK N   1      -0.150  -0.618  -0.009  1.00  0.00     0.186 HD
HETATM   10  N   UNK N   1       1.724  -1.545   0.185  0.00  0.00    -0.295 N 
ATOM     11  HN  UNK N   1       1.480  -2.521   0.353  1.00  0.00     0.187 HD
HETATM   12  N   UNK N   1       5.330  -0.911   0.036  0.00  0.00    -0.332 N 
HETATM   13  H   UNK N   1       3.942   2.023  -0.421  0.00  0.00     0.167 HD
ENDROOT
BRANCH   4  14
HETATM   14  C   UNK N   1       0.983   1.955  -0.473  0.00  0.00     0.207 C 
HETATM   15  C   UNK N   1      -0.250   2.285   0.337  0.00  0.00     0.184 C 
HETATM   16  C   UNK N   1      -0.348   3.785   0.138  0.00  0.00     0.180 C 
HETATM   17  C   UNK N   1       1.107   4.159  -0.210  0.00  0.00     0.177 C 
HETATM   18  O   UNK N   1       1.887   2.984  -0.146  0.00  0.00    -0.367 OA
BRANCH  15  19
HETATM   19  O   UNK N   1      -1.391   1.594  -0.087  0.00  0.00    -0.390 OA
HETATM   20  H   UNK N   1      -2.201   2.039  -0.380  0.00  0.00     0.210 HD
ENDBRANCH  15  19
BRANCH  16  21
HETATM   21  O   UNK N   1      -1.174   4.106  -0.944  0.00  0.00    -0.390 OA
HETATM   22  H   UNK N   1      -1.267   4.713  -1.695  0.00  0.00     0.210 HD
ENDBRANCH  16  21
BRANCH  17  23
HETATM   23  C   UNK N   1       1.670   5.241   0.700  0.00  0.00     0.198 C 
BRANCH  23  24
HETATM   24  O   UNK N   1       1.031   6.457   0.442  0.00  0.00    -0.398 OA
HETATM   25  H   UNK N   1       1.541   7.262   0.264  0.00  0.00     0.209 HD
ENDBRANCH  23  24
ENDBRANCH  17  23
ENDBRANCH   4  14
BRANCH   6  26
HETATM   26  N   UNK N   1       4.278  -3.070   0.404  0.00  0.00    -0.383 N 
HETATM   27  H   UNK N   1       3.465  -3.604   0.554  0.00  0.00     0.157 HD
HETATM   28  H   UNK N   1       5.157  -3.513   0.404  0.00  0.00     0.157 HD
ENDBRANCH   6  26
TORSDOF 6
