MODEL 1
REMARK VINA RESULT:      -5.6      0.000      0.000
REMARK  20 active torsions:
REMARK  status: ('A' for Active; 'I' for Inactive)
REMARK    1  A    between atoms: C_8  and  C_6 
REMARK    2  A    between atoms: C_9  and  C_7 
REMARK    3  A    between atoms: C_10  and  C_8 
REMARK    4  A    between atoms: C_11  and  C_9 
REMARK    5  A    between atoms: C_12  and  C_10 
REMARK    6  A    between atoms: C_13  and  C_11 
REMARK    7  A    between atoms: C_20  and  C_12 
REMARK    8  A    between atoms: C_21  and  C_13 
REMARK    9  A    between atoms: C_17  and  C_14 
REMARK   10  A    between atoms: C_19  and  C_14 
REMARK   11  A    between atoms: C_16  and  C_15 
REMARK   12  A    between atoms: N_22  and  C_15 
REMARK   13  A    between atoms: O_28  and  C_16 
REMARK   14  A    between atoms: P_30  and  C_17 
REMARK   15  A    between atoms: C_19  and  C_18 
REMARK   16  A    between atoms: O_27  and  C_18 
REMARK   17  A    between atoms: C_19  and  O_29 
REMARK   18  A    between atoms: O_27  and  C_20 
REMARK   19  A    between atoms: O_29  and  C_21 
REMARK   20  A    between atoms: P_30  and  O_28 
ROOT
HETATM    1  C   UNK N   1      20.987  17.255   2.921  0.00  0.00     0.156 C 
ENDROOT
BRANCH   1   2
HETATM    2  C   UNK N   1      19.562  17.834   3.063  0.00  0.00     0.047 C 
BRANCH   2   3
HETATM    3  C   UNK N   1      19.441  19.321   2.662  0.00  0.00     0.138 C 
BRANCH   3   4
HETATM    4  P   UNK N   1      21.094  20.141   2.283  0.00  0.00     0.249 P 
HETATM    5  O   UNK N   1      20.740  21.433   1.504  0.00  0.00    -0.646 OA
HETATM    6  O   UNK N   1      20.339  20.773   3.706  0.00  0.00    -0.646 OA
BRANCH   4   7
HETATM    7  O   UNK N   1      22.341  20.760   3.318  0.00  0.00    -0.310 OA
BRANCH   7   8
HETATM    8  C   UNK N   1      23.550  20.286   2.830  0.00  0.00     0.207 C 
BRANCH   8   9
HETATM    9  C   UNK N   1      24.167  19.390   3.898  0.00  0.00     0.262 C 
BRANCH   9  10
HETATM   10  N   UNK N   1      25.611  19.583   4.033  0.00  0.00    -0.077 N 
HETATM   11  C   UNK N   1      26.037  20.527   3.019  0.00  0.00     0.271 C 
HETATM   12  C   UNK N   1      26.309  18.326   3.813  0.00  0.00     0.271 C 
HETATM   13  C   UNK N   1      25.971  20.126   5.336  0.00  0.00     0.271 C 
ENDBRANCH   9  10
ENDBRANCH   8   9
ENDBRANCH   7   8
ENDBRANCH   4   7
ENDBRANCH   3   4
ENDBRANCH   2   3
ENDBRANCH   1   2
BRANCH   1  14
HETATM   14  C   UNK N   1      21.379  16.710   4.289  0.00  0.00     0.211 C 
BRANCH  14  15
HETATM   15  O   UNK N   1      20.573  17.215   5.286  0.00  0.00    -0.319 OA
BRANCH  15  16
HETATM   16  C   UNK N   1      21.035  17.516   6.524  0.00  0.00     0.258 C 
HETATM   17  O   UNK N   1      21.582  18.590   6.713  0.00  0.00    -0.265 OA
BRANCH  16  18
HETATM   18  C   UNK N   1      20.924  16.541   7.655  0.00  0.00     0.111 C 
BRANCH  18  19
HETATM   19  C   UNK N   1      19.506  16.579   8.198  0.00  0.00     0.010 C 
BRANCH  19  20
HETATM   20  C   UNK N   1      19.304  17.791   9.078  0.00  0.00     0.000 C 
BRANCH  20  21
HETATM   21  C   UNK N   1      17.956  17.687   9.760  0.00  0.00    -0.005 C 
HETATM   22  C   UNK N   1      16.940  17.132   8.788  0.00  0.00     0.005 C 
ENDBRANCH  20  21
ENDBRANCH  19  20
ENDBRANCH  18  19
ENDBRANCH  16  18
ENDBRANCH  15  16
ENDBRANCH  14  15
ENDBRANCH   1  14
BRANCH   1  23
HETATM   23  O   UNK N   1      21.084  16.224   2.004  0.00  0.00    -0.314 OA
BRANCH  23  24
HETATM   24  C   UNK N   1      20.296  16.003   0.920  0.00  0.00     0.259 C 
HETATM   25  O   UNK N   1      20.323  16.805  -0.002  0.00  0.00    -0.265 OA
BRANCH  24  26
HETATM   26  C   UNK N   1      19.467  14.764   0.777  0.00  0.00     0.111 C 
BRANCH  26  27
HETATM   27  C   UNK N   1      20.368  13.537   0.651  0.00  0.00     0.010 C 
BRANCH  27  28
HETATM   28  C   UNK N   1      19.835  12.354   1.447  0.00  0.00     0.000 C 
BRANCH  28  29
HETATM   29  C   UNK N   1      19.700  11.133   0.556  0.00  0.00    -0.005 C 
HETATM   30  C   UNK N   1      18.419  11.233  -0.246  0.00  0.00     0.005 C 
ENDBRANCH  28  29
ENDBRANCH  27  28
ENDBRANCH  26  27
ENDBRANCH  24  26
ENDBRANCH  23  24
ENDBRANCH   1  23
TORSDOF 20
ENDMDL
MODEL 2
REMARK VINA RESULT:      -5.4      3.420      6.966
REMARK  20 active torsions:
REMARK  status: ('A' for Active; 'I' for Inactive)
REMARK    1  A    between atoms: C_8  and  C_6 
REMARK    2  A    between atoms: C_9  and  C_7 
REMARK    3  A    between atoms: C_10  and  C_8 
REMARK    4  A    between atoms: C_11  and  C_9 
REMARK    5  A    between atoms: C_12  and  C_10 
REMARK    6  A    between atoms: C_13  and  C_11 
REMARK    7  A    between atoms: C_20  and  C_12 
REMARK    8  A    between atoms: C_21  and  C_13 
REMARK    9  A    between atoms: C_17  and  C_14 
REMARK   10  A    between atoms: C_19  and  C_14 
REMARK   11  A    between atoms: C_16  and  C_15 
REMARK   12  A    between atoms: N_22  and  C_15 
REMARK   13  A    between atoms: O_28  and  C_16 
REMARK   14  A    between atoms: P_30  and  C_17 
REMARK   15  A    between atoms: C_19  and  C_18 
REMARK   16  A    between atoms: O_27  and  C_18 
REMARK   17  A    between atoms: C_19  and  O_29 
REMARK   18  A    between atoms: O_27  and  C_20 
REMARK   19  A    between atoms: O_29  and  C_21 
REMARK   20  A    between atoms: P_30  and  O_28 
ROOT
HETATM    1  C   UNK N   1      22.144  17.756   4.954  0.00  0.00     0.156 C 
ENDROOT
BRANCH   1   2
HETATM    2  C   UNK N   1      22.416  16.545   5.873  0.00  0.00     0.047 C 
BRANCH   2   3
HETATM    3  C   UNK N   1      21.150  15.750   6.262  0.00  0.00     0.138 C 
BRANCH   3   4
HETATM    4  P   UNK N   1      21.006  15.410   8.109  0.00  0.00     0.249 P 
HETATM    5  O   UNK N   1      20.554  16.752   8.738  0.00  0.00    -0.646 OA
HETATM    6  O   UNK N   1      19.494  15.271   7.279  0.00  0.00    -0.646 OA
BRANCH   4   7
HETATM    7  O   UNK N   1      20.002  14.317   9.009  0.00  0.00    -0.310 OA
BRANCH   7   8
HETATM    8  C   UNK N   1      20.829  13.634   9.889  0.00  0.00     0.207 C 
BRANCH   8   9
HETATM    9  C   UNK N   1      22.263  13.777   9.391  0.00  0.00     0.262 C 
BRANCH   9  10
HETATM   10  N   UNK N   1      23.125  12.679   9.826  0.00  0.00    -0.077 N 
HETATM   11  C   UNK N   1      22.956  11.577   8.899  0.00  0.00     0.271 C 
HETATM   12  C   UNK N   1      22.736  12.228  11.152  0.00  0.00     0.271 C 
HETATM   13  C   UNK N   1      24.532  13.056   9.828  0.00  0.00     0.271 C 
ENDBRANCH   9  10
ENDBRANCH   8   9
ENDBRANCH   7   8
ENDBRANCH   4   7
ENDBRANCH   3   4
ENDBRANCH   2   3
ENDBRANCH   1   2
BRANCH   1  14
HETATM   14  C   UNK N   1      23.397  18.623   4.985  0.00  0.00     0.211 C 
BRANCH  14  15
HETATM   15  O   UNK N   1      23.877  18.868   3.717  0.00  0.00    -0.319 OA
BRANCH  15  16
HETATM   16  C   UNK N   1      24.182  20.111   3.273  0.00  0.00     0.258 C 
HETATM   17  O   UNK N   1      23.281  20.890   3.011  0.00  0.00    -0.265 OA
BRANCH  16  18
HETATM   18  C   UNK N   1      25.602  20.534   3.057  0.00  0.00     0.111 C 
BRANCH  18  19
HETATM   19  C   UNK N   1      26.523  19.437   3.563  0.00  0.00     0.010 C 
BRANCH  19  20
HETATM   20  C   UNK N   1      27.645  20.022   4.389  0.00  0.00     0.000 C 
BRANCH  20  21
HETATM   21  C   UNK N   1      27.062  20.988   5.399  0.00  0.00    -0.005 C 
HETATM   22  C   UNK N   1      27.252  20.437   6.794  0.00  0.00     0.005 C 
ENDBRANCH  20  21
ENDBRANCH  19  20
ENDBRANCH  18  19
ENDBRANCH  16  18
ENDBRANCH  15  16
ENDBRANCH  14  15
ENDBRANCH   1  14
BRANCH   1  23
HETATM   23  O   UNK N   1      21.890  17.416   3.637  0.00  0.00    -0.314 OA
BRANCH  23  24
HETATM   24  C   UNK N   1      20.701  17.472   2.983  0.00  0.00     0.259 C 
HETATM   25  O   UNK N   1      19.970  18.434   3.169  0.00  0.00    -0.265 OA
BRANCH  24  26
HETATM   26  C   UNK N   1      20.300  16.443   1.972  0.00  0.00     0.111 C 
BRANCH  26  27
HETATM   27  C   UNK N   1      21.347  15.334   1.901  0.00  0.00     0.010 C 
BRANCH  27  28
HETATM   28  C   UNK N   1      20.925  14.210   0.966  0.00  0.00     0.000 C 
BRANCH  28  29
HETATM   29  C   UNK N   1      19.459  14.351   0.596  0.00  0.00    -0.005 C 
HETATM   30  C   UNK N   1      18.864  12.978   0.362  0.00  0.00     0.005 C 
ENDBRANCH  28  29
ENDBRANCH  27  28
ENDBRANCH  26  27
ENDBRANCH  24  26
ENDBRANCH  23  24
ENDBRANCH   1  23
TORSDOF 20
ENDMDL
MODEL 3
REMARK VINA RESULT:      -5.4     11.120     14.944
REMARK  20 active torsions:
REMARK  status: ('A' for Active; 'I' for Inactive)
REMARK    1  A    between atoms: C_8  and  C_6 
REMARK    2  A    between atoms: C_9  and  C_7 
REMARK    3  A    between atoms: C_10  and  C_8 
REMARK    4  A    between atoms: C_11  and  C_9 
REMARK    5  A    between atoms: C_12  and  C_10 
REMARK    6  A    between atoms: C_13  and  C_11 
REMARK    7  A    between atoms: C_20  and  C_12 
REMARK    8  A    between atoms: C_21  and  C_13 
REMARK    9  A    between atoms: C_17  and  C_14 
REMARK   10  A    between atoms: C_19  and  C_14 
REMARK   11  A    between atoms: C_16  and  C_15 
REMARK   12  A    between atoms: N_22  and  C_15 
REMARK   13  A    between atoms: O_28  and  C_16 
REMARK   14  A    between atoms: P_30  and  C_17 
REMARK   15  A    between atoms: C_19  and  C_18 
REMARK   16  A    between atoms: O_27  and  C_18 
REMARK   17  A    between atoms: C_19  and  O_29 
REMARK   18  A    between atoms: O_27  and  C_20 
REMARK   19  A    between atoms: O_29  and  C_21 
REMARK   20  A    between atoms: P_30  and  O_28 
ROOT
HETATM    1  C   UNK N   1      34.062  15.044   6.905  0.00  0.00     0.156 C 
ENDROOT
BRANCH   1   2
HETATM    2  C   UNK N   1      35.268  15.153   7.864  0.00  0.00     0.047 C 
BRANCH   2   3
HETATM    3  C   UNK N   1      34.983  14.655   9.299  0.00  0.00     0.138 C 
BRANCH   3   4
HETATM    4  P   UNK N   1      35.958  15.569  10.626  0.00  0.00     0.249 P 
HETATM    5  O   UNK N   1      35.563  17.059  10.470  0.00  0.00    -0.646 OA
HETATM    6  O   UNK N   1      34.347  15.178  11.123  0.00  0.00    -0.646 OA
BRANCH   4   7
HETATM    7  O   UNK N   1      35.949  15.447  12.357  0.00  0.00    -0.310 OA
BRANCH   7   8
HETATM    8  C   UNK N   1      35.463  14.188  12.675  0.00  0.00     0.207 C 
BRANCH   8   9
HETATM    9  C   UNK N   1      36.629  13.353  13.192  0.00  0.00     0.262 C 
BRANCH   9  10
HETATM   10  N   UNK N   1      36.798  12.100  12.457  0.00  0.00    -0.077 N 
HETATM   11  C   UNK N   1      37.786  12.316  11.418  0.00  0.00     0.271 C 
HETATM   12  C   UNK N   1      35.546  11.714  11.827  0.00  0.00     0.271 C 
HETATM   13  C   UNK N   1      37.272  11.022  13.314  0.00  0.00     0.271 C 
ENDBRANCH   9  10
ENDBRANCH   8   9
ENDBRANCH   7   8
ENDBRANCH   4   7
ENDBRANCH   3   4
ENDBRANCH   2   3
ENDBRANCH   1   2
BRANCH   1  14
HETATM   14  C   UNK N   1      33.056  14.111   7.569  0.00  0.00     0.211 C 
BRANCH  14  15
HETATM   15  O   UNK N   1      31.759  14.465   7.263  0.00  0.00    -0.319 OA
BRANCH  15  16
HETATM   16  C   UNK N   1      31.180  14.179   6.073  0.00  0.00     0.258 C 
HETATM   17  O   UNK N   1      31.542  13.193   5.453  0.00  0.00    -0.265 OA
BRANCH  16  18
HETATM   18  C   UNK N   1      30.131  15.071   5.482  0.00  0.00     0.111 C 
BRANCH  18  19
HETATM   19  C   UNK N   1      30.708  15.764   4.260  0.00  0.00     0.010 C 
BRANCH  19  20
HETATM   20  C   UNK N   1      30.839  17.250   4.502  0.00  0.00     0.000 C 
BRANCH  20  21
HETATM   21  C   UNK N   1      32.141  17.735   3.900  0.00  0.00    -0.005 C 
HETATM   22  C   UNK N   1      32.829  16.589   3.194  0.00  0.00     0.005 C 
ENDBRANCH  20  21
ENDBRANCH  19  20
ENDBRANCH  18  19
ENDBRANCH  16  18
ENDBRANCH  15  16
ENDBRANCH  14  15
ENDBRANCH   1  14
BRANCH   1  23
HETATM   23  O   UNK N   1      33.432  16.250   6.657  0.00  0.00    -0.314 OA
BRANCH  23  24
HETATM   24  C   UNK N   1      33.614  17.428   7.308  0.00  0.00     0.259 C 
HETATM   25  O   UNK N   1      34.418  18.232   6.860  0.00  0.00    -0.265 OA
BRANCH  24  26
HETATM   26  C   UNK N   1      32.795  17.812   8.501  0.00  0.00     0.111 C 
BRANCH  26  27
HETATM   27  C   UNK N   1      31.306  17.659   8.194  0.00  0.00     0.010 C 
BRANCH  27  28
HETATM   28  C   UNK N   1      30.453  18.614   9.016  0.00  0.00     0.000 C 
BRANCH  28  29
HETATM   29  C   UNK N   1      29.258  17.886   9.602  0.00  0.00    -0.005 C 
HETATM   30  C   UNK N   1      28.278  17.550   8.496  0.00  0.00     0.005 C 
ENDBRANCH  28  29
ENDBRANCH  27  28
ENDBRANCH  26  27
ENDBRANCH  24  26
ENDBRANCH  23  24
ENDBRANCH   1  23
TORSDOF 20
ENDMDL
MODEL 4
REMARK VINA RESULT:      -5.4     13.392     16.269
REMARK  20 active torsions:
REMARK  status: ('A' for Active; 'I' for Inactive)
REMARK    1  A    between atoms: C_8  and  C_6 
REMARK    2  A    between atoms: C_9  and  C_7 
REMARK    3  A    between atoms: C_10  and  C_8 
REMARK    4  A    between atoms: C_11  and  C_9 
REMARK    5  A    between atoms: C_12  and  C_10 
REMARK    6  A    between atoms: C_13  and  C_11 
REMARK    7  A    between atoms: C_20  and  C_12 
REMARK    8  A    between atoms: C_21  and  C_13 
REMARK    9  A    between atoms: C_17  and  C_14 
REMARK   10  A    between atoms: C_19  and  C_14 
REMARK   11  A    between atoms: C_16  and  C_15 
REMARK   12  A    between atoms: N_22  and  C_15 
REMARK   13  A    between atoms: O_28  and  C_16 
REMARK   14  A    between atoms: P_30  and  C_17 
REMARK   15  A    between atoms: C_19  and  C_18 
REMARK   16  A    between atoms: O_27  and  C_18 
REMARK   17  A    between atoms: C_19  and  O_29 
REMARK   18  A    between atoms: O_27  and  C_20 
REMARK   19  A    between atoms: O_29  and  C_21 
REMARK   20  A    between atoms: P_30  and  O_28 
ROOT
HETATM    1  C   UNK N   1      36.037  15.582  10.856  0.00  0.00     0.156 C 
ENDROOT
BRANCH   1   2
HETATM    2  C   UNK N   1      35.334  16.870  10.372  0.00  0.00     0.047 C 
BRANCH   2   3
HETATM    3  C   UNK N   1      34.227  16.630   9.322  0.00  0.00     0.138 C 
BRANCH   3   4
HETATM    4  P   UNK N   1      34.031  18.042   8.091  0.00  0.00     0.249 P 
HETATM    5  O   UNK N   1      35.205  19.009   8.389  0.00  0.00    -0.646 OA
HETATM    6  O   UNK N   1      35.144  16.830   7.555  0.00  0.00    -0.646 OA
BRANCH   4   7
HETATM    7  O   UNK N   1      34.062  18.076   6.356  0.00  0.00    -0.310 OA
BRANCH   7   8
HETATM    8  C   UNK N   1      33.509  16.883   5.915  0.00  0.00     0.207 C 
BRANCH   8   9
HETATM    9  C   UNK N   1      32.092  17.174   5.431  0.00  0.00     0.262 C 
BRANCH   9  10
HETATM   10  N   UNK N   1      31.090  16.323   6.070  0.00  0.00    -0.077 N 
HETATM   11  C   UNK N   1      31.768  15.171   6.633  0.00  0.00     0.271 C 
HETATM   12  C   UNK N   1      30.127  15.853   5.086  0.00  0.00     0.271 C 
HETATM   13  C   UNK N   1      30.395  17.011   7.149  0.00  0.00     0.271 C 
ENDBRANCH   9  10
ENDBRANCH   8   9
ENDBRANCH   7   8
ENDBRANCH   4   7
ENDBRANCH   3   4
ENDBRANCH   2   3
ENDBRANCH   1   2
BRANCH   1  14
HETATM   14  C   UNK N   1      35.257  15.082  12.066  0.00  0.00     0.211 C 
BRANCH  14  15
HETATM   15  O   UNK N   1      36.098  14.641  13.064  0.00  0.00    -0.319 OA
BRANCH  15  16
HETATM   16  C   UNK N   1      35.721  13.734  13.997  0.00  0.00     0.258 C 
HETATM   17  O   UNK N   1      34.610  13.234  13.930  0.00  0.00    -0.265 OA
BRANCH  16  18
HETATM   18  C   UNK N   1      36.623  13.363  15.133  0.00  0.00     0.111 C 
BRANCH  18  19
HETATM   19  C   UNK N   1      35.777  12.852  16.285  0.00  0.00     0.010 C 
BRANCH  19  20
HETATM   20  C   UNK N   1      36.037  11.383  16.528  0.00  0.00     0.000 C 
BRANCH  20  21
HETATM   21  C   UNK N   1      35.368  10.970  17.822  0.00  0.00    -0.005 C 
HETATM   22  C   UNK N   1      34.680   9.638  17.632  0.00  0.00     0.005 C 
ENDBRANCH  20  21
ENDBRANCH  19  20
ENDBRANCH  18  19
ENDBRANCH  16  18
ENDBRANCH  15  16
ENDBRANCH  14  15
ENDBRANCH   1  14
BRANCH   1  23
HETATM   23  O   UNK N   1      36.063  14.569   9.913  0.00  0.00    -0.314 OA
BRANCH  23  24
HETATM   24  C   UNK N   1      36.106  13.230  10.138  0.00  0.00     0.259 C 
HETATM   25  O   UNK N   1      37.188  12.704  10.355  0.00  0.00    -0.265 OA
BRANCH  24  26
HETATM   26  C   UNK N   1      34.865  12.397  10.223  0.00  0.00     0.111 C 
BRANCH  26  27
HETATM   27  C   UNK N   1      35.168  11.064  10.905  0.00  0.00     0.010 C 
BRANCH  27  28
HETATM   28  C   UNK N   1      33.910  10.403  11.449  0.00  0.00     0.000 C 
BRANCH  28  29
HETATM   29  C   UNK N   1      34.086  10.053  12.915  0.00  0.00    -0.005 C 
HETATM   30  C   UNK N   1      35.561   9.891  13.221  0.00  0.00     0.005 C 
ENDBRANCH  28  29
ENDBRANCH  27  28
ENDBRANCH  26  27
ENDBRANCH  24  26
ENDBRANCH  23  24
ENDBRANCH   1  23
TORSDOF 20
ENDMDL
MODEL 5
REMARK VINA RESULT:      -5.3     12.313     15.238
REMARK  20 active torsions:
REMARK  status: ('A' for Active; 'I' for Inactive)
REMARK    1  A    between atoms: C_8  and  C_6 
REMARK    2  A    between atoms: C_9  and  C_7 
REMARK    3  A    between atoms: C_10  and  C_8 
REMARK    4  A    between atoms: C_11  and  C_9 
REMARK    5  A    between atoms: C_12  and  C_10 
REMARK    6  A    between atoms: C_13  and  C_11 
REMARK    7  A    between atoms: C_20  and  C_12 
REMARK    8  A    between atoms: C_21  and  C_13 
REMARK    9  A    between atoms: C_17  and  C_14 
REMARK   10  A    between atoms: C_19  and  C_14 
REMARK   11  A    between atoms: C_16  and  C_15 
REMARK   12  A    between atoms: N_22  and  C_15 
REMARK   13  A    between atoms: O_28  and  C_16 
REMARK   14  A    between atoms: P_30  and  C_17 
REMARK   15  A    between atoms: C_19  and  C_18 
REMARK   16  A    between atoms: O_27  and  C_18 
REMARK   17  A    between atoms: C_19  and  O_29 
REMARK   18  A    between atoms: O_27  and  C_20 
REMARK   19  A    between atoms: O_29  and  C_21 
REMARK   20  A    between atoms: P_30  and  O_28 
ROOT
HETATM    1  C   UNK N   1      26.943  24.828  -3.811  0.00  0.00     0.156 C 
ENDROOT
BRANCH   1   2
HETATM    2  C   UNK N   1      27.944  23.962  -3.015  0.00  0.00     0.047 C 
BRANCH   2   3
HETATM    3  C   UNK N   1      29.134  23.442  -3.852  0.00  0.00     0.138 C 
BRANCH   3   4
HETATM    4  P   UNK N   1      30.660  23.031  -2.827  0.00  0.00     0.249 P 
HETATM    5  O   UNK N   1      30.194  23.113  -1.351  0.00  0.00    -0.646 OA
HETATM    6  O   UNK N   1      29.636  21.661  -3.090  0.00  0.00    -0.646 OA
BRANCH   4   7
HETATM    7  O   UNK N   1      31.645  21.605  -2.740  0.00  0.00    -0.310 OA
BRANCH   7   8
HETATM    8  C   UNK N   1      31.388  20.862  -3.883  0.00  0.00     0.207 C 
BRANCH   8   9
HETATM    9  C   UNK N   1      32.403  21.271  -4.945  0.00  0.00     0.262 C 
BRANCH   9  10
HETATM   10  N   UNK N   1      31.813  21.379  -6.279  0.00  0.00    -0.077 N 
HETATM   11  C   UNK N   1      30.546  20.673  -6.272  0.00  0.00     0.271 C 
HETATM   12  C   UNK N   1      32.680  20.756  -7.266  0.00  0.00     0.271 C 
HETATM   13  C   UNK N   1      31.556  22.763  -6.653  0.00  0.00     0.271 C 
ENDBRANCH   9  10
ENDBRANCH   8   9
ENDBRANCH   7   8
ENDBRANCH   4   7
ENDBRANCH   3   4
ENDBRANCH   2   3
ENDBRANCH   1   2
BRANCH   1  14
HETATM   14  C   UNK N   1      25.821  23.901  -4.263  0.00  0.00     0.211 C 
BRANCH  14  15
HETATM   15  O   UNK N   1      25.609  23.987  -5.621  0.00  0.00    -0.319 OA
BRANCH  15  16
HETATM   16  C   UNK N   1      25.800  22.942  -6.463  0.00  0.00     0.258 C 
HETATM   17  O   UNK N   1      24.853  22.232  -6.759  0.00  0.00    -0.265 OA
BRANCH  16  18
HETATM   18  C   UNK N   1      27.157  22.616  -7.005  0.00  0.00     0.111 C 
BRANCH  18  19
HETATM   19  C   UNK N   1      27.852  23.908  -7.397  0.00  0.00     0.010 C 
BRANCH  19  20
HETATM   20  C   UNK N   1      27.389  24.371  -8.758  0.00  0.00     0.000 C 
BRANCH  20  21
HETATM   21  C   UNK N   1      27.279  25.882  -8.754  0.00  0.00    -0.005 C 
HETATM   22  C   UNK N   1      25.960  26.290  -8.138  0.00  0.00     0.005 C 
ENDBRANCH  20  21
ENDBRANCH  19  20
ENDBRANCH  18  19
ENDBRANCH  16  18
ENDBRANCH  15  16
ENDBRANCH  14  15
ENDBRANCH   1  14
BRANCH   1  23
HETATM   23  O   UNK N   1      26.380  25.856  -3.074  0.00  0.00    -0.314 OA
BRANCH  23  24
HETATM   24  C   UNK N   1      26.368  27.180  -3.376  0.00  0.00     0.259 C 
HETATM   25  O   UNK N   1      25.459  27.875  -2.946  0.00  0.00    -0.265 OA
BRANCH  24  26
HETATM   26  C   UNK N   1      27.480  27.832  -4.138  0.00  0.00     0.111 C 
BRANCH  26  27
HETATM   27  C   UNK N   1      26.913  28.742  -5.227  0.00  0.00     0.010 C 
BRANCH  27  28
HETATM   28  C   UNK N   1      27.994  29.592  -5.880  0.00  0.00     0.000 C 
BRANCH  28  29
HETATM   29  C   UNK N   1      28.408  28.992  -7.211  0.00  0.00    -0.005 C 
HETATM   30  C   UNK N   1      29.740  28.287  -7.053  0.00  0.00     0.005 C 
ENDBRANCH  28  29
ENDBRANCH  27  28
ENDBRANCH  26  27
ENDBRANCH  24  26
ENDBRANCH  23  24
ENDBRANCH   1  23
TORSDOF 20
ENDMDL
MODEL 6
REMARK VINA RESULT:      -5.3     12.767     16.606
REMARK  20 active torsions:
REMARK  status: ('A' for Active; 'I' for Inactive)
REMARK    1  A    between atoms: C_8  and  C_6 
REMARK    2  A    between atoms: C_9  and  C_7 
REMARK    3  A    between atoms: C_10  and  C_8 
REMARK    4  A    between atoms: C_11  and  C_9 
REMARK    5  A    between atoms: C_12  and  C_10 
REMARK    6  A    between atoms: C_13  and  C_11 
REMARK    7  A    between atoms: C_20  and  C_12 
REMARK    8  A    between atoms: C_21  and  C_13 
REMARK    9  A    between atoms: C_17  and  C_14 
REMARK   10  A    between atoms: C_19  and  C_14 
REMARK   11  A    between atoms: C_16  and  C_15 
REMARK   12  A    between atoms: N_22  and  C_15 
REMARK   13  A    between atoms: O_28  and  C_16 
REMARK   14  A    between atoms: P_30  and  C_17 
REMARK   15  A    between atoms: C_19  and  C_18 
REMARK   16  A    between atoms: O_27  and  C_18 
REMARK   17  A    between atoms: C_19  and  O_29 
REMARK   18  A    between atoms: O_27  and  C_20 
REMARK   19  A    between atoms: O_29  and  C_21 
REMARK   20  A    between atoms: P_30  and  O_28 
ROOT
HETATM    1  C   UNK N   1      35.282  16.192   9.760  0.00  0.00     0.156 C 
ENDROOT
BRANCH   1   2
HETATM    2  C   UNK N   1      36.040  15.942  11.082  0.00  0.00     0.047 C 
BRANCH   2   3
HETATM    3  C   UNK N   1      36.308  14.451  11.385  0.00  0.00     0.138 C 
BRANCH   3   4
HETATM    4  P   UNK N   1      36.047  13.986  13.192  0.00  0.00     0.249 P 
HETATM    5  O   UNK N   1      34.628  13.366  13.253  0.00  0.00    -0.646 OA
HETATM    6  O   UNK N   1      36.602  12.660  12.228  0.00  0.00    -0.646 OA
BRANCH   4   7
HETATM    7  O   UNK N   1      36.889  12.884  14.235  0.00  0.00    -0.310 OA
BRANCH   7   8
HETATM    8  C   UNK N   1      35.939  12.039  14.789  0.00  0.00     0.207 C 
BRANCH   8   9
HETATM    9  C   UNK N   1      36.659  10.796  15.302  0.00  0.00     0.262 C 
BRANCH   9  10
HETATM   10  N   UNK N   1      36.322   9.593  14.542  0.00  0.00    -0.077 N 
HETATM   11  C   UNK N   1      37.328   9.412  13.513  0.00  0.00     0.271 C 
HETATM   12  C   UNK N   1      35.028   9.751  13.897  0.00  0.00     0.271 C 
HETATM   13  C   UNK N   1      36.313   8.402  15.380  0.00  0.00     0.271 C 
ENDBRANCH   9  10
ENDBRANCH   8   9
ENDBRANCH   7   8
ENDBRANCH   4   7
ENDBRANCH   3   4
ENDBRANCH   2   3
ENDBRANCH   1   2
BRANCH   1  14
HETATM   14  C   UNK N   1      34.179  15.143   9.679  0.00  0.00     0.211 C 
BRANCH  14  15
HETATM   15  O   UNK N   1      34.132  14.552   8.435  0.00  0.00    -0.319 OA
BRANCH  15  16
HETATM   16  C   UNK N   1      32.985  14.086   7.885  0.00  0.00     0.258 C 
HETATM   17  O   UNK N   1      32.184  13.492   8.587  0.00  0.00    -0.265 OA
BRANCH  16  18
HETATM   18  C   UNK N   1      32.700  14.248   6.424  0.00  0.00     0.111 C 
BRANCH  18  19
HETATM   19  C   UNK N   1      33.875  14.955   5.771  0.00  0.00     0.010 C 
BRANCH  19  20
HETATM   20  C   UNK N   1      33.518  15.400   4.371  0.00  0.00     0.000 C 
BRANCH  20  21
HETATM   21  C   UNK N   1      32.259  16.239   4.426  0.00  0.00    -0.005 C 
HETATM   22  C   UNK N   1      32.509  17.570   3.754  0.00  0.00     0.005 C 
ENDBRANCH  20  21
ENDBRANCH  19  20
ENDBRANCH  18  19
ENDBRANCH  16  18
ENDBRANCH  15  16
ENDBRANCH  14  15
ENDBRANCH   1  14
BRANCH   1  23
HETATM   23  O   UNK N   1      34.692  17.441   9.679  0.00  0.00    -0.314 OA
BRANCH  23  24
HETATM   24  C   UNK N   1      34.526  18.207   8.569  0.00  0.00     0.259 C 
HETATM   25  O   UNK N   1      35.395  19.014   8.274  0.00  0.00    -0.265 OA
BRANCH  24  26
HETATM   26  C   UNK N   1      33.361  18.028   7.646  0.00  0.00     0.111 C 
BRANCH  26  27
HETATM   27  C   UNK N   1      32.070  17.865   8.448  0.00  0.00     0.010 C 
BRANCH  27  28
HETATM   28  C   UNK N   1      30.930  17.332   7.591  0.00  0.00     0.000 C 
BRANCH  28  29
HETATM   29  C   UNK N   1      29.644  17.278   8.395  0.00  0.00    -0.005 C 
HETATM   30  C   UNK N   1      29.526  18.528   9.243  0.00  0.00     0.005 C 
ENDBRANCH  28  29
ENDBRANCH  27  28
ENDBRANCH  26  27
ENDBRANCH  24  26
ENDBRANCH  23  24
ENDBRANCH   1  23
TORSDOF 20
ENDMDL
MODEL 7
REMARK VINA RESULT:      -5.3      2.543      6.573
REMARK  20 active torsions:
REMARK  status: ('A' for Active; 'I' for Inactive)
REMARK    1  A    between atoms: C_8  and  C_6 
REMARK    2  A    between atoms: C_9  and  C_7 
REMARK    3  A    between atoms: C_10  and  C_8 
REMARK    4  A    between atoms: C_11  and  C_9 
REMARK    5  A    between atoms: C_12  and  C_10 
REMARK    6  A    between atoms: C_13  and  C_11 
REMARK    7  A    between atoms: C_20  and  C_12 
REMARK    8  A    between atoms: C_21  and  C_13 
REMARK    9  A    between atoms: C_17  and  C_14 
REMARK   10  A    between atoms: C_19  and  C_14 
REMARK   11  A    between atoms: C_16  and  C_15 
REMARK   12  A    between atoms: N_22  and  C_15 
REMARK   13  A    between atoms: O_28  and  C_16 
REMARK   14  A    between atoms: P_30  and  C_17 
REMARK   15  A    between atoms: C_19  and  C_18 
REMARK   16  A    between atoms: O_27  and  C_18 
REMARK   17  A    between atoms: C_19  and  O_29 
REMARK   18  A    between atoms: O_27  and  C_20 
REMARK   19  A    between atoms: O_29  and  C_21 
REMARK   20  A    between atoms: P_30  and  O_28 
ROOT
HETATM    1  C   UNK N   1      21.363  18.705   3.207  0.00  0.00     0.156 C 
ENDROOT
BRANCH   1   2
HETATM    2  C   UNK N   1      19.933  18.460   2.676  0.00  0.00     0.047 C 
BRANCH   2   3
HETATM    3  C   UNK N   1      19.867  17.530   1.444  0.00  0.00     0.138 C 
BRANCH   3   4
HETATM    4  P   UNK N   1      20.711  15.866   1.704  0.00  0.00     0.249 P 
HETATM    5  O   UNK N   1      19.558  14.843   1.864  0.00  0.00    -0.646 OA
HETATM    6  O   UNK N   1      20.259  16.142   0.057  0.00  0.00    -0.646 OA
BRANCH   4   7
HETATM    7  O   UNK N   1      21.779  14.941   0.697  0.00  0.00    -0.310 OA
BRANCH   7   8
HETATM    8  C   UNK N   1      22.627  14.237   1.538  0.00  0.00     0.207 C 
BRANCH   8   9
HETATM    9  C   UNK N   1      24.061  14.518   1.100  0.00  0.00     0.262 C 
BRANCH   9  10
HETATM   10  N   UNK N   1      24.957  14.774   2.227  0.00  0.00    -0.077 N 
HETATM   11  C   UNK N   1      26.164  15.392   1.713  0.00  0.00     0.271 C 
HETATM   12  C   UNK N   1      25.321  13.525   2.876  0.00  0.00     0.271 C 
HETATM   13  C   UNK N   1      24.365  15.681   3.202  0.00  0.00     0.271 C 
ENDBRANCH   9  10
ENDBRANCH   8   9
ENDBRANCH   7   8
ENDBRANCH   4   7
ENDBRANCH   3   4
ENDBRANCH   2   3
ENDBRANCH   1   2
BRANCH   1  14
HETATM   14  C   UNK N   1      21.758  20.113   2.776  0.00  0.00     0.211 C 
BRANCH  14  15
HETATM   15  O   UNK N   1      22.853  20.569   3.477  0.00  0.00    -0.319 OA
BRANCH  15  16
HETATM   16  C   UNK N   1      24.123  20.443   3.020  0.00  0.00     0.258 C 
HETATM   17  O   UNK N   1      24.402  20.857   1.908  0.00  0.00    -0.265 OA
BRANCH  16  18
HETATM   18  C   UNK N   1      25.181  19.769   3.838  0.00  0.00     0.111 C 
BRANCH  18  19
HETATM   19  C   UNK N   1      26.543  20.250   3.369  0.00  0.00     0.010 C 
BRANCH  19  20
HETATM   20  C   UNK N   1      27.548  20.184   4.495  0.00  0.00     0.000 C 
BRANCH  20  21
HETATM   21  C   UNK N   1      27.111  21.120   5.602  0.00  0.00    -0.005 C 
HETATM   22  C   UNK N   1      27.208  20.409   6.933  0.00  0.00     0.005 C 
ENDBRANCH  20  21
ENDBRANCH  19  20
ENDBRANCH  18  19
ENDBRANCH  16  18
ENDBRANCH  15  16
ENDBRANCH  14  15
ENDBRANCH   1  14
BRANCH   1  23
HETATM   23  O   UNK N   1      21.471  18.631   4.584  0.00  0.00    -0.314 OA
BRANCH  23  24
HETATM   24  C   UNK N   1      22.006  17.622   5.319  0.00  0.00     0.259 C 
HETATM   25  O   UNK N   1      23.107  17.782   5.827  0.00  0.00    -0.265 OA
BRANCH  24  26
HETATM   26  C   UNK N   1      21.254  16.359   5.605  0.00  0.00     0.111 C 
BRANCH  26  27
HETATM   27  C   UNK N   1      20.229  16.593   6.714  0.00  0.00     0.010 C 
BRANCH  27  28
HETATM   28  C   UNK N   1      20.823  16.364   8.096  0.00  0.00     0.000 C 
BRANCH  28  29
HETATM   29  C   UNK N   1      19.907  15.485   8.928  0.00  0.00    -0.005 C 
HETATM   30  C   UNK N   1      20.688  14.301   9.458  0.00  0.00     0.005 C 
ENDBRANCH  28  29
ENDBRANCH  27  28
ENDBRANCH  26  27
ENDBRANCH  24  26
ENDBRANCH  23  24
ENDBRANCH   1  23
TORSDOF 20
ENDMDL
MODEL 8
REMARK VINA RESULT:      -5.3      1.511      2.252
REMARK  20 active torsions:
REMARK  status: ('A' for Active; 'I' for Inactive)
REMARK    1  A    between atoms: C_8  and  C_6 
REMARK    2  A    between atoms: C_9  and  C_7 
REMARK    3  A    between atoms: C_10  and  C_8 
REMARK    4  A    between atoms: C_11  and  C_9 
REMARK    5  A    between atoms: C_12  and  C_10 
REMARK    6  A    between atoms: C_13  and  C_11 
REMARK    7  A    between atoms: C_20  and  C_12 
REMARK    8  A    between atoms: C_21  and  C_13 
REMARK    9  A    between atoms: C_17  and  C_14 
REMARK   10  A    between atoms: C_19  and  C_14 
REMARK   11  A    between atoms: C_16  and  C_15 
REMARK   12  A    between atoms: N_22  and  C_15 
REMARK   13  A    between atoms: O_28  and  C_16 
REMARK   14  A    between atoms: P_30  and  C_17 
REMARK   15  A    between atoms: C_19  and  C_18 
REMARK   16  A    between atoms: O_27  and  C_18 
REMARK   17  A    between atoms: C_19  and  O_29 
REMARK   18  A    between atoms: O_27  and  C_20 
REMARK   19  A    between atoms: O_29  and  C_21 
REMARK   20  A    between atoms: P_30  and  O_28 
ROOT
HETATM    1  C   UNK N   1      20.824  17.137   2.780  0.00  0.00     0.156 C 
ENDROOT
BRANCH   1   2
HETATM    2  C   UNK N   1      19.567  18.018   2.951  0.00  0.00     0.047 C 
BRANCH   2   3
HETATM    3  C   UNK N   1      19.830  19.533   2.799  0.00  0.00     0.138 C 
BRANCH   3   4
HETATM    4  P   UNK N   1      21.522  19.939   2.078  0.00  0.00     0.249 P 
HETATM    5  O   UNK N   1      21.233  20.760   0.796  0.00  0.00    -0.646 OA
HETATM    6  O   UNK N   1      20.884  21.215   3.058  0.00  0.00    -0.646 OA
BRANCH   4   7
HETATM    7  O   UNK N   1      22.859  20.848   2.708  0.00  0.00    -0.310 OA
BRANCH   7   8
HETATM    8  C   UNK N   1      23.666  19.960   3.402  0.00  0.00     0.207 C 
BRANCH   8   9
HETATM    9  C   UNK N   1      25.119  20.329   3.123  0.00  0.00     0.262 C 
BRANCH   9  10
HETATM   10  N   UNK N   1      26.059  19.639   4.005  0.00  0.00    -0.077 N 
HETATM   11  C   UNK N   1      25.900  18.211   3.806  0.00  0.00     0.271 C 
HETATM   12  C   UNK N   1      25.761  19.944   5.395  0.00  0.00     0.271 C 
HETATM   13  C   UNK N   1      27.442  19.985   3.710  0.00  0.00     0.271 C 
ENDBRANCH   9  10
ENDBRANCH   8   9
ENDBRANCH   7   8
ENDBRANCH   4   7
ENDBRANCH   3   4
ENDBRANCH   2   3
ENDBRANCH   1   2
BRANCH   1  14
HETATM   14  C   UNK N   1      21.024  16.394   4.095  0.00  0.00     0.211 C 
BRANCH  14  15
HETATM   15  O   UNK N   1      19.827  16.180   4.743  0.00  0.00    -0.319 OA
BRANCH  15  16
HETATM   16  C   UNK N   1      19.717  16.144   6.093  0.00  0.00     0.258 C 
HETATM   17  O   UNK N   1      18.611  16.078   6.601  0.00  0.00    -0.265 OA
BRANCH  16  18
HETATM   18  C   UNK N   1      20.925  16.225   6.975  0.00  0.00     0.111 C 
BRANCH  18  19
HETATM   19  C   UNK N   1      20.561  15.701   8.353  0.00  0.00     0.010 C 
BRANCH  19  20
HETATM   20  C   UNK N   1      20.732  14.201   8.416  0.00  0.00     0.000 C 
BRANCH  20  21
HETATM   21  C   UNK N   1      20.791  13.771   9.867  0.00  0.00    -0.005 C 
HETATM   22  C   UNK N   1      22.162  13.214  10.173  0.00  0.00     0.005 C 
ENDBRANCH  20  21
ENDBRANCH  19  20
ENDBRANCH  18  19
ENDBRANCH  16  18
ENDBRANCH  15  16
ENDBRANCH  14  15
ENDBRANCH   1  14
BRANCH   1  23
HETATM   23  O   UNK N   1      20.719  16.199   1.768  0.00  0.00    -0.314 OA
BRANCH  23  24
HETATM   24  C   UNK N   1      20.035  16.315   0.600  0.00  0.00     0.259 C 
HETATM   25  O   UNK N   1      20.365  17.185  -0.193  0.00  0.00    -0.265 OA
BRANCH  24  26
HETATM   26  C   UNK N   1      18.953  15.355   0.213  0.00  0.00     0.111 C 
BRANCH  26  27
HETATM   27  C   UNK N   1      19.016  14.105   1.089  0.00  0.00     0.010 C 
BRANCH  27  28
HETATM   28  C   UNK N   1      19.513  12.892   0.317  0.00  0.00     0.000 C 
BRANCH  28  29
HETATM   29  C   UNK N   1      20.243  11.936   1.244  0.00  0.00    -0.005 C 
HETATM   30  C   UNK N   1      21.352  12.677   1.961  0.00  0.00     0.005 C 
ENDBRANCH  28  29
ENDBRANCH  27  28
ENDBRANCH  26  27
ENDBRANCH  24  26
ENDBRANCH  23  24
ENDBRANCH   1  23
TORSDOF 20
ENDMDL
MODEL 9
REMARK VINA RESULT:      -5.3     14.459     17.285
REMARK  20 active torsions:
REMARK  status: ('A' for Active; 'I' for Inactive)
REMARK    1  A    between atoms: C_8  and  C_6 
REMARK    2  A    between atoms: C_9  and  C_7 
REMARK    3  A    between atoms: C_10  and  C_8 
REMARK    4  A    between atoms: C_11  and  C_9 
REMARK    5  A    between atoms: C_12  and  C_10 
REMARK    6  A    between atoms: C_13  and  C_11 
REMARK    7  A    between atoms: C_20  and  C_12 
REMARK    8  A    between atoms: C_21  and  C_13 
REMARK    9  A    between atoms: C_17  and  C_14 
REMARK   10  A    between atoms: C_19  and  C_14 
REMARK   11  A    between atoms: C_16  and  C_15 
REMARK   12  A    between atoms: N_22  and  C_15 
REMARK   13  A    between atoms: O_28  and  C_16 
REMARK   14  A    between atoms: P_30  and  C_17 
REMARK   15  A    between atoms: C_19  and  C_18 
REMARK   16  A    between atoms: O_27  and  C_18 
REMARK   17  A    between atoms: C_19  and  O_29 
REMARK   18  A    between atoms: O_27  and  C_20 
REMARK   19  A    between atoms: O_29  and  C_21 
REMARK   20  A    between atoms: P_30  and  O_28 
ROOT
HETATM    1  C   UNK N   1      35.921  13.050  11.583  0.00  0.00     0.156 C 
ENDROOT
BRANCH   1   2
HETATM    2  C   UNK N   1      35.777  14.134  10.492  0.00  0.00     0.047 C 
BRANCH   2   3
HETATM    3  C   UNK N   1      34.434  14.896  10.532  0.00  0.00     0.138 C 
BRANCH   3   4
HETATM    4  P   UNK N   1      34.464  16.534   9.601  0.00  0.00     0.249 P 
HETATM    5  O   UNK N   1      35.606  17.353  10.253  0.00  0.00    -0.646 OA
HETATM    6  O   UNK N   1      35.612  15.391   8.991  0.00  0.00    -0.646 OA
BRANCH   4   7
HETATM    7  O   UNK N   1      34.755  16.909   7.932  0.00  0.00    -0.310 OA
BRANCH   7   8
HETATM    8  C   UNK N   1      33.791  17.828   7.546  0.00  0.00     0.207 C 
BRANCH   8   9
HETATM    9  C   UNK N   1      32.447  17.352   8.086  0.00  0.00     0.262 C 
BRANCH   9  10
HETATM   10  N   UNK N   1      31.576  16.814   7.042  0.00  0.00    -0.077 N 
HETATM   11  C   UNK N   1      31.649  15.367   7.093  0.00  0.00     0.271 C 
HETATM   12  C   UNK N   1      32.031  17.251   5.732  0.00  0.00     0.271 C 
HETATM   13  C   UNK N   1      30.186  17.204   7.235  0.00  0.00     0.271 C 
ENDBRANCH   9  10
ENDBRANCH   8   9
ENDBRANCH   7   8
ENDBRANCH   4   7
ENDBRANCH   3   4
ENDBRANCH   2   3
ENDBRANCH   1   2
BRANCH   1  14
HETATM   14  C   UNK N   1      36.386  13.760  12.849  0.00  0.00     0.211 C 
BRANCH  14  15
HETATM   15  O   UNK N   1      35.382  13.827  13.791  0.00  0.00    -0.319 OA
BRANCH  15  16
HETATM   16  C   UNK N   1      35.597  13.619  15.112  0.00  0.00     0.258 C 
HETATM   17  O   UNK N   1      36.664  13.948  15.603  0.00  0.00    -0.265 OA
BRANCH  16  18
HETATM   18  C   UNK N   1      34.568  12.955  15.974  0.00  0.00     0.111 C 
BRANCH  18  19
HETATM   19  C   UNK N   1      35.168  12.696  17.344  0.00  0.00     0.010 C 
BRANCH  19  20
HETATM   20  C   UNK N   1      35.272  11.212  17.609  0.00  0.00     0.000 C 
BRANCH  20  21
HETATM   21  C   UNK N   1      35.669  10.995  19.054  0.00  0.00    -0.005 C 
HETATM   22  C   UNK N   1      35.375  12.245  19.852  0.00  0.00     0.005 C 
ENDBRANCH  20  21
ENDBRANCH  19  20
ENDBRANCH  18  19
ENDBRANCH  16  18
ENDBRANCH  15  16
ENDBRANCH  14  15
ENDBRANCH   1  14
BRANCH   1  23
HETATM   23  O   UNK N   1      34.744  12.384  11.872  0.00  0.00    -0.314 OA
BRANCH  23  24
HETATM   24  C   UNK N   1      34.562  11.044  12.004  0.00  0.00     0.259 C 
HETATM   25  O   UNK N   1      34.914  10.308  11.094  0.00  0.00    -0.265 OA
BRANCH  24  26
HETATM   26  C   UNK N   1      34.034  10.433  13.265  0.00  0.00     0.111 C 
BRANCH  26  27
HETATM   27  C   UNK N   1      35.053   9.454  13.846  0.00  0.00     0.010 C 
BRANCH  27  28
HETATM   28  C   UNK N   1      36.323  10.157  14.302  0.00  0.00     0.000 C 
BRANCH  28  29
HETATM   29  C   UNK N   1      37.548   9.374  13.864  0.00  0.00    -0.005 C 
HETATM   30  C   UNK N   1      38.770   9.906  14.583  0.00  0.00     0.005 C 
ENDBRANCH  28  29
ENDBRANCH  27  28
ENDBRANCH  26  27
ENDBRANCH  24  26
ENDBRANCH  23  24
ENDBRANCH   1  23
TORSDOF 20
ENDMDL
