REMARK  7 active torsions:
REMARK  status: ('A' for Active; 'I' for Inactive)
REMARK    1  A    between atoms: C_2  and  N_1 
REMARK    2  A    between atoms: C_2  and  C_3 
REMARK    3  A    between atoms: C_2  and  C_14 
REMARK    4  A    between atoms: C_3  and  C_4 
REMARK    5  A    between atoms: C_7  and  O_8 
REMARK    6  A    between atoms: C_9  and  N_11 
REMARK    7  A    between atoms: C_14  and  O_15 
ROOT
HETATM    1  C   UNK N   1       1.388  -0.254  -0.154  0.00  0.00    -0.053 A 
HETATM    2  C   UNK N   1       0.176  -0.949  -0.141  0.00  0.00     0.010 A 
HETATM    3  C   UNK N   1      -1.030  -0.251  -0.004  0.00  0.00     0.039 A 
HETATM    4  C   UNK N   1      -1.033   1.144   0.117  0.00  0.00     0.098 A 
HETATM    5  C   UNK N   1       0.193   1.853   0.121  0.00  0.00     0.136 A 
HETATM    6  C   UNK N   1       1.383   1.136  -0.029  0.00  0.00     0.046 A 
ENDROOT
BRANCH   1   7
HETATM    7  C   UNK N   1       2.668  -0.980  -0.458  0.00  0.00     0.074 C 
BRANCH   7   8
HETATM    8  C   UNK N   1       3.871  -0.647   0.434  0.00  0.00     0.177 C 
BRANCH   8   9
HETATM    9  N   UNK N   1       4.133   0.786   0.433  0.00  0.00    -0.417 N 
HETATM   10  H   UNK N   1       5.094   1.129   0.433  0.00  0.00     0.150 HD
HETATM   11  H   UNK N   1       3.356   1.446   0.433  0.00  0.00     0.150 HD
ENDBRANCH   8   9
BRANCH   8  12
HETATM   12  C   UNK N   1       5.073  -1.366  -0.114  0.00  0.00     0.163 C 
HETATM   13  O   UNK N   1       5.098  -2.586  -0.130  0.00  0.00    -0.648 OA
BRANCH  12  14
HETATM   14  O   UNK N   1       6.120  -0.674  -0.606  0.00  0.00    -0.775 OA
HETATM   15  H   UNK N   1       6.901  -1.063  -0.949  0.00  0.00     0.167 HD
ENDBRANCH  12  14
ENDBRANCH   8  12
ENDBRANCH   7   8
ENDBRANCH   1   7
BRANCH   5  16
HETATM   16  N   UNK N   1       0.257   3.272   0.260  0.00  0.00    -0.113 N 
HETATM   17  O   UNK N   1       1.430   3.870   0.330  0.00  0.00    -0.532 OA
HETATM   18  O   UNK N   1      -0.736   3.929   0.323  0.00  0.00    -0.532 OA
ENDBRANCH   5  16
BRANCH   4  19
HETATM   19  O   UNK N   1      -2.208   1.787   0.229  0.00  0.00    -0.358 OA
HETATM   20  H   UNK N   1      -2.229   2.721   0.307  0.00  0.00     0.217 HD
ENDBRANCH   4  19
TORSDOF 7
