REMARK  3 active torsions:
REMARK  status: ('A' for Active; 'I' for Inactive)
REMARK    1  A    between atoms: N_2  and  C_3 
REMARK    2  A    between atoms: C_3  and  C_5 
REMARK    3  A    between atoms: C_5  and  O_6 
ROOT
HETATM    1  C   UNK N   1       1.679   0.441  -0.000  0.00  0.00     0.092 C 
HETATM    2  C   UNK N   1       2.913  -0.062  -0.000  0.00  0.00     0.050 C 
ENDROOT
BRANCH   1   3
HETATM    3  N   UNK N   1       1.528   1.857   0.000  0.00  0.00    -0.390 N 
HETATM    4  C   UNK N   1       0.253   2.525   0.000  0.00  0.00     0.146 C 
HETATM    5  H   UNK N   1       2.343   2.411   0.000  0.00  0.00     0.159 HD
ENDBRANCH   1   3
BRANCH   1   6
HETATM    6  C   UNK N   1       0.517  -0.491  -0.000  0.00  0.00     0.192 C 
HETATM    7  O   UNK N   1      -0.627  -0.066   0.000  0.00  0.00    -0.645 OA
BRANCH   6   8
HETATM    8  O   UNK N   1       0.721  -1.824  -0.000  0.00  0.00    -0.772 OA
HETATM    9  H   UNK N   1      -0.010  -2.410  -0.000  0.00  0.00     0.167 HD
ENDBRANCH   6   8
ENDBRANCH   1   6
TORSDOF 3
