MODEL 1
REMARK VINA RESULT:      -7.8      0.000      0.000
REMARK  9 active torsions:
REMARK  status: ('A' for Active; 'I' for Inactive)
REMARK    1  A    between atoms: C_16  and  C_13 
REMARK    2  A    between atoms: C_21  and  C_13 
REMARK    3  A    between atoms: C_17  and  C_14 
REMARK    4  A    between atoms: C_25  and  C_14 
REMARK    5  A    between atoms: C_22  and  C_18 
REMARK    6  A    between atoms: O_30  and  C_19 
REMARK    7  A    between atoms: O_31  and  C_20 
REMARK    8  A    between atoms: C_25  and  O_34 
REMARK    9  A    between atoms: O_34  and  O_33 
ROOT
HETATM    1  C   UNK N   1      26.758  17.053   3.293  0.00  0.00     0.131 C 
HETATM    2  C   UNK N   1      27.918  17.211   5.979  0.00  0.00     0.150 C 
HETATM    3  C   UNK N   1      26.230  17.910   4.182  0.00  0.00     0.055 C 
HETATM    4  C   UNK N   1      28.256  16.119   4.996  0.00  0.00     0.112 A 
HETATM    5  C   UNK N   1      28.333  15.184   3.023  0.00  0.00     0.288 A 
HETATM    6  C   UNK N   1      29.268  14.397   3.916  0.00  0.00     0.255 A 
HETATM    7  N   UNK N   1      26.728  17.946   5.535  0.00  0.00    -0.377 N 
HETATM    8  N   UNK N   1      29.122  15.176   5.153  0.00  0.00    -0.336 N 
ATOM      9  HN  UNK N   1      29.634  14.996   6.016  1.00  0.00     0.164 HD
HETATM   10  N   UNK N   1      27.749  16.150   3.717  0.00  0.00    -0.274 N 
HETATM   11  O   UNK N   1      28.109  14.966   1.841  0.00  0.00    -0.267 OA
HETATM   12  H   UNK N   1      26.244  18.493   6.196  0.00  0.00     0.160 HD
ENDROOT
BRANCH   6  13
HETATM   13  C   UNK N   1      30.721  14.458   3.416  0.00  0.00     0.113 C 
BRANCH  13  14
HETATM   14  C   UNK N   1      31.594  15.372   4.219  0.00  0.00    -0.053 A 
HETATM   15  C   UNK N   1      32.266  14.932   5.369  0.00  0.00     0.010 A 
HETATM   16  C   UNK N   1      33.104  15.815   6.065  0.00  0.00     0.037 A 
HETATM   17  C   UNK N   1      33.276  17.127   5.607  0.00  0.00     0.065 A 
HETATM   18  C   UNK N   1      32.604  17.561   4.463  0.00  0.00     0.037 A 
HETATM   19  C   UNK N   1      31.764  16.685   3.773  0.00  0.00     0.010 A 
BRANCH  17  20
HETATM   20  O   UNK N   1      34.086  17.972   6.265  0.00  0.00    -0.361 OA
HETATM   21  H   UNK N   1      34.602  18.622   5.830  0.00  0.00     0.217 HD
ENDBRANCH  17  20
ENDBRANCH  13  14
ENDBRANCH   6  13
BRANCH   6  22
HETATM   22  O   UNK N   1      28.795  13.078   4.118  0.00  0.00    -0.199 OA
BRANCH  22  23
HETATM   23  O   UNK N   1      29.681  12.451   4.872  0.00  0.00    -0.247 OA
HETATM   24  H   UNK N   1      30.493  12.904   5.147  0.00  0.00     0.253 HD
ENDBRANCH  22  23
ENDBRANCH   6  22
BRANCH   2  25
HETATM   25  C   UNK N   1      27.783  16.748   7.439  0.00  0.00     0.037 C 
BRANCH  25  26
HETATM   26  C   UNK N   1      28.957  17.165   8.356  0.00  0.00    -0.012 C 
HETATM   27  C   UNK N   1      28.670  18.457   9.088  0.00  0.00     0.005 C 
HETATM   28  C   UNK N   1      30.038  18.993   9.494  0.00  0.00     0.000 C 
HETATM   29  C   UNK N   1      31.069  18.207   8.700  0.00  0.00     0.000 C 
HETATM   30  C   UNK N   1      30.275  17.449   7.663  0.00  0.00     0.005 C 
ENDBRANCH  25  26
ENDBRANCH   2  25
BRANCH   3  31
HETATM   31  C   UNK N   1      25.112  18.788   3.750  0.00  0.00    -0.008 A 
HETATM   32  C   UNK N   1      23.784  18.442   4.066  0.00  0.00     0.016 A 
HETATM   33  C   UNK N   1      22.725  19.271   3.697  0.00  0.00     0.037 A 
HETATM   34  C   UNK N   1      22.979  20.460   3.016  0.00  0.00     0.065 A 
HETATM   35  C   UNK N   1      24.294  20.816   2.695  0.00  0.00     0.037 A 
HETATM   36  C   UNK N   1      25.359  19.982   3.058  0.00  0.00     0.016 A 
BRANCH  34  37
HETATM   37  O   UNK N   1      21.959  21.264   2.672  0.00  0.00    -0.361 OA
HETATM   38  H   UNK N   1      21.097  20.910   2.574  0.00  0.00     0.217 HD
ENDBRANCH  34  37
ENDBRANCH   3  31
TORSDOF 9
ENDMDL
MODEL 2
REMARK VINA RESULT:      -7.7      7.719     11.076
REMARK  9 active torsions:
REMARK  status: ('A' for Active; 'I' for Inactive)
REMARK    1  A    between atoms: C_16  and  C_13 
REMARK    2  A    between atoms: C_21  and  C_13 
REMARK    3  A    between atoms: C_17  and  C_14 
REMARK    4  A    between atoms: C_25  and  C_14 
REMARK    5  A    between atoms: C_22  and  C_18 
REMARK    6  A    between atoms: O_30  and  C_19 
REMARK    7  A    between atoms: O_31  and  C_20 
REMARK    8  A    between atoms: C_25  and  O_34 
REMARK    9  A    between atoms: O_34  and  O_33 
ROOT
HETATM    1  C   UNK N   1      21.065  14.228   8.041  0.00  0.00     0.131 C 
HETATM    2  C   UNK N   1      20.839  12.299   5.846  0.00  0.00     0.150 C 
HETATM    3  C   UNK N   1      21.503  12.972   8.228  0.00  0.00     0.055 C 
HETATM    4  C   UNK N   1      20.156  13.643   5.838  0.00  0.00     0.112 A 
HETATM    5  C   UNK N   1      19.800  15.689   6.520  0.00  0.00     0.288 A 
HETATM    6  C   UNK N   1      19.085  15.539   5.194  0.00  0.00     0.255 A 
HETATM    7  N   UNK N   1      21.326  11.982   7.194  0.00  0.00    -0.377 N 
HETATM    8  N   UNK N   1      19.462  14.155   4.879  0.00  0.00    -0.336 N 
ATOM      9  HN  UNK N   1      19.211  13.666   4.020  1.00  0.00     0.164 HD
HETATM   10  N   UNK N   1      20.375  14.542   6.857  0.00  0.00    -0.274 N 
HETATM   11  O   UNK N   1      19.836  16.695   7.212  0.00  0.00    -0.267 OA
HETATM   12  H   UNK N   1      21.544  11.045   7.402  0.00  0.00     0.160 HD
ENDROOT
BRANCH   6  13
HETATM   13  C   UNK N   1      19.647  16.499   4.132  0.00  0.00     0.113 C 
BRANCH  13  14
HETATM   14  C   UNK N   1      20.520  15.828   3.118  0.00  0.00    -0.053 A 
HETATM   15  C   UNK N   1      20.014  15.370   1.893  0.00  0.00     0.010 A 
HETATM   16  C   UNK N   1      20.880  14.784   0.959  0.00  0.00     0.037 A 
HETATM   17  C   UNK N   1      22.246  14.666   1.245  0.00  0.00     0.065 A 
HETATM   18  C   UNK N   1      22.744  15.123   2.467  0.00  0.00     0.037 A 
HETATM   19  C   UNK N   1      21.883  15.700   3.400  0.00  0.00     0.010 A 
BRANCH  17  20
HETATM   20  O   UNK N   1      23.079  14.115   0.348  0.00  0.00    -0.361 OA
HETATM   21  H   UNK N   1      22.836  13.388  -0.190  0.00  0.00     0.217 HD
ENDBRANCH  17  20
ENDBRANCH  13  14
ENDBRANCH   6  13
BRANCH   6  22
HETATM   22  O   UNK N   1      17.682  15.632   5.355  0.00  0.00    -0.199 OA
BRANCH  22  23
HETATM   23  O   UNK N   1      17.455  16.183   6.535  0.00  0.00    -0.247 OA
HETATM   24  H   UNK N   1      18.123  16.757   6.939  0.00  0.00     0.253 HD
ENDBRANCH  22  23
ENDBRANCH   6  22
BRANCH   2  25
HETATM   25  C   UNK N   1      20.006  11.147   5.262  0.00  0.00     0.037 C 
BRANCH  25  26
HETATM   26  C   UNK N   1      20.392  10.741   3.820  0.00  0.00    -0.012 C 
HETATM   27  C   UNK N   1      21.792  11.187   3.465  0.00  0.00     0.005 C 
HETATM   28  C   UNK N   1      21.825  11.207   1.941  0.00  0.00     0.000 C 
HETATM   29  C   UNK N   1      20.381  11.122   1.471  0.00  0.00     0.000 C 
HETATM   30  C   UNK N   1      19.549  11.339   2.712  0.00  0.00     0.005 C 
ENDBRANCH  25  26
ENDBRANCH   2  25
BRANCH   3  31
HETATM   31  C   UNK N   1      22.139  12.623   9.525  0.00  0.00    -0.008 A 
HETATM   32  C   UNK N   1      23.540  12.517   9.615  0.00  0.00     0.016 A 
HETATM   33  C   UNK N   1      24.156  12.223  10.830  0.00  0.00     0.037 A 
HETATM   34  C   UNK N   1      23.381  12.039  11.975  0.00  0.00     0.065 A 
HETATM   35  C   UNK N   1      21.987  12.141  11.900  0.00  0.00     0.037 A 
HETATM   36  C   UNK N   1      21.366  12.430  10.678  0.00  0.00     0.016 A 
BRANCH  34  37
HETATM   37  O   UNK N   1      23.976  11.767  13.148  0.00  0.00    -0.361 OA
HETATM   38  H   UNK N   1      24.810  12.144  13.348  0.00  0.00     0.217 HD
ENDBRANCH  34  37
ENDBRANCH   3  31
TORSDOF 9
ENDMDL
MODEL 3
REMARK VINA RESULT:      -7.7      5.388      9.069
REMARK  9 active torsions:
REMARK  status: ('A' for Active; 'I' for Inactive)
REMARK    1  A    between atoms: C_16  and  C_13 
REMARK    2  A    between atoms: C_21  and  C_13 
REMARK    3  A    between atoms: C_17  and  C_14 
REMARK    4  A    between atoms: C_25  and  C_14 
REMARK    5  A    between atoms: C_22  and  C_18 
REMARK    6  A    between atoms: O_30  and  C_19 
REMARK    7  A    between atoms: O_31  and  C_20 
REMARK    8  A    between atoms: C_25  and  O_34 
REMARK    9  A    between atoms: O_34  and  O_33 
ROOT
HETATM    1  C   UNK N   1      21.937  14.205   6.243  0.00  0.00     0.131 C 
HETATM    2  C   UNK N   1      23.674  16.370   5.303  0.00  0.00     0.150 C 
HETATM    3  C   UNK N   1      23.009  14.546   6.976  0.00  0.00     0.055 C 
HETATM    4  C   UNK N   1      22.606  15.737   4.447  0.00  0.00     0.112 A 
HETATM    5  C   UNK N   1      20.824  14.528   4.074  0.00  0.00     0.288 A 
HETATM    6  C   UNK N   1      21.087  15.323   2.812  0.00  0.00     0.255 A 
HETATM    7  N   UNK N   1      23.925  15.550   6.494  0.00  0.00    -0.377 N 
HETATM    8  N   UNK N   1      22.262  16.085   3.254  0.00  0.00    -0.336 N 
ATOM      9  HN  UNK N   1      22.739  16.792   2.696  1.00  0.00     0.164 HD
HETATM   10  N   UNK N   1      21.761  14.787   4.975  0.00  0.00    -0.274 N 
HETATM   11  O   UNK N   1      19.909  13.739   4.253  0.00  0.00    -0.267 OA
HETATM   12  H   UNK N   1      24.764  15.693   6.990  0.00  0.00     0.160 HD
ENDROOT
BRANCH   6  13
HETATM   13  C   UNK N   1      19.925  16.276   2.486  0.00  0.00     0.113 C 
BRANCH  13  14
HETATM   14  C   UNK N   1      20.294  17.725   2.575  0.00  0.00    -0.053 A 
HETATM   15  C   UNK N   1      20.446  18.376   3.808  0.00  0.00     0.010 A 
HETATM   16  C   UNK N   1      20.832  19.723   3.839  0.00  0.00     0.037 A 
HETATM   17  C   UNK N   1      21.072  20.412   2.644  0.00  0.00     0.065 A 
HETATM   18  C   UNK N   1      20.918  19.760   1.419  0.00  0.00     0.037 A 
HETATM   19  C   UNK N   1      20.528  18.421   1.386  0.00  0.00     0.010 A 
BRANCH  17  20
HETATM   20  O   UNK N   1      21.452  21.700   2.671  0.00  0.00    -0.361 OA
HETATM   21  H   UNK N   1      20.901  22.397   2.373  0.00  0.00     0.217 HD
ENDBRANCH  17  20
ENDBRANCH  13  14
ENDBRANCH   6  13
BRANCH   6  22
HETATM   22  O   UNK N   1      21.439  14.474   1.736  0.00  0.00    -0.199 OA
BRANCH  22  23
HETATM   23  O   UNK N   1      22.147  15.192   0.880  0.00  0.00    -0.247 OA
HETATM   24  H   UNK N   1      22.255  16.145   1.020  0.00  0.00     0.253 HD
ENDBRANCH  22  23
ENDBRANCH   6  22
BRANCH   2  25
HETATM   25  C   UNK N   1      24.979  16.708   4.565  0.00  0.00     0.037 C 
BRANCH  25  26
HETATM   26  C   UNK N   1      25.333  18.213   4.542  0.00  0.00    -0.012 C 
HETATM   27  C   UNK N   1      24.317  19.020   3.764  0.00  0.00     0.005 C 
HETATM   28  C   UNK N   1      25.042  20.306   3.384  0.00  0.00     0.000 C 
HETATM   29  C   UNK N   1      26.522  20.065   3.635  0.00  0.00     0.000 C 
HETATM   30  C   UNK N   1      26.644  18.579   3.877  0.00  0.00     0.005 C 
ENDBRANCH  25  26
ENDBRANCH   2  25
BRANCH   3  31
HETATM   31  C   UNK N   1      23.241  13.850   8.268  0.00  0.00    -0.008 A 
HETATM   32  C   UNK N   1      24.540  13.435   8.619  0.00  0.00     0.016 A 
HETATM   33  C   UNK N   1      24.782  12.810   9.841  0.00  0.00     0.037 A 
HETATM   34  C   UNK N   1      23.731  12.597  10.733  0.00  0.00     0.065 A 
HETATM   35  C   UNK N   1      22.435  13.002  10.396  0.00  0.00     0.037 A 
HETATM   36  C   UNK N   1      22.188  13.625   9.165  0.00  0.00     0.016 A 
BRANCH  34  37
HETATM   37  O   UNK N   1      23.967  12.004  11.915  0.00  0.00    -0.361 OA
HETATM   38  H   UNK N   1      24.414  11.181  11.945  0.00  0.00     0.217 HD
ENDBRANCH  34  37
ENDBRANCH   3  31
TORSDOF 9
ENDMDL
MODEL 4
REMARK VINA RESULT:      -7.3      8.408     12.738
REMARK  9 active torsions:
REMARK  status: ('A' for Active; 'I' for Inactive)
REMARK    1  A    between atoms: C_16  and  C_13 
REMARK    2  A    between atoms: C_21  and  C_13 
REMARK    3  A    between atoms: C_17  and  C_14 
REMARK    4  A    between atoms: C_25  and  C_14 
REMARK    5  A    between atoms: C_22  and  C_18 
REMARK    6  A    between atoms: O_30  and  C_19 
REMARK    7  A    between atoms: O_31  and  C_20 
REMARK    8  A    between atoms: C_25  and  O_34 
REMARK    9  A    between atoms: O_34  and  O_33 
ROOT
HETATM    1  C   UNK N   1      35.182  13.488  13.946  0.00  0.00     0.131 C 
HETATM    2  C   UNK N   1      34.928  10.948  12.506  0.00  0.00     0.150 C 
HETATM    3  C   UNK N   1      35.125  12.344  14.646  0.00  0.00     0.055 C 
HETATM    4  C   UNK N   1      34.743  12.293  11.848  0.00  0.00     0.112 A 
HETATM    5  C   UNK N   1      34.903  14.468  11.708  0.00  0.00     0.288 A 
HETATM    6  C   UNK N   1      34.552  13.964  10.323  0.00  0.00     0.255 A 
HETATM    7  N   UNK N   1      34.915  11.089  13.966  0.00  0.00    -0.377 N 
HETATM    8  N   UNK N   1      34.529  12.521  10.597  0.00  0.00    -0.336 N 
ATOM      9  HN  UNK N   1      34.367  11.800   9.895  1.00  0.00     0.164 HD
HETATM   10  N   UNK N   1      34.966  13.452  12.556  0.00  0.00    -0.274 N 
HETATM   11  O   UNK N   1      35.080  15.633  12.029  0.00  0.00    -0.267 OA
HETATM   12  H   UNK N   1      34.755  10.284  14.511  0.00  0.00     0.160 HD
ENDROOT
BRANCH   6  13
HETATM   13  C   UNK N   1      35.651  14.295   9.300  0.00  0.00     0.113 C 
BRANCH  13  14
HETATM   14  C   UNK N   1      35.204  15.231   8.220  0.00  0.00    -0.053 A 
HETATM   15  C   UNK N   1      35.089  14.819   6.885  0.00  0.00     0.010 A 
HETATM   16  C   UNK N   1      34.628  15.721   5.916  0.00  0.00     0.037 A 
HETATM   17  C   UNK N   1      34.275  17.026   6.284  0.00  0.00     0.065 A 
HETATM   18  C   UNK N   1      34.392  17.432   7.614  0.00  0.00     0.037 A 
HETATM   19  C   UNK N   1      34.857  16.537   8.578  0.00  0.00     0.010 A 
BRANCH  17  20
HETATM   20  O   UNK N   1      33.823  17.889   5.360  0.00  0.00    -0.361 OA
HETATM   21  H   UNK N   1      32.947  18.223   5.363  0.00  0.00     0.217 HD
ENDBRANCH  17  20
ENDBRANCH  13  14
ENDBRANCH   6  13
BRANCH   6  22
HETATM   22  O   UNK N   1      33.264  14.401   9.931  0.00  0.00    -0.199 OA
BRANCH  22  23
HETATM   23  O   UNK N   1      32.720  15.014  10.969  0.00  0.00    -0.247 OA
HETATM   24  H   UNK N   1      31.851  15.435  10.883  0.00  0.00     0.253 HD
ENDBRANCH  22  23
ENDBRANCH   6  22
BRANCH   2  25
HETATM   25  C   UNK N   1      33.950   9.859  12.036  0.00  0.00     0.037 C 
BRANCH  25  26
HETATM   26  C   UNK N   1      34.581   8.456  11.874  0.00  0.00    -0.012 C 
HETATM   27  C   UNK N   1      35.970   8.528  11.280  0.00  0.00     0.005 C 
HETATM   28  C   UNK N   1      36.224   7.139  10.705  0.00  0.00     0.000 C 
HETATM   29  C   UNK N   1      34.881   6.429  10.664  0.00  0.00     0.000 C 
HETATM   30  C   UNK N   1      33.858   7.504  10.943  0.00  0.00     0.005 C 
ENDBRANCH  25  26
ENDBRANCH   2  25
BRANCH   3  31
HETATM   31  C   UNK N   1      35.251  12.405  16.125  0.00  0.00    -0.008 A 
HETATM   32  C   UNK N   1      35.166  13.644  16.788  0.00  0.00     0.016 A 
HETATM   33  C   UNK N   1      35.249  13.717  18.177  0.00  0.00     0.037 A 
HETATM   34  C   UNK N   1      35.410  12.551  18.925  0.00  0.00     0.065 A 
HETATM   35  C   UNK N   1      35.498  11.313  18.280  0.00  0.00     0.037 A 
HETATM   36  C   UNK N   1      35.421  11.238  16.883  0.00  0.00     0.016 A 
BRANCH  34  37
HETATM   37  O   UNK N   1      35.479  12.621  20.265  0.00  0.00    -0.361 OA
HETATM   38  H   UNK N   1      35.263  13.420  20.704  0.00  0.00     0.217 HD
ENDBRANCH  34  37
ENDBRANCH   3  31
TORSDOF 9
ENDMDL
MODEL 5
REMARK VINA RESULT:      -7.3      3.010      5.650
REMARK  9 active torsions:
REMARK  status: ('A' for Active; 'I' for Inactive)
REMARK    1  A    between atoms: C_16  and  C_13 
REMARK    2  A    between atoms: C_21  and  C_13 
REMARK    3  A    between atoms: C_17  and  C_14 
REMARK    4  A    between atoms: C_25  and  C_14 
REMARK    5  A    between atoms: C_22  and  C_18 
REMARK    6  A    between atoms: O_30  and  C_19 
REMARK    7  A    between atoms: O_31  and  C_20 
REMARK    8  A    between atoms: C_25  and  O_34 
REMARK    9  A    between atoms: O_34  and  O_33 
ROOT
HETATM    1  C   UNK N   1      29.313  18.029   6.390  0.00  0.00     0.131 C 
HETATM    2  C   UNK N   1      31.247  16.785   4.573  0.00  0.00     0.150 C 
HETATM    3  C   UNK N   1      29.060  18.027   5.071  0.00  0.00     0.055 C 
HETATM    4  C   UNK N   1      31.543  17.073   6.023  0.00  0.00     0.112 A 
HETATM    5  C   UNK N   1      31.032  17.570   8.089  0.00  0.00     0.288 A 
HETATM    6  C   UNK N   1      32.465  17.081   8.098  0.00  0.00     0.255 A 
HETATM    7  N   UNK N   1      30.035  17.497   4.149  0.00  0.00    -0.377 N 
HETATM    8  N   UNK N   1      32.613  16.763   6.672  0.00  0.00    -0.336 N 
ATOM      9  HN  UNK N   1      33.447  16.352   6.252  1.00  0.00     0.164 HD
HETATM   10  N   UNK N   1      30.563  17.574   6.849  0.00  0.00    -0.274 N 
HETATM   11  O   UNK N   1      30.388  17.938   9.059  0.00  0.00    -0.267 OA
HETATM   12  H   UNK N   1      29.878  17.618   3.184  0.00  0.00     0.160 HD
ENDROOT
BRANCH   6  13
HETATM   13  C   UNK N   1      32.628  15.810   8.948  0.00  0.00     0.113 C 
BRANCH  13  14
HETATM   14  C   UNK N   1      34.042  15.537   9.355  0.00  0.00    -0.053 A 
HETATM   15  C   UNK N   1      34.572  16.023  10.560  0.00  0.00     0.010 A 
HETATM   16  C   UNK N   1      35.890  15.707  10.917  0.00  0.00     0.037 A 
HETATM   17  C   UNK N   1      36.671  14.902  10.077  0.00  0.00     0.065 A 
HETATM   18  C   UNK N   1      36.140  14.423   8.878  0.00  0.00     0.037 A 
HETATM   19  C   UNK N   1      34.830  14.742   8.519  0.00  0.00     0.010 A 
BRANCH  17  20
HETATM   20  O   UNK N   1      37.931  14.590  10.421  0.00  0.00    -0.361 OA
HETATM   21  H   UNK N   1      38.640  14.595   9.808  0.00  0.00     0.217 HD
ENDBRANCH  17  20
ENDBRANCH  13  14
ENDBRANCH   6  13
BRANCH   6  22
HETATM   22  O   UNK N   1      33.357  18.119   8.456  0.00  0.00    -0.199 OA
BRANCH  22  23
HETATM   23  O   UNK N   1      34.171  18.312   7.432  0.00  0.00    -0.247 OA
HETATM   24  H   UNK N   1      33.885  18.083   6.534  0.00  0.00     0.253 HD
ENDBRANCH  22  23
ENDBRANCH   6  22
BRANCH   2  25
HETATM   25  C   UNK N   1      32.417  17.043   3.610  0.00  0.00     0.037 C 
BRANCH  25  26
HETATM   26  C   UNK N   1      33.094  15.763   3.066  0.00  0.00    -0.012 C 
HETATM   27  C   UNK N   1      32.113  14.622   2.925  0.00  0.00     0.005 C 
HETATM   28  C   UNK N   1      32.972  13.363   2.909  0.00  0.00     0.000 C 
HETATM   29  C   UNK N   1      34.357  13.771   3.386  0.00  0.00     0.000 C 
HETATM   30  C   UNK N   1      34.189  15.170   3.929  0.00  0.00     0.005 C 
ENDBRANCH  25  26
ENDBRANCH   2  25
BRANCH   3  31
HETATM   31  C   UNK N   1      27.780  18.605   4.589  0.00  0.00    -0.008 A 
HETATM   32  C   UNK N   1      27.604  20.002   4.565  0.00  0.00     0.016 A 
HETATM   33  C   UNK N   1      26.422  20.563   4.085  0.00  0.00     0.037 A 
HETATM   34  C   UNK N   1      25.402  19.737   3.614  0.00  0.00     0.065 A 
HETATM   35  C   UNK N   1      25.563  18.347   3.633  0.00  0.00     0.037 A 
HETATM   36  C   UNK N   1      26.748  17.781   4.121  0.00  0.00     0.016 A 
BRANCH  34  37
HETATM   37  O   UNK N   1      24.268  20.279   3.141  0.00  0.00    -0.361 OA
HETATM   38  H   UNK N   1      24.297  21.086   2.666  0.00  0.00     0.217 HD
ENDBRANCH  34  37
ENDBRANCH   3  31
TORSDOF 9
ENDMDL
MODEL 6
REMARK VINA RESULT:      -7.3      9.914     13.241
REMARK  9 active torsions:
REMARK  status: ('A' for Active; 'I' for Inactive)
REMARK    1  A    between atoms: C_16  and  C_13 
REMARK    2  A    between atoms: C_21  and  C_13 
REMARK    3  A    between atoms: C_17  and  C_14 
REMARK    4  A    between atoms: C_25  and  C_14 
REMARK    5  A    between atoms: C_22  and  C_18 
REMARK    6  A    between atoms: O_30  and  C_19 
REMARK    7  A    between atoms: O_31  and  C_20 
REMARK    8  A    between atoms: C_25  and  O_34 
REMARK    9  A    between atoms: O_34  and  O_33 
ROOT
HETATM    1  C   UNK N   1      35.419  13.472  14.186  0.00  0.00     0.131 C 
HETATM    2  C   UNK N   1      34.808  10.970  12.788  0.00  0.00     0.150 C 
HETATM    3  C   UNK N   1      35.152  12.371  14.907  0.00  0.00     0.055 C 
HETATM    4  C   UNK N   1      34.868  12.308  12.097  0.00  0.00     0.112 A 
HETATM    5  C   UNK N   1      35.383  14.425  11.919  0.00  0.00     0.288 A 
HETATM    6  C   UNK N   1      35.005  13.948  10.533  0.00  0.00     0.255 A 
HETATM    7  N   UNK N   1      34.766  11.149  14.244  0.00  0.00    -0.377 N 
HETATM    8  N   UNK N   1      34.739  12.535  10.835  0.00  0.00    -0.336 N 
ATOM      9  HN  UNK N   1      34.487  11.831  10.142  1.00  0.00     0.164 HD
HETATM   10  N   UNK N   1      35.250  13.434  12.790  0.00  0.00    -0.274 N 
HETATM   11  O   UNK N   1      35.735  15.554  12.224  0.00  0.00    -0.267 OA
HETATM   12  H   UNK N   1      34.458  10.395  14.798  0.00  0.00     0.160 HD
ENDROOT
BRANCH   6  13
HETATM   13  C   UNK N   1      36.179  14.071   9.548  0.00  0.00     0.113 C 
BRANCH  13  14
HETATM   14  C   UNK N   1      36.830  12.762   9.224  0.00  0.00    -0.053 A 
HETATM   15  C   UNK N   1      36.408  11.973   8.144  0.00  0.00     0.010 A 
HETATM   16  C   UNK N   1      37.076  10.774   7.856  0.00  0.00     0.037 A 
HETATM   17  C   UNK N   1      38.165  10.372   8.640  0.00  0.00     0.065 A 
HETATM   18  C   UNK N   1      38.581  11.161   9.714  0.00  0.00     0.037 A 
HETATM   19  C   UNK N   1      37.913  12.350  10.005  0.00  0.00     0.010 A 
BRANCH  17  20
HETATM   20  O   UNK N   1      38.813   9.230   8.360  0.00  0.00    -0.361 OA
HETATM   21  H   UNK N   1      38.374   8.457   8.064  0.00  0.00     0.217 HD
ENDBRANCH  17  20
ENDBRANCH  13  14
ENDBRANCH   6  13
BRANCH   6  22
HETATM   22  O   UNK N   1      33.820  14.576  10.081  0.00  0.00    -0.199 OA
BRANCH  22  23
HETATM   23  O   UNK N   1      33.177  15.024  11.147  0.00  0.00    -0.247 OA
HETATM   24  H   UNK N   1      32.563  14.444  11.621  0.00  0.00     0.253 HD
ENDBRANCH  22  23
ENDBRANCH   6  22
BRANCH   2  25
HETATM   25  C   UNK N   1      33.684  10.040  12.302  0.00  0.00     0.037 C 
BRANCH  25  26
HETATM   26  C   UNK N   1      34.151   8.906  11.360  0.00  0.00    -0.012 C 
HETATM   27  C   UNK N   1      35.636   8.646  11.483  0.00  0.00     0.005 C 
HETATM   28  C   UNK N   1      36.021   7.939  10.189  0.00  0.00     0.000 C 
HETATM   29  C   UNK N   1      34.858   8.122   9.227  0.00  0.00     0.000 C 
HETATM   30  C   UNK N   1      33.968   9.154   9.876  0.00  0.00     0.005 C 
ENDBRANCH  25  26
ENDBRANCH   2  25
BRANCH   3  31
HETATM   31  C   UNK N   1      35.233  12.450  16.388  0.00  0.00    -0.008 A 
HETATM   32  C   UNK N   1      35.153  13.699  17.031  0.00  0.00     0.016 A 
HETATM   33  C   UNK N   1      35.194  13.790  18.422  0.00  0.00     0.037 A 
HETATM   34  C   UNK N   1      35.309  12.631  19.189  0.00  0.00     0.065 A 
HETATM   35  C   UNK N   1      35.391  11.382  18.564  0.00  0.00     0.037 A 
HETATM   36  C   UNK N   1      35.356  11.290  17.166  0.00  0.00     0.016 A 
BRANCH  34  37
HETATM   37  O   UNK N   1      35.337  12.718  20.529  0.00  0.00    -0.361 OA
HETATM   38  H   UNK N   1      34.575  12.499  21.029  0.00  0.00     0.217 HD
ENDBRANCH  34  37
ENDBRANCH   3  31
TORSDOF 9
ENDMDL
MODEL 7
REMARK VINA RESULT:      -7.3      9.288     13.874
REMARK  9 active torsions:
REMARK  status: ('A' for Active; 'I' for Inactive)
REMARK    1  A    between atoms: C_16  and  C_13 
REMARK    2  A    between atoms: C_21  and  C_13 
REMARK    3  A    between atoms: C_17  and  C_14 
REMARK    4  A    between atoms: C_25  and  C_14 
REMARK    5  A    between atoms: C_22  and  C_18 
REMARK    6  A    between atoms: O_30  and  C_19 
REMARK    7  A    between atoms: O_31  and  C_20 
REMARK    8  A    between atoms: C_25  and  O_34 
REMARK    9  A    between atoms: O_34  and  O_33 
ROOT
HETATM    1  C   UNK N   1      37.289  11.539  12.154  0.00  0.00     0.131 C 
HETATM    2  C   UNK N   1      35.810  12.617  14.443  0.00  0.00     0.150 C 
HETATM    3  C   UNK N   1      37.455  10.975  13.361  0.00  0.00     0.055 C 
HETATM    4  C   UNK N   1      35.900  13.320  13.113  0.00  0.00     0.112 A 
HETATM    5  C   UNK N   1      36.319  13.465  10.972  0.00  0.00     0.288 A 
HETATM    6  C   UNK N   1      35.528  14.700  11.348  0.00  0.00     0.255 A 
HETATM    7  N   UNK N   1      36.805  11.540  14.519  0.00  0.00    -0.377 N 
HETATM    8  N   UNK N   1      35.308  14.414  12.772  0.00  0.00    -0.336 N 
ATOM      9  HN  UNK N   1      34.761  14.998  13.404  1.00  0.00     0.164 HD
HETATM   10  N   UNK N   1      36.532  12.720  12.048  0.00  0.00    -0.274 N 
HETATM   11  O   UNK N   1      36.735  13.185   9.858  0.00  0.00    -0.267 OA
HETATM   12  H   UNK N   1      37.039  11.184  15.406  0.00  0.00     0.160 HD
ENDROOT
BRANCH   6  13
HETATM   13  C   UNK N   1      34.184  14.765  10.604  0.00  0.00     0.113 C 
BRANCH  13  14
HETATM   14  C   UNK N   1      34.228  15.588   9.354  0.00  0.00    -0.053 A 
HETATM   15  C   UNK N   1      34.568  15.031   8.113  0.00  0.00     0.010 A 
HETATM   16  C   UNK N   1      34.556  15.834   6.964  0.00  0.00     0.037 A 
HETATM   17  C   UNK N   1      34.198  17.185   7.056  0.00  0.00     0.065 A 
HETATM   18  C   UNK N   1      33.863  17.735   8.294  0.00  0.00     0.037 A 
HETATM   19  C   UNK N   1      33.880  16.938   9.439  0.00  0.00     0.010 A 
BRANCH  17  20
HETATM   20  O   UNK N   1      34.176  17.955   5.956  0.00  0.00    -0.361 OA
HETATM   21  H   UNK N   1      33.387  18.152   5.491  0.00  0.00     0.217 HD
ENDBRANCH  17  20
ENDBRANCH  13  14
ENDBRANCH   6  13
BRANCH   6  22
HETATM   22  O   UNK N   1      36.309  15.871  11.207  0.00  0.00    -0.199 OA
BRANCH  22  23
HETATM   23  O   UNK N   1      37.424  15.531  10.583  0.00  0.00    -0.247 OA
HETATM   24  H   UNK N   1      38.228  16.059  10.705  0.00  0.00     0.253 HD
ENDBRANCH  22  23
ENDBRANCH   6  22
BRANCH   2  25
HETATM   25  C   UNK N   1      35.886  13.541  15.669  0.00  0.00     0.037 C 
BRANCH  25  26
HETATM   26  C   UNK N   1      35.181  12.991  16.932  0.00  0.00    -0.012 C 
HETATM   27  C   UNK N   1      35.321  13.928  18.110  0.00  0.00     0.005 C 
HETATM   28  C   UNK N   1      35.074  13.059  19.337  0.00  0.00     0.000 C 
HETATM   29  C   UNK N   1      35.149  11.613  18.872  0.00  0.00     0.000 C 
HETATM   30  C   UNK N   1      35.711  11.678  17.472  0.00  0.00     0.005 C 
ENDBRANCH  25  26
ENDBRANCH   2  25
BRANCH   3  31
HETATM   31  C   UNK N   1      38.340   9.788  13.480  0.00  0.00    -0.008 A 
HETATM   32  C   UNK N   1      39.073   9.572  14.663  0.00  0.00     0.016 A 
HETATM   33  C   UNK N   1      39.883   8.447  14.804  0.00  0.00     0.037 A 
HETATM   34  C   UNK N   1      39.966   7.517  13.768  0.00  0.00     0.065 A 
HETATM   35  C   UNK N   1      39.245   7.719  12.586  0.00  0.00     0.037 A 
HETATM   36  C   UNK N   1      38.435   8.853  12.440  0.00  0.00     0.016 A 
BRANCH  34  37
HETATM   37  O   UNK N   1      40.738   6.427  13.909  0.00  0.00    -0.361 OA
HETATM   38  H   UNK N   1      41.244   6.309  14.690  0.00  0.00     0.217 HD
ENDBRANCH  34  37
ENDBRANCH   3  31
TORSDOF 9
ENDMDL
MODEL 8
REMARK VINA RESULT:      -7.2      3.297      4.988
REMARK  9 active torsions:
REMARK  status: ('A' for Active; 'I' for Inactive)
REMARK    1  A    between atoms: C_16  and  C_13 
REMARK    2  A    between atoms: C_21  and  C_13 
REMARK    3  A    between atoms: C_17  and  C_14 
REMARK    4  A    between atoms: C_25  and  C_14 
REMARK    5  A    between atoms: C_22  and  C_18 
REMARK    6  A    between atoms: O_30  and  C_19 
REMARK    7  A    between atoms: O_31  and  C_20 
REMARK    8  A    between atoms: C_25  and  O_34 
REMARK    9  A    between atoms: O_34  and  O_33 
ROOT
HETATM    1  C   UNK N   1      24.453  18.386   3.987  0.00  0.00     0.131 C 
HETATM    2  C   UNK N   1      24.883  16.276   5.974  0.00  0.00     0.150 C 
HETATM    3  C   UNK N   1      23.413  17.624   4.365  0.00  0.00     0.055 C 
HETATM    4  C   UNK N   1      26.009  17.011   5.293  0.00  0.00     0.112 A 
HETATM    5  C   UNK N   1      26.897  18.626   4.118  0.00  0.00     0.288 A 
HETATM    6  C   UNK N   1      28.042  17.874   4.763  0.00  0.00     0.255 A 
HETATM    7  N   UNK N   1      23.616  16.525   5.277  0.00  0.00    -0.377 N 
HETATM    8  N   UNK N   1      27.271  16.881   5.524  0.00  0.00    -0.336 N 
ATOM      9  HN  UNK N   1      27.678  16.186   6.150  1.00  0.00     0.164 HD
HETATM   10  N   UNK N   1      25.744  18.055   4.437  0.00  0.00    -0.274 N 
HETATM   11  O   UNK N   1      26.994  19.599   3.387  0.00  0.00    -0.267 OA
HETATM   12  H   UNK N   1      22.864  15.911   5.441  0.00  0.00     0.160 HD
ENDROOT
BRANCH   6  13
HETATM   13  C   UNK N   1      28.847  18.770   5.719  0.00  0.00     0.113 C 
BRANCH  13  14
HETATM   14  C   UNK N   1      29.064  18.165   7.071  0.00  0.00    -0.053 A 
HETATM   15  C   UNK N   1      30.172  17.352   7.349  0.00  0.00     0.010 A 
HETATM   16  C   UNK N   1      30.353  16.841   8.642  0.00  0.00     0.037 A 
HETATM   17  C   UNK N   1      29.434  17.150   9.653  0.00  0.00     0.065 A 
HETATM   18  C   UNK N   1      28.331  17.958   9.371  0.00  0.00     0.037 A 
HETATM   19  C   UNK N   1      28.147  18.462   8.083  0.00  0.00     0.010 A 
BRANCH  17  20
HETATM   20  O   UNK N   1      29.609  16.670  10.895  0.00  0.00    -0.361 OA
HETATM   21  H   UNK N   1      30.031  17.161  11.573  0.00  0.00     0.217 HD
ENDBRANCH  17  20
ENDBRANCH  13  14
ENDBRANCH   6  13
BRANCH   6  22
HETATM   22  O   UNK N   1      28.839  17.223   3.792  0.00  0.00    -0.199 OA
BRANCH  22  23
HETATM   23  O   UNK N   1      30.041  17.773   3.833  0.00  0.00    -0.247 OA
HETATM   24  H   UNK N   1      30.270  18.485   3.216  0.00  0.00     0.253 HD
ENDBRANCH  22  23
ENDBRANCH   6  22
BRANCH   2  25
HETATM   25  C   UNK N   1      25.125  14.772   6.183  0.00  0.00     0.037 C 
BRANCH  25  26
HETATM   26  C   UNK N   1      24.240  14.125   7.275  0.00  0.00    -0.012 C 
HETATM   27  C   UNK N   1      25.068  13.504   8.377  0.00  0.00     0.005 C 
HETATM   28  C   UNK N   1      24.142  12.494   9.045  0.00  0.00     0.000 C 
HETATM   29  C   UNK N   1      22.956  12.306   8.113  0.00  0.00     0.000 C 
HETATM   30  C   UNK N   1      23.356  12.980   6.823  0.00  0.00     0.005 C 
ENDBRANCH  25  26
ENDBRANCH   2  25
BRANCH   3  31
HETATM   31  C   UNK N   1      22.071  17.919   3.802  0.00  0.00    -0.008 A 
HETATM   32  C   UNK N   1      21.174  16.867   3.536  0.00  0.00     0.016 A 
HETATM   33  C   UNK N   1      19.898  17.127   3.038  0.00  0.00     0.037 A 
HETATM   34  C   UNK N   1      19.497  18.442   2.808  0.00  0.00     0.065 A 
HETATM   35  C   UNK N   1      20.379  19.498   3.067  0.00  0.00     0.037 A 
HETATM   36  C   UNK N   1      21.664  19.238   3.561  0.00  0.00     0.016 A 
BRANCH  34  37
HETATM   37  O   UNK N   1      18.263  18.693   2.339  0.00  0.00    -0.361 OA
HETATM   38  H   UNK N   1      17.548  18.138   2.583  0.00  0.00     0.217 HD
ENDBRANCH  34  37
ENDBRANCH   3  31
TORSDOF 9
ENDMDL
MODEL 9
REMARK VINA RESULT:      -7.2      6.684     11.359
REMARK  9 active torsions:
REMARK  status: ('A' for Active; 'I' for Inactive)
REMARK    1  A    between atoms: C_16  and  C_13 
REMARK    2  A    between atoms: C_21  and  C_13 
REMARK    3  A    between atoms: C_17  and  C_14 
REMARK    4  A    between atoms: C_25  and  C_14 
REMARK    5  A    between atoms: C_22  and  C_18 
REMARK    6  A    between atoms: O_30  and  C_19 
REMARK    7  A    between atoms: O_31  and  C_20 
REMARK    8  A    between atoms: C_25  and  O_34 
REMARK    9  A    between atoms: O_34  and  O_33 
ROOT
HETATM    1  C   UNK N   1      34.583  14.394  11.487  0.00  0.00     0.131 C 
HETATM    2  C   UNK N   1      37.163  14.705  10.133  0.00  0.00     0.150 C 
HETATM    3  C   UNK N   1      35.697  13.961  12.099  0.00  0.00     0.055 C 
HETATM    4  C   UNK N   1      35.839  14.914   9.444  0.00  0.00     0.112 A 
HETATM    5  C   UNK N   1      33.678  15.231   9.359  0.00  0.00     0.288 A 
HETATM    6  C   UNK N   1      34.219  15.534   7.978  0.00  0.00     0.255 A 
HETATM    7  N   UNK N   1      36.968  14.026  11.419  0.00  0.00    -0.377 N 
HETATM    8  N   UNK N   1      35.649  15.314   8.233  0.00  0.00    -0.336 N 
ATOM      9  HN  UNK N   1      36.390  15.459   7.547  1.00  0.00     0.164 HD
HETATM   10  N   UNK N   1      34.663  14.843  10.157  0.00  0.00    -0.274 N 
HETATM   11  O   UNK N   1      32.509  15.299   9.707  0.00  0.00    -0.267 OA
HETATM   12  H   UNK N   1      37.745  13.592  11.840  0.00  0.00     0.160 HD
ENDROOT
BRANCH   6  13
HETATM   13  C   UNK N   1      33.968  16.997   7.576  0.00  0.00     0.113 C 
BRANCH  13  14
HETATM   14  C   UNK N   1      32.954  17.155   6.486  0.00  0.00    -0.053 A 
HETATM   15  C   UNK N   1      33.328  17.388   5.155  0.00  0.00     0.010 A 
HETATM   16  C   UNK N   1      32.342  17.488   4.163  0.00  0.00     0.037 A 
HETATM   17  C   UNK N   1      30.990  17.348   4.502  0.00  0.00     0.065 A 
HETATM   18  C   UNK N   1      30.622  17.118   5.829  0.00  0.00     0.037 A 
HETATM   19  C   UNK N   1      31.602  17.024   6.817  0.00  0.00     0.010 A 
BRANCH  17  20
HETATM   20  O   UNK N   1      30.043  17.434   3.553  0.00  0.00    -0.361 OA
HETATM   21  H   UNK N   1      29.480  16.719   3.333  0.00  0.00     0.217 HD
ENDBRANCH  17  20
ENDBRANCH  13  14
ENDBRANCH   6  13
BRANCH   6  22
HETATM   22  O   UNK N   1      33.750  14.598   7.027  0.00  0.00    -0.199 OA
BRANCH  22  23
HETATM   23  O   UNK N   1      33.151  13.624   7.691  0.00  0.00    -0.247 OA
HETATM   24  H   UNK N   1      33.659  12.849   7.977  0.00  0.00     0.253 HD
ENDBRANCH  22  23
ENDBRANCH   6  22
BRANCH   2  25
HETATM   25  C   UNK N   1      38.232  14.001   9.280  0.00  0.00     0.037 C 
BRANCH  25  26
HETATM   26  C   UNK N   1      38.443  12.507   9.621  0.00  0.00    -0.012 C 
HETATM   27  C   UNK N   1      39.785  12.003   9.140  0.00  0.00     0.005 C 
HETATM   28  C   UNK N   1      39.631  10.489   9.057  0.00  0.00     0.000 C 
HETATM   29  C   UNK N   1      38.142  10.195   9.144  0.00  0.00     0.000 C 
HETATM   30  C   UNK N   1      37.466  11.536   8.990  0.00  0.00     0.005 C 
ENDBRANCH  25  26
ENDBRANCH   2  25
BRANCH   3  31
HETATM   31  C   UNK N   1      35.585  13.392  13.467  0.00  0.00    -0.008 A 
HETATM   32  C   UNK N   1      36.338  13.943  14.521  0.00  0.00     0.016 A 
HETATM   33  C   UNK N   1      36.221  13.443  15.817  0.00  0.00     0.037 A 
HETATM   34  C   UNK N   1      35.345  12.391  16.079  0.00  0.00     0.065 A 
HETATM   35  C   UNK N   1      34.591  11.833  15.041  0.00  0.00     0.037 A 
HETATM   36  C   UNK N   1      34.712  12.330  13.736  0.00  0.00     0.016 A 
BRANCH  34  37
HETATM   37  O   UNK N   1      35.224  11.918  17.331  0.00  0.00    -0.361 OA
HETATM   38  H   UNK N   1      34.373  11.788  17.702  0.00  0.00     0.217 HD
ENDBRANCH  34  37
ENDBRANCH   3  31
TORSDOF 9
ENDMDL
