REMARK  14 active torsions:
REMARK  status: ('A' for Active; 'I' for Inactive)
REMARK    1  A    between atoms: C_3  and  C_2 
REMARK    2  A    between atoms: O_17  and  C_2 
REMARK    3  A    between atoms: C_4  and  O_18 
REMARK    4  A    between atoms: C_5  and  O_7 
REMARK    5  A    between atoms: C_6  and  O_8 
REMARK    6  A    between atoms: P_20  and  O_9 
REMARK    7  A    between atoms: P_20  and  O_10 
REMARK    8  A    between atoms: P_21  and  O_12 
REMARK    9  A    between atoms: P_21  and  O_13 
REMARK   10  A    between atoms: P_22  and  O_15 
REMARK   11  A    between atoms: P_20  and  O_17 
REMARK   12  A    between atoms: P_22  and  O_18 
REMARK   13  A    between atoms: P_21  and  O_19 
REMARK   14  A    between atoms: P_22  and  O_19 
ROOT
HETATM    1  C   UNK N   1       1.719   1.260  -0.272  0.00  0.00     0.044 C 
HETATM    2  C   UNK N   1       0.530   2.230  -0.291  0.00  0.00     0.044 C 
HETATM    3  C   UNK N   1       1.108  -0.133  -0.098  0.00  0.00     0.165 C 
HETATM    4  C   UNK N   1      -0.663   1.371   0.132  0.00  0.00     0.155 C 
HETATM    5  C   UNK N   1      -0.336   0.058  -0.553  0.00  0.00     0.176 C 
ENDROOT
BRANCH   3   6
HETATM    6  O   UNK N   1       1.798  -1.093  -0.868  0.00  0.00    -0.289 OA
BRANCH   6   7
HETATM    7  P   UNK N   1       1.797  -2.620  -0.009  0.00  0.00     0.402 P 
HETATM    8  O   UNK N   1       3.298  -2.222  -0.008  0.00  0.00    -0.631 OA
BRANCH   7   9
HETATM    9  O   UNK N   1       1.208  -2.851  -1.626  0.00  0.00    -0.307 OA
HETATM   10  H   UNK N   1       0.932  -2.631  -2.530  0.00  0.00     0.222 HD
ENDBRANCH   7   9
BRANCH   7  11
HETATM   11  O   UNK N   1       2.574  -3.999  -0.731  0.00  0.00    -0.195 OA
BRANCH  11  12
HETATM   12  P   UNK N   1       2.145  -5.371   0.255  0.00  0.00     0.399 P 
HETATM   13  O   UNK N   1       2.786  -5.183   1.657  0.00  0.00    -0.631 OA
BRANCH  12  14
HETATM   14  O   UNK N   1       2.815  -6.829  -0.406  0.00  0.00    -0.307 OA
HETATM   15  H   UNK N   1       2.296  -7.560  -0.776  0.00  0.00     0.222 HD
ENDBRANCH  12  14
BRANCH  12  16
HETATM   16  O   UNK N   1       0.429  -5.528   0.467  0.00  0.00    -0.307 OA
HETATM   17  H   UNK N   1      -0.126  -4.741   0.585  0.00  0.00     0.222 HD
ENDBRANCH  12  16
ENDBRANCH  11  12
ENDBRANCH   7  11
ENDBRANCH   6   7
ENDBRANCH   3   6
BRANCH   5  18
HETATM   18  O   UNK N   1      -1.167  -0.983  -0.139  0.00  0.00    -0.390 OA
HETATM   19  H   UNK N   1      -2.083  -0.845   0.149  0.00  0.00     0.210 HD
ENDBRANCH   5  18
BRANCH   2  20
HETATM   20  C   UNK N   1       0.782   3.433   0.616  0.00  0.00     0.187 C 
BRANCH  20  21
HETATM   21  O   UNK N   1      -0.374   4.204   0.805  0.00  0.00    -0.297 OA
BRANCH  21  22
HETATM   22  P   UNK N   1      -0.228   5.582  -0.250  0.00  0.00     0.390 P 
HETATM   23  O   UNK N   1       0.302   6.182   1.080  0.00  0.00    -0.632 OA
BRANCH  22  24
HETATM   24  O   UNK N   1      -1.240   6.976  -0.041  0.00  0.00    -0.307 OA
HETATM   25  H   UNK N   1      -0.848   7.856   0.076  0.00  0.00     0.222 HD
ENDBRANCH  22  24
BRANCH  22  26
HETATM   26  O   UNK N   1      -1.893   5.134  -0.043  0.00  0.00    -0.307 OA
HETATM   27  H   UNK N   1      -2.575   5.814   0.073  0.00  0.00     0.222 HD
ENDBRANCH  22  26
ENDBRANCH  21  22
ENDBRANCH  20  21
ENDBRANCH   2  20
BRANCH   4  28
HETATM   28  O   UNK N   1      -1.882   1.908  -0.286  0.00  0.00    -0.392 OA
HETATM   29  H   UNK N   1      -1.983   2.828  -0.576  0.00  0.00     0.210 HD
ENDBRANCH   4  28
TORSDOF 14
