MODEL 1
REMARK VINA RESULT:      -5.2      0.000      0.000
REMARK  9 active torsions:
REMARK  status: ('A' for Active; 'I' for Inactive)
REMARK    1  A    between atoms: C_1  and  C_2 
REMARK    2  A    between atoms: C_2  and  C_3 
REMARK    3  A    between atoms: C_2  and  O_6 
REMARK    4  A    between atoms: C_3  and  C_4 
REMARK    5  A    between atoms: C_3  and  O_8 
REMARK    6  A    between atoms: C_4  and  O_5 
REMARK    7  A    between atoms: O_5  and  P_9 
REMARK    8  A    between atoms: P_9  and  O_10 
REMARK    9  A    between atoms: P_9  and  O_11 
ROOT
HETATM    1  C   UNK N   1      35.557  15.978  11.266  0.00  0.00     0.177 C 
ENDROOT
BRANCH   1   2
HETATM    2  C   UNK N   1      35.258  14.522  11.636  0.00  0.00     0.209 C 
BRANCH   2   3
HETATM    3  C   UNK N   1      35.742  14.178  13.010  0.00  0.00     0.265 C 
HETATM    4  O   UNK N   1      36.448  14.953  13.633  0.00  0.00    -0.304 OA
ENDBRANCH   2   3
BRANCH   2   5
HETATM    5  O   UNK N   1      33.883  14.291  11.575  0.00  0.00    -0.386 OA
HETATM    6  H   UNK N   1      33.246  14.817  12.084  0.00  0.00     0.210 HD
ENDBRANCH   2   5
ENDBRANCH   1   2
BRANCH   1   7
HETATM    7  C   UNK N   1      34.731  16.366  10.057  0.00  0.00     0.215 C 
BRANCH   7   8
HETATM    8  O   UNK N   1      35.254  17.517   9.461  0.00  0.00    -0.294 OA
BRANCH   8   9
HETATM    9  P   UNK N   1      34.053  17.974   8.289  0.00  0.00     0.390 P 
HETATM   10  O   UNK N   1      34.677  18.075   6.872  0.00  0.00    -0.632 OA
BRANCH   9  11
HETATM   11  O   UNK N   1      35.226  19.246   8.449  0.00  0.00    -0.307 OA
HETATM   12  H   UNK N   1      35.662  19.451   9.291  0.00  0.00     0.222 HD
ENDBRANCH   9  11
BRANCH   9  13
HETATM   13  O   UNK N   1      34.578  16.350   7.956  0.00  0.00    -0.307 OA
HETATM   14  H   UNK N   1      34.210  15.454   7.998  0.00  0.00     0.222 HD
ENDBRANCH   9  13
ENDBRANCH   8   9
ENDBRANCH   7   8
ENDBRANCH   1   7
BRANCH   1  15
HETATM   15  O   UNK N   1      36.904  16.131  10.938  0.00  0.00    -0.390 OA
HETATM   16  H   UNK N   1      37.247  16.963  10.575  0.00  0.00     0.210 HD
ENDBRANCH   1  15
TORSDOF 9
ENDMDL
MODEL 2
REMARK VINA RESULT:      -5.1      0.859      1.725
REMARK  9 active torsions:
REMARK  status: ('A' for Active; 'I' for Inactive)
REMARK    1  A    between atoms: C_1  and  C_2 
REMARK    2  A    between atoms: C_2  and  C_3 
REMARK    3  A    between atoms: C_2  and  O_6 
REMARK    4  A    between atoms: C_3  and  C_4 
REMARK    5  A    between atoms: C_3  and  O_8 
REMARK    6  A    between atoms: C_4  and  O_5 
REMARK    7  A    between atoms: O_5  and  P_9 
REMARK    8  A    between atoms: P_9  and  O_10 
REMARK    9  A    between atoms: P_9  and  O_11 
ROOT
HETATM    1  C   UNK N   1      34.654  15.212  10.477  0.00  0.00     0.177 C 
ENDROOT
BRANCH   1   2
HETATM    2  C   UNK N   1      35.627  15.830  11.485  0.00  0.00     0.209 C 
BRANCH   2   3
HETATM    3  C   UNK N   1      35.911  14.910  12.632  0.00  0.00     0.265 C 
HETATM    4  O   UNK N   1      35.103  14.058  12.961  0.00  0.00    -0.304 OA
ENDBRANCH   2   3
BRANCH   2   5
HETATM    5  O   UNK N   1      36.832  16.140  10.852  0.00  0.00    -0.386 OA
HETATM    6  H   UNK N   1      37.009  17.018  10.480  0.00  0.00     0.210 HD
ENDBRANCH   2   5
ENDBRANCH   1   2
BRANCH   1   7
HETATM    7  C   UNK N   1      34.650  16.045   9.211  0.00  0.00     0.215 C 
BRANCH   7   8
HETATM    8  O   UNK N   1      34.617  17.406   9.525  0.00  0.00    -0.294 OA
BRANCH   8   9
HETATM    9  P   UNK N   1      33.764  18.130   8.194  0.00  0.00     0.390 P 
HETATM   10  O   UNK N   1      34.576  17.991   6.879  0.00  0.00    -0.632 OA
BRANCH   9  11
HETATM   11  O   UNK N   1      35.217  19.028   8.514  0.00  0.00    -0.307 OA
HETATM   12  H   UNK N   1      35.464  19.322   9.405  0.00  0.00     0.222 HD
ENDBRANCH   9  11
BRANCH   9  13
HETATM   13  O   UNK N   1      33.846  16.412   7.944  0.00  0.00    -0.307 OA
HETATM   14  H   UNK N   1      34.364  15.787   7.412  0.00  0.00     0.222 HD
ENDBRANCH   9  13
ENDBRANCH   8   9
ENDBRANCH   7   8
ENDBRANCH   1   7
BRANCH   1  15
HETATM   15  O   UNK N   1      33.358  15.202  10.993  0.00  0.00    -0.390 OA
HETATM   16  H   UNK N   1      33.155  14.790  11.848  0.00  0.00     0.210 HD
ENDBRANCH   1  15
TORSDOF 9
ENDMDL
MODEL 3
REMARK VINA RESULT:      -4.7      2.555      5.236
REMARK  9 active torsions:
REMARK  status: ('A' for Active; 'I' for Inactive)
REMARK    1  A    between atoms: C_1  and  C_2 
REMARK    2  A    between atoms: C_2  and  C_3 
REMARK    3  A    between atoms: C_2  and  O_6 
REMARK    4  A    between atoms: C_3  and  C_4 
REMARK    5  A    between atoms: C_3  and  O_8 
REMARK    6  A    between atoms: C_4  and  O_5 
REMARK    7  A    between atoms: O_5  and  P_9 
REMARK    8  A    between atoms: P_9  and  O_10 
REMARK    9  A    between atoms: P_9  and  O_11 
ROOT
HETATM    1  C   UNK N   1      36.121  15.254  10.448  0.00  0.00     0.177 C 
ENDROOT
BRANCH   1   2
HETATM    2  C   UNK N   1      34.873  16.114  10.663  0.00  0.00     0.209 C 
BRANCH   2   3
HETATM    3  C   UNK N   1      34.589  17.002   9.491  0.00  0.00     0.265 C 
HETATM    4  O   UNK N   1      35.233  18.023   9.315  0.00  0.00    -0.304 OA
ENDBRANCH   2   3
BRANCH   2   5
HETATM    5  O   UNK N   1      33.764  15.294  10.881  0.00  0.00    -0.386 OA
HETATM    6  H   UNK N   1      33.076  15.164  10.210  0.00  0.00     0.210 HD
ENDBRANCH   2   5
ENDBRANCH   1   2
BRANCH   1   7
HETATM    7  C   UNK N   1      36.097  14.086  11.413  0.00  0.00     0.215 C 
BRANCH   7   8
HETATM    8  O   UNK N   1      36.132  14.546  12.732  0.00  0.00    -0.294 OA
BRANCH   8   9
HETATM    9  P   UNK N   1      35.997  13.101  13.691  0.00  0.00     0.390 P 
HETATM   10  O   UNK N   1      35.043  13.326  14.894  0.00  0.00    -0.632 OA
BRANCH   9  11
HETATM   11  O   UNK N   1      36.788  14.343  14.614  0.00  0.00    -0.307 OA
HETATM   12  H   UNK N   1      36.401  15.222  14.746  0.00  0.00     0.222 HD
ENDBRANCH   9  11
BRANCH   9  13
HETATM   13  O   UNK N   1      34.463  13.426  12.940  0.00  0.00    -0.307 OA
HETATM   14  H   UNK N   1      33.632  13.873  13.167  0.00  0.00     0.222 HD
ENDBRANCH   9  13
ENDBRANCH   8   9
ENDBRANCH   7   8
ENDBRANCH   1   7
BRANCH   1  15
HETATM   15  O   UNK N   1      37.275  15.997  10.695  0.00  0.00    -0.390 OA
HETATM   16  H   UNK N   1      38.107  15.572  10.957  0.00  0.00     0.210 HD
ENDBRANCH   1  15
TORSDOF 9
ENDMDL
MODEL 4
REMARK VINA RESULT:      -4.6      2.208      3.656
REMARK  9 active torsions:
REMARK  status: ('A' for Active; 'I' for Inactive)
REMARK    1  A    between atoms: C_1  and  C_2 
REMARK    2  A    between atoms: C_2  and  C_3 
REMARK    3  A    between atoms: C_2  and  O_6 
REMARK    4  A    between atoms: C_3  and  C_4 
REMARK    5  A    between atoms: C_3  and  O_8 
REMARK    6  A    between atoms: C_4  and  O_5 
REMARK    7  A    between atoms: O_5  and  P_9 
REMARK    8  A    between atoms: P_9  and  O_10 
REMARK    9  A    between atoms: P_9  and  O_11 
ROOT
HETATM    1  C   UNK N   1      35.294  12.934  12.856  0.00  0.00     0.177 C 
ENDROOT
BRANCH   1   2
HETATM    2  C   UNK N   1      35.715  13.771  14.067  0.00  0.00     0.209 C 
BRANCH   2   3
HETATM    3  C   UNK N   1      35.378  13.100  15.362  0.00  0.00     0.265 C 
HETATM    4  O   UNK N   1      34.242  13.133  15.802  0.00  0.00    -0.304 OA
ENDBRANCH   2   3
BRANCH   2   5
HETATM    5  O   UNK N   1      37.091  14.003  14.028  0.00  0.00    -0.386 OA
HETATM    6  H   UNK N   1      37.617  13.860  13.225  0.00  0.00     0.210 HD
ENDBRANCH   2   5
ENDBRANCH   1   2
BRANCH   1   7
HETATM    7  C   UNK N   1      34.915  13.858  11.716  0.00  0.00     0.215 C 
BRANCH   7   8
HETATM    8  O   UNK N   1      35.673  15.030  11.769  0.00  0.00    -0.294 OA
BRANCH   8   9
HETATM    9  P   UNK N   1      35.602  15.658  10.149  0.00  0.00     0.390 P 
HETATM   10  O   UNK N   1      35.496  17.205  10.162  0.00  0.00    -0.632 OA
BRANCH   9  11
HETATM   11  O   UNK N   1      34.093  15.957  10.957  0.00  0.00    -0.307 OA
HETATM   12  H   UNK N   1      34.005  16.602  11.676  0.00  0.00     0.222 HD
ENDBRANCH   9  11
BRANCH   9  13
HETATM   13  O   UNK N   1      37.094  16.163  10.885  0.00  0.00    -0.307 OA
HETATM   14  H   UNK N   1      37.377  16.737  11.614  0.00  0.00     0.222 HD
ENDBRANCH   9  13
ENDBRANCH   8   9
ENDBRANCH   7   8
ENDBRANCH   1   7
BRANCH   1  15
HETATM   15  O   UNK N   1      34.183  12.151  13.167  0.00  0.00    -0.390 OA
HETATM   16  H   UNK N   1      34.225  11.181  13.154  0.00  0.00     0.210 HD
ENDBRANCH   1  15
TORSDOF 9
ENDMDL
MODEL 5
REMARK VINA RESULT:      -4.5      2.840      5.649
REMARK  9 active torsions:
REMARK  status: ('A' for Active; 'I' for Inactive)
REMARK    1  A    between atoms: C_1  and  C_2 
REMARK    2  A    between atoms: C_2  and  C_3 
REMARK    3  A    between atoms: C_2  and  O_6 
REMARK    4  A    between atoms: C_3  and  C_4 
REMARK    5  A    between atoms: C_3  and  O_8 
REMARK    6  A    between atoms: C_4  and  O_5 
REMARK    7  A    between atoms: O_5  and  P_9 
REMARK    8  A    between atoms: P_9  and  O_10 
REMARK    9  A    between atoms: P_9  and  O_11 
ROOT
HETATM    1  C   UNK N   1      34.930  15.239  11.718  0.00  0.00     0.177 C 
ENDROOT
BRANCH   1   2
HETATM    2  C   UNK N   1      35.683  15.680  10.460  0.00  0.00     0.209 C 
BRANCH   2   3
HETATM    3  C   UNK N   1      35.004  16.819   9.764  0.00  0.00     0.265 C 
HETATM    4  O   UNK N   1      35.463  17.947   9.825  0.00  0.00    -0.304 OA
ENDBRANCH   2   3
BRANCH   2   5
HETATM    5  O   UNK N   1      36.980  16.071  10.796  0.00  0.00    -0.386 OA
HETATM    6  H   UNK N   1      37.308  16.047  11.709  0.00  0.00     0.210 HD
ENDBRANCH   2   5
ENDBRANCH   1   2
BRANCH   1   7
HETATM    7  C   UNK N   1      35.695  14.118  12.392  0.00  0.00     0.215 C 
BRANCH   7   8
HETATM    8  O   UNK N   1      35.250  13.949  13.706  0.00  0.00    -0.294 OA
BRANCH   8   9
HETATM    9  P   UNK N   1      35.739  12.332  14.117  0.00  0.00     0.390 P 
HETATM   10  O   UNK N   1      36.114  11.529  12.843  0.00  0.00    -0.632 OA
BRANCH   9  11
HETATM   11  O   UNK N   1      34.255  12.281  13.214  0.00  0.00    -0.307 OA
HETATM   12  H   UNK N   1      33.968  11.494  12.726  0.00  0.00     0.222 HD
ENDBRANCH   9  11
BRANCH   9  13
HETATM   13  O   UNK N   1      37.110  13.191  13.481  0.00  0.00    -0.307 OA
HETATM   14  H   UNK N   1      38.070  13.215  13.619  0.00  0.00     0.222 HD
ENDBRANCH   9  13
ENDBRANCH   8   9
ENDBRANCH   7   8
ENDBRANCH   1   7
BRANCH   1  15
HETATM   15  O   UNK N   1      33.663  14.762  11.386  0.00  0.00    -0.390 OA
HETATM   16  H   UNK N   1      33.156  14.201  11.994  0.00  0.00     0.210 HD
ENDBRANCH   1  15
TORSDOF 9
ENDMDL
MODEL 6
REMARK VINA RESULT:      -4.4     12.401     14.167
REMARK  9 active torsions:
REMARK  status: ('A' for Active; 'I' for Inactive)
REMARK    1  A    between atoms: C_1  and  C_2 
REMARK    2  A    between atoms: C_2  and  C_3 
REMARK    3  A    between atoms: C_2  and  O_6 
REMARK    4  A    between atoms: C_3  and  C_4 
REMARK    5  A    between atoms: C_3  and  O_8 
REMARK    6  A    between atoms: C_4  and  O_5 
REMARK    7  A    between atoms: O_5  and  P_9 
REMARK    8  A    between atoms: P_9  and  O_10 
REMARK    9  A    between atoms: P_9  and  O_11 
ROOT
HETATM    1  C   UNK N   1      24.662  18.947   3.892  0.00  0.00     0.177 C 
ENDROOT
BRANCH   1   2
HETATM    2  C   UNK N   1      25.255  20.326   3.587  0.00  0.00     0.209 C 
BRANCH   2   3
HETATM    3  C   UNK N   1      26.647  20.472   4.118  0.00  0.00     0.265 C 
HETATM    4  O   UNK N   1      27.514  19.669   3.818  0.00  0.00    -0.304 OA
ENDBRANCH   2   3
BRANCH   2   5
HETATM    5  O   UNK N   1      25.277  20.538   2.208  0.00  0.00    -0.386 OA
HETATM    6  H   UNK N   1      25.042  19.843   1.573  0.00  0.00     0.210 HD
ENDBRANCH   2   5
ENDBRANCH   1   2
BRANCH   1   7
HETATM    7  C   UNK N   1      23.151  19.025   3.818  0.00  0.00     0.215 C 
BRANCH   7   8
HETATM    8  O   UNK N   1      22.750  20.299   3.405  0.00  0.00    -0.294 OA
BRANCH   8   9
HETATM    9  P   UNK N   1      21.101  20.083   2.895  0.00  0.00     0.390 P 
HETATM   10  O   UNK N   1      20.135  20.897   3.794  0.00  0.00    -0.632 OA
BRANCH   9  11
HETATM   11  O   UNK N   1      21.321  19.381   4.469  0.00  0.00    -0.307 OA
HETATM   12  H   UNK N   1      21.096  19.852   5.286  0.00  0.00     0.222 HD
ENDBRANCH   9  11
BRANCH   9  13
HETATM   13  O   UNK N   1      21.569  21.732   2.609  0.00  0.00    -0.307 OA
HETATM   14  H   UNK N   1      22.367  22.278   2.694  0.00  0.00     0.222 HD
ENDBRANCH   9  13
ENDBRANCH   8   9
ENDBRANCH   7   8
ENDBRANCH   1   7
BRANCH   1  15
HETATM   15  O   UNK N   1      25.012  18.539   5.178  0.00  0.00    -0.390 OA
HETATM   16  H   UNK N   1      25.940  18.438   5.445  0.00  0.00     0.210 HD
ENDBRANCH   1  15
TORSDOF 9
ENDMDL
MODEL 7
REMARK VINA RESULT:      -4.3      2.484      3.441
REMARK  9 active torsions:
REMARK  status: ('A' for Active; 'I' for Inactive)
REMARK    1  A    between atoms: C_1  and  C_2 
REMARK    2  A    between atoms: C_2  and  C_3 
REMARK    3  A    between atoms: C_2  and  O_6 
REMARK    4  A    between atoms: C_3  and  C_4 
REMARK    5  A    between atoms: C_3  and  O_8 
REMARK    6  A    between atoms: C_4  and  O_5 
REMARK    7  A    between atoms: O_5  and  P_9 
REMARK    8  A    between atoms: P_9  and  O_10 
REMARK    9  A    between atoms: P_9  and  O_11 
ROOT
HETATM    1  C   UNK N   1      36.709  13.372  13.099  0.00  0.00     0.177 C 
ENDROOT
BRANCH   1   2
HETATM    2  C   UNK N   1      35.514  12.648  13.726  0.00  0.00     0.209 C 
BRANCH   2   3
HETATM    3  C   UNK N   1      35.277  13.070  15.143  0.00  0.00     0.265 C 
HETATM    4  O   UNK N   1      34.154  13.053  15.618  0.00  0.00    -0.304 OA
ENDBRANCH   2   3
BRANCH   2   5
HETATM    5  O   UNK N   1      34.360  12.906  12.984  0.00  0.00    -0.386 OA
HETATM    6  H   UNK N   1      34.162  13.785  12.624  0.00  0.00     0.210 HD
ENDBRANCH   2   5
ENDBRANCH   1   2
BRANCH   1   7
HETATM    7  C   UNK N   1      36.233  14.191  11.916  0.00  0.00     0.215 C 
BRANCH   7   8
HETATM    8  O   UNK N   1      35.898  15.485  12.325  0.00  0.00    -0.294 OA
BRANCH   8   9
HETATM    9  P   UNK N   1      35.433  16.290  10.856  0.00  0.00     0.390 P 
HETATM   10  O   UNK N   1      35.606  15.350   9.634  0.00  0.00    -0.632 OA
BRANCH   9  11
HETATM   11  O   UNK N   1      37.140  15.966  10.828  0.00  0.00    -0.307 OA
HETATM   12  H   UNK N   1      37.502  15.068  10.881  0.00  0.00     0.222 HD
ENDBRANCH   9  11
BRANCH   9  13
HETATM   13  O   UNK N   1      34.312  14.999  11.172  0.00  0.00    -0.307 OA
HETATM   14  H   UNK N   1      34.135  14.358  11.878  0.00  0.00     0.222 HD
ENDBRANCH   9  13
ENDBRANCH   8   9
ENDBRANCH   7   8
ENDBRANCH   1   7
BRANCH   1  15
HETATM   15  O   UNK N   1      37.650  12.452  12.638  0.00  0.00    -0.390 OA
HETATM   16  H   UNK N   1      37.914  11.685  13.171  0.00  0.00     0.210 HD
ENDBRANCH   1  15
TORSDOF 9
ENDMDL
MODEL 8
REMARK VINA RESULT:      -4.3      2.455      5.169
REMARK  9 active torsions:
REMARK  status: ('A' for Active; 'I' for Inactive)
REMARK    1  A    between atoms: C_1  and  C_2 
REMARK    2  A    between atoms: C_2  and  C_3 
REMARK    3  A    between atoms: C_2  and  O_6 
REMARK    4  A    between atoms: C_3  and  C_4 
REMARK    5  A    between atoms: C_3  and  O_8 
REMARK    6  A    between atoms: C_4  and  O_5 
REMARK    7  A    between atoms: O_5  and  P_9 
REMARK    8  A    between atoms: P_9  and  O_10 
REMARK    9  A    between atoms: P_9  and  O_11 
ROOT
HETATM    1  C   UNK N   1      34.770  17.719   8.146  0.00  0.00     0.177 C 
ENDROOT
BRANCH   1   2
HETATM    2  C   UNK N   1      33.763  17.320   7.063  0.00  0.00     0.209 C 
BRANCH   2   3
HETATM    3  C   UNK N   1      32.355  17.647   7.453  0.00  0.00     0.265 C 
HETATM    4  O   UNK N   1      31.430  16.938   7.093  0.00  0.00    -0.304 OA
ENDBRANCH   2   3
BRANCH   2   5
HETATM    5  O   UNK N   1      34.062  17.981   5.871  0.00  0.00    -0.386 OA
HETATM    6  H   UNK N   1      33.886  17.587   5.002  0.00  0.00     0.210 HD
ENDBRANCH   2   5
ENDBRANCH   1   2
BRANCH   1   7
HETATM    7  C   UNK N   1      34.329  17.142   9.476  0.00  0.00     0.215 C 
BRANCH   7   8
HETATM    8  O   UNK N   1      35.428  16.983  10.324  0.00  0.00    -0.294 OA
BRANCH   8   9
HETATM    9  P   UNK N   1      35.696  15.265  10.360  0.00  0.00     0.390 P 
HETATM   10  O   UNK N   1      35.894  14.769  11.816  0.00  0.00    -0.632 OA
BRANCH   9  11
HETATM   11  O   UNK N   1      37.134  16.090  10.880  0.00  0.00    -0.307 OA
HETATM   12  H   UNK N   1      37.804  16.413  10.258  0.00  0.00     0.222 HD
ENDBRANCH   9  11
BRANCH   9  13
HETATM   13  O   UNK N   1      34.173  15.616  11.121  0.00  0.00    -0.307 OA
HETATM   14  H   UNK N   1      33.234  15.628  10.878  0.00  0.00     0.222 HD
ENDBRANCH   9  13
ENDBRANCH   8   9
ENDBRANCH   7   8
ENDBRANCH   1   7
BRANCH   1  15
HETATM   15  O   UNK N   1      34.826  19.106   8.273  0.00  0.00    -0.390 OA
HETATM   16  H   UNK N   1      35.399  19.646   7.705  0.00  0.00     0.210 HD
ENDBRANCH   1  15
TORSDOF 9
ENDMDL
MODEL 9
REMARK VINA RESULT:      -4.3      1.813      2.689
REMARK  9 active torsions:
REMARK  status: ('A' for Active; 'I' for Inactive)
REMARK    1  A    between atoms: C_1  and  C_2 
REMARK    2  A    between atoms: C_2  and  C_3 
REMARK    3  A    between atoms: C_2  and  O_6 
REMARK    4  A    between atoms: C_3  and  C_4 
REMARK    5  A    between atoms: C_3  and  O_8 
REMARK    6  A    between atoms: C_4  and  O_5 
REMARK    7  A    between atoms: O_5  and  P_9 
REMARK    8  A    between atoms: P_9  and  O_10 
REMARK    9  A    between atoms: P_9  and  O_11 
ROOT
HETATM    1  C   UNK N   1      33.549  14.282   9.036  0.00  0.00     0.177 C 
ENDROOT
BRANCH   1   2
HETATM    2  C   UNK N   1      34.230  14.105  10.396  0.00  0.00     0.209 C 
BRANCH   2   3
HETATM    3  C   UNK N   1      35.710  14.318  10.319  0.00  0.00     0.265 C 
HETATM    4  O   UNK N   1      36.482  13.395  10.514  0.00  0.00    -0.304 OA
ENDBRANCH   2   3
BRANCH   2   5
HETATM    5  O   UNK N   1      33.695  15.008  11.316  0.00  0.00    -0.386 OA
HETATM    6  H   UNK N   1      32.783  15.333  11.253  0.00  0.00     0.210 HD
ENDBRANCH   2   5
ENDBRANCH   1   2
BRANCH   1   7
HETATM    7  C   UNK N   1      33.171  15.738   8.852  0.00  0.00     0.215 C 
BRANCH   7   8
HETATM    8  O   UNK N   1      34.101  16.380   8.029  0.00  0.00    -0.294 OA
BRANCH   8   9
HETATM    9  P   UNK N   1      33.676  18.063   8.137  0.00  0.00     0.390 P 
HETATM   10  O   UNK N   1      34.943  18.941   8.310  0.00  0.00    -0.632 OA
BRANCH   9  11
HETATM   11  O   UNK N   1      34.337  17.530   9.653  0.00  0.00    -0.307 OA
HETATM   12  H   UNK N   1      35.284  17.361   9.778  0.00  0.00     0.222 HD
ENDBRANCH   9  11
BRANCH   9  13
HETATM   13  O   UNK N   1      34.561  17.797   6.664  0.00  0.00    -0.307 OA
HETATM   14  H   UNK N   1      34.366  17.620   5.731  0.00  0.00     0.222 HD
ENDBRANCH   9  13
ENDBRANCH   8   9
ENDBRANCH   7   8
ENDBRANCH   1   7
BRANCH   1  15
HETATM   15  O   UNK N   1      32.382  13.521   8.971  0.00  0.00    -0.390 OA
HETATM   16  H   UNK N   1      31.687  13.597   9.644  0.00  0.00     0.210 HD
ENDBRANCH   1  15
TORSDOF 9
ENDMDL
