MODEL 1
REMARK VINA RESULT:      -4.0      0.000      0.000
REMARK  4 active torsions:
REMARK  status: ('A' for Active; 'I' for Inactive)
REMARK    1  A    between atoms: C_2  and  O_4 
REMARK    2  A    between atoms: O_4  and  P_5 
REMARK    3  A    between atoms: P_5  and  O_6 
REMARK    4  A    between atoms: P_5  and  O_7 
ROOT
HETATM    1  P   UNK N   1      34.070  17.642   8.514  0.00  0.00     0.391 P 
HETATM    2  O   UNK N   1      34.944  16.402   8.183  0.00  0.00    -0.632 OA
ENDROOT
BRANCH   1   3
HETATM    3  O   UNK N   1      34.398  17.858   6.817  0.00  0.00    -0.292 OA
BRANCH   3   4
HETATM    4  C   UNK N   1      33.406  17.133   6.147  0.00  0.00     0.125 C 
HETATM    5  C   UNK N   1      32.077  17.308   6.852  0.00  0.00     0.040 C 
HETATM    6  C   UNK N   1      33.286  17.625   4.716  0.00  0.00     0.040 C 
ENDBRANCH   3   4
ENDBRANCH   1   3
BRANCH   1   7
HETATM    7  O   UNK N   1      35.357  17.729   9.675  0.00  0.00    -0.307 OA
HETATM    8  H   UNK N   1      35.538  18.511  10.219  0.00  0.00     0.222 HD
ENDBRANCH   1   7
BRANCH   1   9
HETATM    9  O   UNK N   1      34.991  19.096   8.290  0.00  0.00    -0.307 OA
HETATM   10  H   UNK N   1      35.647  19.493   8.884  0.00  0.00     0.222 HD
ENDBRANCH   1   9
TORSDOF 4
ENDMDL
MODEL 2
REMARK VINA RESULT:      -3.8     13.785     14.668
REMARK  4 active torsions:
REMARK  status: ('A' for Active; 'I' for Inactive)
REMARK    1  A    between atoms: C_2  and  O_4 
REMARK    2  A    between atoms: O_4  and  P_5 
REMARK    3  A    between atoms: P_5  and  O_6 
REMARK    4  A    between atoms: P_5  and  O_7 
ROOT
HETATM    1  P   UNK N   1      20.645  20.479   1.530  0.00  0.00     0.391 P 
HETATM    2  O   UNK N   1      22.153  20.786   1.734  0.00  0.00    -0.632 OA
ENDROOT
BRANCH   1   3
HETATM    3  O   UNK N   1      21.232  19.001   2.239  0.00  0.00    -0.292 OA
BRANCH   3   4
HETATM    4  C   UNK N   1      20.475  18.815   3.401  0.00  0.00     0.125 C 
HETATM    5  C   UNK N   1      19.785  17.467   3.353  0.00  0.00     0.040 C 
HETATM    6  C   UNK N   1      21.379  18.874   4.619  0.00  0.00     0.040 C 
ENDBRANCH   3   4
ENDBRANCH   1   3
BRANCH   1   7
HETATM    7  O   UNK N   1      21.179  20.970  -0.047  0.00  0.00    -0.307 OA
HETATM    8  H   UNK N   1      20.942  21.817  -0.455  0.00  0.00     0.222 HD
ENDBRANCH   1   7
BRANCH   1   9
HETATM    9  O   UNK N   1      20.450  19.182   0.393  0.00  0.00    -0.307 OA
HETATM   10  H   UNK N   1      19.740  19.048  -0.255  0.00  0.00     0.222 HD
ENDBRANCH   1   9
TORSDOF 4
ENDMDL
MODEL 3
REMARK VINA RESULT:      -3.8      1.322      1.935
REMARK  4 active torsions:
REMARK  status: ('A' for Active; 'I' for Inactive)
REMARK    1  A    between atoms: C_2  and  O_4 
REMARK    2  A    between atoms: O_4  and  P_5 
REMARK    3  A    between atoms: P_5  and  O_6 
REMARK    4  A    between atoms: P_5  and  O_7 
ROOT
HETATM    1  P   UNK N   1      34.581  17.647   8.339  0.00  0.00     0.391 P 
HETATM    2  O   UNK N   1      34.881  19.170   8.374  0.00  0.00    -0.632 OA
ENDROOT
BRANCH   1   3
HETATM    3  O   UNK N   1      32.990  18.343   8.204  0.00  0.00    -0.292 OA
BRANCH   3   4
HETATM    4  C   UNK N   1      32.178  17.326   7.688  0.00  0.00     0.125 C 
HETATM    5  C   UNK N   1      30.724  17.635   7.978  0.00  0.00     0.040 C 
HETATM    6  C   UNK N   1      32.380  17.217   6.188  0.00  0.00     0.040 C 
ENDBRANCH   3   4
ENDBRANCH   1   3
BRANCH   1   7
HETATM    7  O   UNK N   1      35.506  17.848   9.794  0.00  0.00    -0.307 OA
HETATM    8  H   UNK N   1      36.229  17.258  10.057  0.00  0.00     0.222 HD
ENDBRANCH   1   7
BRANCH   1   9
HETATM    9  O   UNK N   1      33.638  17.195   9.725  0.00  0.00    -0.307 OA
HETATM   10  H   UNK N   1      32.929  16.536   9.783  0.00  0.00     0.222 HD
ENDBRANCH   1   9
TORSDOF 4
ENDMDL
MODEL 4
REMARK VINA RESULT:      -3.7     11.857     12.588
REMARK  4 active torsions:
REMARK  status: ('A' for Active; 'I' for Inactive)
REMARK    1  A    between atoms: C_2  and  O_4 
REMARK    2  A    between atoms: O_4  and  P_5 
REMARK    3  A    between atoms: P_5  and  O_6 
REMARK    4  A    between atoms: P_5  and  O_7 
ROOT
HETATM    1  P   UNK N   1      31.533  22.315  -3.194  0.00  0.00     0.391 P 
HETATM    2  O   UNK N   1      31.032  22.801  -1.808  0.00  0.00    -0.632 OA
ENDROOT
BRANCH   1   3
HETATM    3  O   UNK N   1      29.803  22.193  -3.359  0.00  0.00    -0.292 OA
BRANCH   3   4
HETATM    4  C   UNK N   1      29.427  23.265  -4.177  0.00  0.00     0.125 C 
HETATM    5  C   UNK N   1      29.123  22.763  -5.573  0.00  0.00     0.040 C 
HETATM    6  C   UNK N   1      28.194  23.940  -3.605  0.00  0.00     0.040 C 
ENDBRANCH   3   4
ENDBRANCH   1   3
BRANCH   1   7
HETATM    7  O   UNK N   1      32.382  21.298  -2.074  0.00  0.00    -0.307 OA
HETATM    8  H   UNK N   1      33.111  20.711  -2.328  0.00  0.00     0.222 HD
ENDBRANCH   1   7
BRANCH   1   9
HETATM    9  O   UNK N   1      31.096  20.653  -3.436  0.00  0.00    -0.307 OA
HETATM   10  H   UNK N   1      31.048  20.155  -4.267  0.00  0.00     0.222 HD
ENDBRANCH   1   9
TORSDOF 4
ENDMDL
MODEL 5
REMARK VINA RESULT:      -3.7     12.902     13.609
REMARK  4 active torsions:
REMARK  status: ('A' for Active; 'I' for Inactive)
REMARK    1  A    between atoms: C_2  and  O_4 
REMARK    2  A    between atoms: O_4  and  P_5 
REMARK    3  A    between atoms: P_5  and  O_6 
REMARK    4  A    between atoms: P_5  and  O_7 
ROOT
HETATM    1  P   UNK N   1      21.261  20.085   2.670  0.00  0.00     0.391 P 
HETATM    2  O   UNK N   1      20.282  20.661   3.728  0.00  0.00    -0.632 OA
ENDROOT
BRANCH   1   3
HETATM    3  O   UNK N   1      22.013  19.614   4.169  0.00  0.00    -0.292 OA
BRANCH   3   4
HETATM    4  C   UNK N   1      21.314  18.480   4.600  0.00  0.00     0.125 C 
HETATM    5  C   UNK N   1      21.604  17.316   3.676  0.00  0.00     0.040 C 
HETATM    6  C   UNK N   1      21.738  18.120   6.012  0.00  0.00     0.040 C 
ENDBRANCH   3   4
ENDBRANCH   1   3
BRANCH   1   7
HETATM    7  O   UNK N   1      21.135  21.761   2.240  0.00  0.00    -0.307 OA
HETATM    8  H   UNK N   1      21.676  22.461   2.639  0.00  0.00     0.222 HD
ENDBRANCH   1   7
BRANCH   1   9
HETATM    9  O   UNK N   1      22.807  20.863   2.805  0.00  0.00    -0.307 OA
HETATM   10  H   UNK N   1      23.510  20.929   2.139  0.00  0.00     0.222 HD
ENDBRANCH   1   9
TORSDOF 4
ENDMDL
MODEL 6
REMARK VINA RESULT:      -3.7      2.160      2.760
REMARK  4 active torsions:
REMARK  status: ('A' for Active; 'I' for Inactive)
REMARK    1  A    between atoms: C_2  and  O_4 
REMARK    2  A    between atoms: O_4  and  P_5 
REMARK    3  A    between atoms: P_5  and  O_6 
REMARK    4  A    between atoms: P_5  and  O_7 
ROOT
HETATM    1  P   UNK N   1      35.205  15.946  10.351  0.00  0.00     0.391 P 
HETATM    2  O   UNK N   1      36.066  15.064   9.407  0.00  0.00    -0.632 OA
ENDROOT
BRANCH   1   3
HETATM    3  O   UNK N   1      34.783  16.562   8.778  0.00  0.00    -0.292 OA
BRANCH   3   4
HETATM    4  C   UNK N   1      33.480  17.057   8.905  0.00  0.00     0.125 C 
HETATM    5  C   UNK N   1      33.222  18.103   7.841  0.00  0.00     0.040 C 
HETATM    6  C   UNK N   1      32.482  15.924   8.750  0.00  0.00     0.040 C 
ENDBRANCH   3   4
ENDBRANCH   1   3
BRANCH   1   7
HETATM    7  O   UNK N   1      36.816  16.140  10.967  0.00  0.00    -0.307 OA
HETATM    8  H   UNK N   1      37.060  15.985  11.892  0.00  0.00     0.222 HD
ENDBRANCH   1   7
BRANCH   1   9
HETATM    9  O   UNK N   1      35.702  17.605  10.234  0.00  0.00    -0.307 OA
HETATM   10  H   UNK N   1      36.474  17.973   9.775  0.00  0.00     0.222 HD
ENDBRANCH   1   9
TORSDOF 4
ENDMDL
MODEL 7
REMARK VINA RESULT:      -3.6      1.758      2.240
REMARK  4 active torsions:
REMARK  status: ('A' for Active; 'I' for Inactive)
REMARK    1  A    between atoms: C_2  and  O_4 
REMARK    2  A    between atoms: O_4  and  P_5 
REMARK    3  A    between atoms: P_5  and  O_6 
REMARK    4  A    between atoms: P_5  and  O_7 
ROOT
HETATM    1  P   UNK N   1      33.717  18.122   8.253  0.00  0.00     0.391 P 
HETATM    2  O   UNK N   1      34.502  17.473   9.424  0.00  0.00    -0.632 OA
ENDROOT
BRANCH   1   3
HETATM    3  O   UNK N   1      33.784  16.449   7.774  0.00  0.00    -0.292 OA
BRANCH   3   4
HETATM    4  C   UNK N   1      32.572  15.889   8.194  0.00  0.00     0.125 C 
HETATM    5  C   UNK N   1      31.426  16.808   7.823  0.00  0.00     0.040 C 
HETATM    6  C   UNK N   1      32.371  14.540   7.528  0.00  0.00     0.040 C 
ENDBRANCH   3   4
ENDBRANCH   1   3
BRANCH   1   7
HETATM    7  O   UNK N   1      35.169  19.068   8.345  0.00  0.00    -0.307 OA
HETATM    8  H   UNK N   1      35.558  19.530   7.586  0.00  0.00     0.222 HD
ENDBRANCH   1   7
BRANCH   1   9
HETATM    9  O   UNK N   1      34.624  17.983   6.779  0.00  0.00    -0.307 OA
HETATM   10  H   UNK N   1      34.303  17.767   5.890  0.00  0.00     0.222 HD
ENDBRANCH   1   9
TORSDOF 4
ENDMDL
MODEL 8
REMARK VINA RESULT:      -3.6     11.114     11.752
REMARK  4 active torsions:
REMARK  status: ('A' for Active; 'I' for Inactive)
REMARK    1  A    between atoms: C_2  and  O_4 
REMARK    2  A    between atoms: O_4  and  P_5 
REMARK    3  A    between atoms: P_5  and  O_6 
REMARK    4  A    between atoms: P_5  and  O_7 
ROOT
HETATM    1  P   UNK N   1      44.205  23.363   2.646  0.00  0.00     0.391 P 
HETATM    2  O   UNK N   1      43.782  24.205   1.411  0.00  0.00    -0.632 OA
ENDROOT
BRANCH   1   3
HETATM    3  O   UNK N   1      42.467  23.264   2.705  0.00  0.00    -0.292 OA
BRANCH   3   4
HETATM    4  C   UNK N   1      42.147  21.987   2.230  0.00  0.00     0.125 C 
HETATM    5  C   UNK N   1      42.548  20.944   3.252  0.00  0.00     0.040 C 
HETATM    6  C   UNK N   1      40.654  21.893   1.973  0.00  0.00     0.040 C 
ENDBRANCH   3   4
ENDBRANCH   1   3
BRANCH   1   7
HETATM    7  O   UNK N   1      45.007  24.882   2.893  0.00  0.00    -0.307 OA
HETATM    8  H   UNK N   1      45.655  25.255   2.276  0.00  0.00     0.222 HD
ENDBRANCH   1   7
BRANCH   1   9
HETATM    9  O   UNK N   1      43.637  24.118   4.102  0.00  0.00    -0.307 OA
HETATM   10  H   UNK N   1      43.865  23.904   5.021  0.00  0.00     0.222 HD
ENDBRANCH   1   9
TORSDOF 4
ENDMDL
MODEL 9
REMARK VINA RESULT:      -3.6     12.257     12.884
REMARK  4 active torsions:
REMARK  status: ('A' for Active; 'I' for Inactive)
REMARK    1  A    between atoms: C_2  and  O_4 
REMARK    2  A    between atoms: O_4  and  P_5 
REMARK    3  A    between atoms: P_5  and  O_6 
REMARK    4  A    between atoms: P_5  and  O_7 
ROOT
HETATM    1  P   UNK N   1      30.611  22.614  -3.040  0.00  0.00     0.391 P 
HETATM    2  O   UNK N   1      31.888  23.233  -3.669  0.00  0.00    -0.632 OA
ENDROOT
BRANCH   1   3
HETATM    3  O   UNK N   1      30.333  24.322  -2.844  0.00  0.00    -0.292 OA
BRANCH   3   4
HETATM    4  C   UNK N   1      29.498  24.691  -3.905  0.00  0.00     0.125 C 
HETATM    5  C   UNK N   1      28.077  24.251  -3.617  0.00  0.00     0.040 C 
HETATM    6  C   UNK N   1      29.531  26.198  -4.086  0.00  0.00     0.040 C 
ENDBRANCH   3   4
ENDBRANCH   1   3
BRANCH   1   7
HETATM    7  O   UNK N   1      31.905  21.833  -2.188  0.00  0.00    -0.307 OA
HETATM    8  H   UNK N   1      32.633  22.310  -1.761  0.00  0.00     0.222 HD
ENDBRANCH   1   7
BRANCH   1   9
HETATM    9  O   UNK N   1      30.538  22.993  -1.347  0.00  0.00    -0.307 OA
HETATM   10  H   UNK N   1      29.785  22.909  -0.742  0.00  0.00     0.222 HD
ENDBRANCH   1   9
TORSDOF 4
ENDMDL
