MODEL 1
REMARK VINA RESULT:      -6.5      0.000      0.000
REMARK  8 active torsions:
REMARK  status: ('A' for Active; 'I' for Inactive)
REMARK    1  A    between atoms: C_1  and  C_2 
REMARK    2  A    between atoms: C_4  and  O_9 
REMARK    3  A    between atoms: C_7  and  C_13 
REMARK    4  A    between atoms: C_8  and  O_14 
REMARK    5  A    between atoms: C_13  and  O_16 
REMARK    6  A    between atoms: O_16  and  P_18 
REMARK    7  A    between atoms: P_18  and  O_19 
REMARK    8  A    between atoms: P_18  and  O_20 
ROOT
HETATM    1  C   UNK N   1      35.815  12.950  12.058  0.00  0.00     0.193 C 
HETATM    2  O   UNK N   1      34.709  13.516  11.386  0.00  0.00    -0.368 OA
HETATM    3  C   UNK N   1      37.030  13.837  11.778  0.00  0.00     0.183 C 
HETATM    4  C   UNK N   1      35.110  14.826  11.104  0.00  0.00     0.178 C 
HETATM    5  C   UNK N   1      36.536  14.702  10.661  0.00  0.00     0.180 C 
ENDROOT
BRANCH   1   6
HETATM    6  C   UNK N   1      35.533  12.842  13.542  0.00  0.00     0.057 A 
HETATM    7  C   UNK N   1      34.640  11.893  14.065  0.00  0.00     0.259 A 
HETATM    8  N   UNK N   1      34.406  11.853  15.416  0.00  0.00    -0.275 N 
HETATM    9  O   UNK N   1      34.063  11.111  13.330  0.00  0.00    -0.267 OA
HETATM   10  C   UNK N   1      35.032  12.728  16.262  0.00  0.00     0.326 A 
HETATM   11  H   UNK N   1      33.780  11.186  15.780  0.00  0.00     0.173 HD
HETATM   12  O   UNK N   1      34.811  12.683  17.459  0.00  0.00    -0.247 OA
HETATM   13  N   UNK N   1      35.904  13.656  15.764  0.00  0.00    -0.318 N 
HETATM   14  C   UNK N   1      36.156  13.725  14.434  0.00  0.00     0.108 A 
HETATM   15  H   UNK N   1      36.354  14.280  16.379  0.00  0.00     0.170 HD
ENDBRANCH   1   6
BRANCH   3  16
HETATM   16  O   UNK N   1      38.128  13.080  11.368  0.00  0.00    -0.390 OA
HETATM   17  H   UNK N   1      39.027  13.444  11.377  0.00  0.00     0.210 HD
ENDBRANCH   3  16
BRANCH   4  18
HETATM   18  C   UNK N   1      34.201  15.467  10.070  0.00  0.00     0.215 C 
BRANCH  18  19
HETATM   19  O   UNK N   1      34.977  16.094   9.083  0.00  0.00    -0.294 OA
BRANCH  19  20
HETATM   20  P   UNK N   1      34.126  17.549   8.646  0.00  0.00     0.390 P 
HETATM   21  O   UNK N   1      34.788  17.158   7.296  0.00  0.00    -0.632 OA
BRANCH  20  22
HETATM   22  O   UNK N   1      34.991  18.995   8.227  0.00  0.00    -0.307 OA
HETATM   23  H   UNK N   1      35.170  19.670   8.900  0.00  0.00     0.222 HD
ENDBRANCH  20  22
BRANCH  20  24
HETATM   24  O   UNK N   1      35.364  17.906   9.809  0.00  0.00    -0.307 OA
HETATM   25  H   UNK N   1      35.372  18.168  10.743  0.00  0.00     0.222 HD
ENDBRANCH  20  24
ENDBRANCH  19  20
ENDBRANCH  18  19
ENDBRANCH   4  18
BRANCH   5  26
HETATM   26  O   UNK N   1      37.187  15.936  10.655  0.00  0.00    -0.390 OA
HETATM   27  H   UNK N   1      37.275  16.879  10.868  0.00  0.00     0.210 HD
ENDBRANCH   5  26
TORSDOF 8
ENDMDL
MODEL 2
REMARK VINA RESULT:      -6.4      7.857     10.578
REMARK  8 active torsions:
REMARK  status: ('A' for Active; 'I' for Inactive)
REMARK    1  A    between atoms: C_1  and  C_2 
REMARK    2  A    between atoms: C_4  and  O_9 
REMARK    3  A    between atoms: C_7  and  C_13 
REMARK    4  A    between atoms: C_8  and  O_14 
REMARK    5  A    between atoms: C_13  and  O_16 
REMARK    6  A    between atoms: O_16  and  P_18 
REMARK    7  A    between atoms: P_18  and  O_19 
REMARK    8  A    between atoms: P_18  and  O_20 
ROOT
HETATM    1  C   UNK N   1      28.139  17.421   7.179  0.00  0.00     0.193 C 
HETATM    2  O   UNK N   1      29.365  16.806   6.841  0.00  0.00    -0.368 OA
HETATM    3  C   UNK N   1      28.368  18.247   8.446  0.00  0.00     0.183 C 
HETATM    4  C   UNK N   1      30.322  17.528   7.561  0.00  0.00     0.178 C 
HETATM    5  C   UNK N   1      29.703  17.749   8.907  0.00  0.00     0.180 C 
ENDROOT
BRANCH   1   6
HETATM    6  C   UNK N   1      27.647  18.282   6.034  0.00  0.00     0.057 A 
HETATM    7  C   UNK N   1      27.060  17.731   4.884  0.00  0.00     0.259 A 
HETATM    8  N   UNK N   1      26.651  18.556   3.868  0.00  0.00    -0.275 N 
HETATM    9  O   UNK N   1      26.921  16.526   4.774  0.00  0.00    -0.267 OA
HETATM   10  C   UNK N   1      26.808  19.913   3.960  0.00  0.00     0.326 A 
HETATM   11  H   UNK N   1      26.240  18.167   3.062  0.00  0.00     0.173 HD
HETATM   12  O   UNK N   1      26.444  20.633   3.048  0.00  0.00    -0.247 OA
HETATM   13  N   UNK N   1      27.377  20.462   5.076  0.00  0.00    -0.318 N 
HETATM   14  C   UNK N   1      27.796  19.674   6.098  0.00  0.00     0.108 A 
HETATM   15  H   UNK N   1      27.484  21.439   5.138  0.00  0.00     0.170 HD
ENDBRANCH   1   6
BRANCH   3  16
HETATM   16  O   UNK N   1      27.388  17.989   9.405  0.00  0.00    -0.390 OA
HETATM   17  H   UNK N   1      27.444  18.359  10.300  0.00  0.00     0.210 HD
ENDBRANCH   3  16
BRANCH   4  18
HETATM   18  C   UNK N   1      31.646  16.786   7.610  0.00  0.00     0.215 C 
BRANCH  18  19
HETATM   19  O   UNK N   1      32.643  17.555   6.989  0.00  0.00    -0.294 OA
BRANCH  19  20
HETATM   20  P   UNK N   1      33.992  17.584   8.091  0.00  0.00     0.390 P 
HETATM   21  O   UNK N   1      33.182  18.826   8.555  0.00  0.00    -0.632 OA
BRANCH  20  22
HETATM   22  O   UNK N   1      35.178  18.850   8.011  0.00  0.00    -0.307 OA
HETATM   23  H   UNK N   1      35.427  19.337   8.810  0.00  0.00     0.222 HD
ENDBRANCH  20  22
BRANCH  20  24
HETATM   24  O   UNK N   1      34.541  17.836   6.463  0.00  0.00    -0.307 OA
HETATM   25  H   UNK N   1      35.285  17.511   5.933  0.00  0.00     0.222 HD
ENDBRANCH  20  24
ENDBRANCH  19  20
ENDBRANCH  18  19
ENDBRANCH   4  18
BRANCH   5  26
HETATM   26  O   UNK N   1      30.380  18.727   9.636  0.00  0.00    -0.390 OA
HETATM   27  H   UNK N   1      31.047  19.042  10.266  0.00  0.00     0.210 HD
ENDBRANCH   5  26
TORSDOF 8
ENDMDL
MODEL 3
REMARK VINA RESULT:      -6.3     16.317     18.375
REMARK  8 active torsions:
REMARK  status: ('A' for Active; 'I' for Inactive)
REMARK    1  A    between atoms: C_1  and  C_2 
REMARK    2  A    between atoms: C_4  and  O_9 
REMARK    3  A    between atoms: C_7  and  C_13 
REMARK    4  A    between atoms: C_8  and  O_14 
REMARK    5  A    between atoms: C_13  and  O_16 
REMARK    6  A    between atoms: O_16  and  P_18 
REMARK    7  A    between atoms: P_18  and  O_19 
REMARK    8  A    between atoms: P_18  and  O_20 
ROOT
HETATM    1  C   UNK N   1      20.629  16.577   3.887  0.00  0.00     0.193 C 
HETATM    2  O   UNK N   1      21.104  16.717   5.210  0.00  0.00    -0.368 OA
HETATM    3  C   UNK N   1      19.205  16.022   3.963  0.00  0.00     0.183 C 
HETATM    4  C   UNK N   1      19.949  16.673   5.998  0.00  0.00     0.178 C 
HETATM    5  C   UNK N   1      19.113  15.587   5.392  0.00  0.00     0.180 C 
ENDROOT
BRANCH   1   6
HETATM    6  C   UNK N   1      20.671  17.909   3.168  0.00  0.00     0.057 A 
HETATM    7  C   UNK N   1      20.376  18.029   1.801  0.00  0.00     0.259 A 
HETATM    8  N   UNK N   1      20.450  19.258   1.196  0.00  0.00    -0.275 N 
HETATM    9  O   UNK N   1      20.066  17.052   1.144  0.00  0.00    -0.267 OA
HETATM   10  C   UNK N   1      20.808  20.370   1.908  0.00  0.00     0.326 A 
HETATM   11  H   UNK N   1      20.242  19.339   0.237  0.00  0.00     0.173 HD
HETATM   12  O   UNK N   1      20.873  21.453   1.356  0.00  0.00    -0.247 OA
HETATM   13  N   UNK N   1      21.097  20.266   3.241  0.00  0.00    -0.318 N 
HETATM   14  C   UNK N   1      21.037  19.066   3.870  0.00  0.00     0.108 A 
HETATM   15  H   UNK N   1      21.350  21.070   3.749  0.00  0.00     0.170 HD
ENDBRANCH   1   6
BRANCH   3  16
HETATM   16  O   UNK N   1      19.036  14.935   3.105  0.00  0.00    -0.390 OA
HETATM   17  H   UNK N   1      19.045  15.043   2.141  0.00  0.00     0.210 HD
ENDBRANCH   3  16
BRANCH   4  18
HETATM   18  C   UNK N   1      20.291  16.440   7.459  0.00  0.00     0.215 C 
BRANCH  18  19
HETATM   19  O   UNK N   1      19.612  15.305   7.929  0.00  0.00    -0.294 OA
BRANCH  19  20
HETATM   20  P   UNK N   1      20.691  14.520   9.048  0.00  0.00     0.390 P 
HETATM   21  O   UNK N   1      20.679  13.511   7.866  0.00  0.00    -0.632 OA
BRANCH  20  22
HETATM   22  O   UNK N   1      20.236  13.039   9.832  0.00  0.00    -0.307 OA
HETATM   23  H   UNK N   1      19.337  12.691   9.734  0.00  0.00     0.222 HD
ENDBRANCH  20  22
BRANCH  20  24
HETATM   24  O   UNK N   1      19.096  14.626   9.726  0.00  0.00    -0.307 OA
HETATM   25  H   UNK N   1      18.376  15.275   9.686  0.00  0.00     0.222 HD
ENDBRANCH  20  24
ENDBRANCH  19  20
ENDBRANCH  18  19
ENDBRANCH   4  18
BRANCH   5  26
HETATM   26  O   UNK N   1      17.796  15.631   5.849  0.00  0.00    -0.390 OA
HETATM   27  H   UNK N   1      16.998  15.255   6.253  0.00  0.00     0.210 HD
ENDBRANCH   5  26
TORSDOF 8
ENDMDL
MODEL 4
REMARK VINA RESULT:      -6.2     14.513     16.183
REMARK  8 active torsions:
REMARK  status: ('A' for Active; 'I' for Inactive)
REMARK    1  A    between atoms: C_1  and  C_2 
REMARK    2  A    between atoms: C_4  and  O_9 
REMARK    3  A    between atoms: C_7  and  C_13 
REMARK    4  A    between atoms: C_8  and  O_14 
REMARK    5  A    between atoms: C_13  and  O_16 
REMARK    6  A    between atoms: O_16  and  P_18 
REMARK    7  A    between atoms: P_18  and  O_19 
REMARK    8  A    between atoms: P_18  and  O_20 
ROOT
HETATM    1  C   UNK N   1      19.903  16.531   6.784  0.00  0.00     0.193 C 
HETATM    2  O   UNK N   1      20.872  17.340   6.149  0.00  0.00    -0.368 OA
HETATM    3  C   UNK N   1      19.118  15.805   5.690  0.00  0.00     0.183 C 
HETATM    4  C   UNK N   1      20.955  16.824   4.852  0.00  0.00     0.178 C 
HETATM    5  C   UNK N   1      19.537  16.546   4.459  0.00  0.00     0.180 C 
ENDROOT
BRANCH   1   6
HETATM    6  C   UNK N   1      20.568  15.557   7.733  0.00  0.00     0.057 A 
HETATM    7  C   UNK N   1      19.968  15.160   8.938  0.00  0.00     0.259 A 
HETATM    8  N   UNK N   1      20.625  14.290   9.770  0.00  0.00    -0.275 N 
HETATM    9  O   UNK N   1      18.874  15.589   9.258  0.00  0.00    -0.267 OA
HETATM   10  C   UNK N   1      21.860  13.802   9.440  0.00  0.00     0.326 A 
HETATM   11  H   UNK N   1      20.201  14.013  10.615  0.00  0.00     0.173 HD
HETATM   12  O   UNK N   1      22.433  13.033  10.192  0.00  0.00    -0.247 OA
HETATM   13  N   UNK N   1      22.455  14.180   8.268  0.00  0.00    -0.318 N 
HETATM   14  C   UNK N   1      21.834  15.041   7.424  0.00  0.00     0.108 A 
HETATM   15  H   UNK N   1      23.342  13.823   8.035  0.00  0.00     0.170 HD
ENDBRANCH   1   6
BRANCH   3  16
HETATM   16  O   UNK N   1      17.742  15.920   5.890  0.00  0.00    -0.390 OA
HETATM   17  H   UNK N   1      17.130  16.059   5.149  0.00  0.00     0.210 HD
ENDBRANCH   3  16
BRANCH   4  18
HETATM   18  C   UNK N   1      21.671  17.789   3.923  0.00  0.00     0.215 C 
BRANCH  18  19
HETATM   19  O   UNK N   1      21.302  19.107   4.236  0.00  0.00    -0.294 OA
BRANCH  19  20
HETATM   20  P   UNK N   1      21.380  20.002   2.744  0.00  0.00     0.390 P 
HETATM   21  O   UNK N   1      22.821  20.187   3.296  0.00  0.00    -0.632 OA
BRANCH  20  22
HETATM   22  O   UNK N   1      21.553  21.730   2.751  0.00  0.00    -0.307 OA
HETATM   23  H   UNK N   1      21.051  22.269   3.382  0.00  0.00     0.222 HD
ENDBRANCH  20  22
BRANCH  20  24
HETATM   24  O   UNK N   1      20.251  20.748   3.832  0.00  0.00    -0.307 OA
HETATM   25  H   UNK N   1      19.585  20.422   4.458  0.00  0.00     0.222 HD
ENDBRANCH  20  24
ENDBRANCH  19  20
ENDBRANCH  18  19
ENDBRANCH   4  18
BRANCH   5  26
HETATM   26  O   UNK N   1      19.461  15.730   3.330  0.00  0.00    -0.390 OA
HETATM   27  H   UNK N   1      19.621  15.508   2.399  0.00  0.00     0.210 HD
ENDBRANCH   5  26
TORSDOF 8
ENDMDL
MODEL 5
REMARK VINA RESULT:      -6.1     13.689     16.329
REMARK  8 active torsions:
REMARK  status: ('A' for Active; 'I' for Inactive)
REMARK    1  A    between atoms: C_1  and  C_2 
REMARK    2  A    between atoms: C_4  and  O_9 
REMARK    3  A    between atoms: C_7  and  C_13 
REMARK    4  A    between atoms: C_8  and  O_14 
REMARK    5  A    between atoms: C_13  and  O_16 
REMARK    6  A    between atoms: O_16  and  P_18 
REMARK    7  A    between atoms: P_18  and  O_19 
REMARK    8  A    between atoms: P_18  and  O_20 
ROOT
HETATM    1  C   UNK N   1      22.099  19.281   3.876  0.00  0.00     0.193 C 
HETATM    2  O   UNK N   1      23.246  18.880   4.595  0.00  0.00    -0.368 OA
HETATM    3  C   UNK N   1      22.555  20.229   2.766  0.00  0.00     0.183 C 
HETATM    4  C   UNK N   1      24.313  19.197   3.746  0.00  0.00     0.178 C 
HETATM    5  C   UNK N   1      23.962  20.536   3.174  0.00  0.00     0.180 C 
ENDROOT
BRANCH   1   6
HETATM    6  C   UNK N   1      21.379  18.071   3.315  0.00  0.00     0.057 A 
HETATM    7  C   UNK N   1      20.084  18.154   2.780  0.00  0.00     0.259 A 
HETATM    8  N   UNK N   1      19.472  17.023   2.304  0.00  0.00    -0.275 N 
HETATM    9  O   UNK N   1      19.494  19.219   2.744  0.00  0.00    -0.267 OA
HETATM   10  C   UNK N   1      20.108  15.812   2.345  0.00  0.00     0.326 A 
HETATM   11  H   UNK N   1      18.563  17.084   1.929  0.00  0.00     0.173 HD
HETATM   12  O   UNK N   1      19.549  14.815   1.923  0.00  0.00    -0.247 OA
HETATM   13  N   UNK N   1      21.370  15.718   2.863  0.00  0.00    -0.318 N 
HETATM   14  C   UNK N   1      22.003  16.817   3.344  0.00  0.00     0.108 A 
HETATM   15  H   UNK N   1      21.824  14.845   2.885  0.00  0.00     0.170 HD
ENDBRANCH   1   6
BRANCH   3  16
HETATM   16  O   UNK N   1      21.784  21.392   2.742  0.00  0.00    -0.390 OA
HETATM   17  H   UNK N   1      21.196  21.627   3.477  0.00  0.00     0.210 HD
ENDBRANCH   3  16
BRANCH   4  18
HETATM   18  C   UNK N   1      25.634  19.177   4.495  0.00  0.00     0.215 C 
BRANCH  18  19
HETATM   19  O   UNK N   1      26.030  20.491   4.788  0.00  0.00    -0.294 OA
BRANCH  19  20
HETATM   20  P   UNK N   1      27.401  20.360   5.855  0.00  0.00     0.390 P 
HETATM   21  O   UNK N   1      27.426  18.980   5.143  0.00  0.00    -0.632 OA
BRANCH  20  22
HETATM   22  O   UNK N   1      27.383  19.256   7.194  0.00  0.00    -0.307 OA
HETATM   23  H   UNK N   1      27.380  19.591   8.104  0.00  0.00     0.222 HD
ENDBRANCH  20  22
BRANCH  20  24
HETATM   24  O   UNK N   1      25.936  20.503   6.775  0.00  0.00    -0.307 OA
HETATM   25  H   UNK N   1      25.704  20.417   7.713  0.00  0.00     0.222 HD
ENDBRANCH  20  24
ENDBRANCH  19  20
ENDBRANCH  18  19
ENDBRANCH   4  18
BRANCH   5  26
HETATM   26  O   UNK N   1      24.750  20.850   2.066  0.00  0.00    -0.390 OA
HETATM   27  H   UNK N   1      25.245  20.641   1.258  0.00  0.00     0.210 HD
ENDBRANCH   5  26
TORSDOF 8
ENDMDL
MODEL 6
REMARK VINA RESULT:      -6.0     12.251     14.643
REMARK  8 active torsions:
REMARK  status: ('A' for Active; 'I' for Inactive)
REMARK    1  A    between atoms: C_1  and  C_2 
REMARK    2  A    between atoms: C_4  and  O_9 
REMARK    3  A    between atoms: C_7  and  C_13 
REMARK    4  A    between atoms: C_8  and  O_14 
REMARK    5  A    between atoms: C_13  and  O_16 
REMARK    6  A    between atoms: O_16  and  P_18 
REMARK    7  A    between atoms: P_18  and  O_19 
REMARK    8  A    between atoms: P_18  and  O_20 
ROOT
HETATM    1  C   UNK N   1      25.818  19.138   3.607  0.00  0.00     0.193 C 
HETATM    2  O   UNK N   1      24.626  18.388   3.709  0.00  0.00    -0.368 OA
HETATM    3  C   UNK N   1      25.432  20.576   3.253  0.00  0.00     0.183 C 
HETATM    4  C   UNK N   1      23.621  19.353   3.840  0.00  0.00     0.178 C 
HETATM    5  C   UNK N   1      23.994  20.428   2.865  0.00  0.00     0.180 C 
ENDROOT
BRANCH   1   6
HETATM    6  C   UNK N   1      26.595  19.073   4.905  0.00  0.00     0.057 A 
HETATM    7  C   UNK N   1      27.401  17.973   5.238  0.00  0.00     0.259 A 
HETATM    8  N   UNK N   1      28.067  17.957   6.437  0.00  0.00    -0.275 N 
HETATM    9  O   UNK N   1      27.507  17.027   4.478  0.00  0.00    -0.267 OA
HETATM   10  C   UNK N   1      27.956  19.001   7.315  0.00  0.00     0.326 A 
HETATM   11  H   UNK N   1      28.632  17.184   6.668  0.00  0.00     0.173 HD
HETATM   12  O   UNK N   1      28.550  18.971   8.377  0.00  0.00    -0.247 OA
HETATM   13  N   UNK N   1      27.175  20.079   7.001  0.00  0.00    -0.318 N 
HETATM   14  C   UNK N   1      26.500  20.125   5.825  0.00  0.00     0.108 A 
HETATM   15  H   UNK N   1      27.102  20.829   7.635  0.00  0.00     0.170 HD
ENDBRANCH   1   6
BRANCH   3  16
HETATM   16  O   UNK N   1      26.186  21.055   2.181  0.00  0.00    -0.390 OA
HETATM   17  H   UNK N   1      26.822  21.779   2.291  0.00  0.00     0.210 HD
ENDBRANCH   3  16
BRANCH   4  18
HETATM   18  C   UNK N   1      22.249  18.753   3.594  0.00  0.00     0.215 C 
BRANCH  18  19
HETATM   19  O   UNK N   1      21.260  19.604   4.113  0.00  0.00    -0.294 OA
BRANCH  19  20
HETATM   20  P   UNK N   1      19.954  19.592   2.962  0.00  0.00     0.390 P 
HETATM   21  O   UNK N   1      20.990  18.667   2.267  0.00  0.00    -0.632 OA
BRANCH  20  22
HETATM   22  O   UNK N   1      20.132  20.342   1.405  0.00  0.00    -0.307 OA
HETATM   23  H   UNK N   1      20.650  21.155   1.312  0.00  0.00     0.222 HD
ENDBRANCH  20  22
BRANCH  20  24
HETATM   24  O   UNK N   1      20.616  21.191   3.100  0.00  0.00    -0.307 OA
HETATM   25  H   UNK N   1      20.717  21.946   2.499  0.00  0.00     0.222 HD
ENDBRANCH  20  24
ENDBRANCH  19  20
ENDBRANCH  18  19
ENDBRANCH   4  18
BRANCH   5  26
HETATM   26  O   UNK N   1      23.286  21.608   3.097  0.00  0.00    -0.390 OA
HETATM   27  H   UNK N   1      23.197  22.569   3.193  0.00  0.00     0.210 HD
ENDBRANCH   5  26
TORSDOF 8
ENDMDL
MODEL 7
REMARK VINA RESULT:      -6.0      4.280      7.403
REMARK  8 active torsions:
REMARK  status: ('A' for Active; 'I' for Inactive)
REMARK    1  A    between atoms: C_1  and  C_2 
REMARK    2  A    between atoms: C_4  and  O_9 
REMARK    3  A    between atoms: C_7  and  C_13 
REMARK    4  A    between atoms: C_8  and  O_14 
REMARK    5  A    between atoms: C_13  and  O_16 
REMARK    6  A    between atoms: O_16  and  P_18 
REMARK    7  A    between atoms: P_18  and  O_19 
REMARK    8  A    between atoms: P_18  and  O_20 
ROOT
HETATM    1  C   UNK N   1      33.999  16.111   8.979  0.00  0.00     0.193 C 
HETATM    2  O   UNK N   1      33.743  15.004   9.819  0.00  0.00    -0.368 OA
HETATM    3  C   UNK N   1      35.350  16.700   9.388  0.00  0.00     0.183 C 
HETATM    4  C   UNK N   1      34.991  14.693  10.370  0.00  0.00     0.178 C 
HETATM    5  C   UNK N   1      35.606  16.020  10.697  0.00  0.00     0.180 C 
ENDROOT
BRANCH   1   6
HETATM    6  C   UNK N   1      33.994  15.682   7.526  0.00  0.00     0.057 A 
HETATM    7  C   UNK N   1      34.193  16.595   6.478  0.00  0.00     0.259 A 
HETATM    8  N   UNK N   1      34.158  16.156   5.179  0.00  0.00    -0.275 N 
HETATM    9  O   UNK N   1      34.386  17.775   6.710  0.00  0.00    -0.267 OA
HETATM   10  C   UNK N   1      33.932  14.837   4.891  0.00  0.00     0.326 A 
HETATM   11  H   UNK N   1      34.298  16.798   4.446  0.00  0.00     0.173 HD
HETATM   12  O   UNK N   1      33.899  14.463   3.732  0.00  0.00    -0.247 OA
HETATM   13  N   UNK N   1      33.738  13.938   5.904  0.00  0.00    -0.318 N 
HETATM   14  C   UNK N   1      33.763  14.340   7.199  0.00  0.00     0.108 A 
HETATM   15  H   UNK N   1      33.579  12.990   5.689  0.00  0.00     0.170 HD
ENDBRANCH   1   6
BRANCH   3  16
HETATM   16  O   UNK N   1      35.272  18.082   9.558  0.00  0.00    -0.390 OA
HETATM   17  H   UNK N   1      36.059  18.647   9.500  0.00  0.00     0.210 HD
ENDBRANCH   3  16
BRANCH   4  18
HETATM   18  C   UNK N   1      34.848  13.772  11.568  0.00  0.00     0.215 C 
BRANCH  18  19
HETATM   19  O   UNK N   1      35.166  14.472  12.743  0.00  0.00    -0.294 OA
BRANCH  19  20
HETATM   20  P   UNK N   1      36.156  13.401  13.695  0.00  0.00     0.390 P 
HETATM   21  O   UNK N   1      34.806  13.341  14.460  0.00  0.00    -0.632 OA
BRANCH  20  22
HETATM   22  O   UNK N   1      36.629  13.828  15.310  0.00  0.00    -0.307 OA
HETATM   23  H   UNK N   1      36.760  14.757  15.552  0.00  0.00     0.222 HD
ENDBRANCH  20  22
BRANCH  20  24
HETATM   24  O   UNK N   1      36.782  15.019  13.766  0.00  0.00    -0.307 OA
HETATM   25  H   UNK N   1      36.394  15.907  13.716  0.00  0.00     0.222 HD
ENDBRANCH  20  24
ENDBRANCH  19  20
ENDBRANCH  18  19
ENDBRANCH   4  18
BRANCH   5  26
HETATM   26  O   UNK N   1      36.974  15.910  10.949  0.00  0.00    -0.390 OA
HETATM   27  H   UNK N   1      37.884  16.243  10.990  0.00  0.00     0.210 HD
ENDBRANCH   5  26
TORSDOF 8
ENDMDL
MODEL 8
REMARK VINA RESULT:      -6.0      2.128      3.283
REMARK  8 active torsions:
REMARK  status: ('A' for Active; 'I' for Inactive)
REMARK    1  A    between atoms: C_1  and  C_2 
REMARK    2  A    between atoms: C_4  and  O_9 
REMARK    3  A    between atoms: C_7  and  C_13 
REMARK    4  A    between atoms: C_8  and  O_14 
REMARK    5  A    between atoms: C_13  and  O_16 
REMARK    6  A    between atoms: O_16  and  P_18 
REMARK    7  A    between atoms: P_18  and  O_19 
REMARK    8  A    between atoms: P_18  and  O_20 
ROOT
HETATM    1  C   UNK N   1      35.050  12.038  14.828  0.00  0.00     0.193 C 
HETATM    2  O   UNK N   1      34.740  13.243  14.159  0.00  0.00    -0.368 OA
HETATM    3  C   UNK N   1      36.371  11.518  14.258  0.00  0.00     0.183 C 
HETATM    4  C   UNK N   1      35.950  13.633  13.573  0.00  0.00     0.178 C 
HETATM    5  C   UNK N   1      36.541  12.365  13.036  0.00  0.00     0.180 C 
ENDROOT
BRANCH   1   6
HETATM    6  C   UNK N   1      35.141  12.273  16.321  0.00  0.00     0.057 A 
HETATM    7  C   UNK N   1      35.213  11.214  17.241  0.00  0.00     0.259 A 
HETATM    8  N   UNK N   1      35.273  11.483  18.584  0.00  0.00    -0.275 N 
HETATM    9  O   UNK N   1      35.211  10.057  16.858  0.00  0.00    -0.267 OA
HETATM   10  C   UNK N   1      35.264  12.773  19.041  0.00  0.00     0.326 A 
HETATM   11  H   UNK N   1      35.324  10.739  19.226  0.00  0.00     0.173 HD
HETATM   12  O   UNK N   1      35.314  12.997  20.238  0.00  0.00    -0.247 OA
HETATM   13  N   UNK N   1      35.196  13.813  18.156  0.00  0.00    -0.318 N 
HETATM   14  C   UNK N   1      35.132  13.582  16.821  0.00  0.00     0.108 A 
HETATM   15  H   UNK N   1      35.193  14.739  18.491  0.00  0.00     0.170 HD
ENDBRANCH   1   6
BRANCH   3  16
HETATM   16  O   UNK N   1      36.280  10.169  13.914  0.00  0.00    -0.390 OA
HETATM   17  H   UNK N   1      35.810   9.532  14.475  0.00  0.00     0.210 HD
ENDBRANCH   3  16
BRANCH   4  18
HETATM   18  C   UNK N   1      35.728  14.701  12.518  0.00  0.00     0.215 C 
BRANCH  18  19
HETATM   19  O   UNK N   1      34.456  14.544  11.945  0.00  0.00    -0.294 OA
BRANCH  19  20
HETATM   20  P   UNK N   1      34.560  15.205  10.337  0.00  0.00     0.390 P 
HETATM   21  O   UNK N   1      35.250  16.315  11.177  0.00  0.00    -0.632 OA
BRANCH  20  22
HETATM   22  O   UNK N   1      33.653  16.618   9.895  0.00  0.00    -0.307 OA
HETATM   23  H   UNK N   1      34.098  17.376   9.487  0.00  0.00     0.222 HD
ENDBRANCH  20  22
BRANCH  20  24
HETATM   24  O   UNK N   1      32.899  15.069  10.823  0.00  0.00    -0.307 OA
HETATM   25  H   UNK N   1      32.058  15.422  10.494  0.00  0.00     0.222 HD
ENDBRANCH  20  24
ENDBRANCH  19  20
ENDBRANCH  18  19
ENDBRANCH   4  18
BRANCH   5  26
HETATM   26  O   UNK N   1      37.889  12.517  12.711  0.00  0.00    -0.390 OA
HETATM   27  H   UNK N   1      38.795  12.201  12.571  0.00  0.00     0.210 HD
ENDBRANCH   5  26
TORSDOF 8
ENDMDL
MODEL 9
REMARK VINA RESULT:      -5.9      3.882      6.784
REMARK  8 active torsions:
REMARK  status: ('A' for Active; 'I' for Inactive)
REMARK    1  A    between atoms: C_1  and  C_2 
REMARK    2  A    between atoms: C_4  and  O_9 
REMARK    3  A    between atoms: C_7  and  C_13 
REMARK    4  A    between atoms: C_8  and  O_14 
REMARK    5  A    between atoms: C_13  and  O_16 
REMARK    6  A    between atoms: O_16  and  P_18 
REMARK    7  A    between atoms: P_18  and  O_19 
REMARK    8  A    between atoms: P_18  and  O_20 
ROOT
HETATM    1  C   UNK N   1      33.972  15.808  10.403  0.00  0.00     0.193 C 
HETATM    2  O   UNK N   1      34.133  14.715  11.283  0.00  0.00    -0.368 OA
HETATM    3  C   UNK N   1      35.367  16.326  10.047  0.00  0.00     0.183 C 
HETATM    4  C   UNK N   1      35.471  14.340  11.126  0.00  0.00     0.178 C 
HETATM    5  C   UNK N   1      36.226  15.632  11.058  0.00  0.00     0.180 C 
ENDROOT
BRANCH   1   6
HETATM    6  C   UNK N   1      33.204  15.383   9.168  0.00  0.00     0.057 A 
HETATM    7  C   UNK N   1      32.608  16.313   8.302  0.00  0.00     0.259 A 
HETATM    8  N   UNK N   1      31.907  15.871   7.209  0.00  0.00    -0.275 N 
HETATM    9  O   UNK N   1      32.698  17.509   8.517  0.00  0.00    -0.267 OA
HETATM   10  C   UNK N   1      31.780  14.533   6.952  0.00  0.00     0.326 A 
HETATM   11  H   UNK N   1      31.490  16.526   6.603  0.00  0.00     0.173 HD
HETATM   12  O   UNK N   1      31.151  14.156   5.980  0.00  0.00    -0.247 OA
HETATM   13  N   UNK N   1      32.358  13.617   7.788  0.00  0.00    -0.318 N 
HETATM   14  C   UNK N   1      33.055  14.020   8.878  0.00  0.00     0.108 A 
HETATM   15  H   UNK N   1      32.266  12.656   7.594  0.00  0.00     0.170 HD
ENDBRANCH   1   6
BRANCH   3  16
HETATM   16  O   UNK N   1      35.450  17.710  10.198  0.00  0.00    -0.390 OA
HETATM   17  H   UNK N   1      36.135  18.122  10.749  0.00  0.00     0.210 HD
ENDBRANCH   3  16
BRANCH   4  18
HETATM   18  C   UNK N   1      35.920  13.425  12.252  0.00  0.00     0.215 C 
BRANCH  18  19
HETATM   19  O   UNK N   1      36.429  14.195  13.311  0.00  0.00    -0.294 OA
BRANCH  19  20
HETATM   20  P   UNK N   1      36.454  13.150  14.704  0.00  0.00     0.390 P 
HETATM   21  O   UNK N   1      34.930  13.391  14.522  0.00  0.00    -0.632 OA
BRANCH  20  22
HETATM   22  O   UNK N   1      35.985  13.741  16.268  0.00  0.00    -0.307 OA
HETATM   23  H   UNK N   1      35.359  13.239  16.811  0.00  0.00     0.222 HD
ENDBRANCH  20  22
BRANCH  20  24
HETATM   24  O   UNK N   1      37.232  14.658  15.071  0.00  0.00    -0.307 OA
HETATM   25  H   UNK N   1      38.134  14.924  15.308  0.00  0.00     0.222 HD
ENDBRANCH  20  24
ENDBRANCH  19  20
ENDBRANCH  18  19
ENDBRANCH   4  18
BRANCH   5  26
HETATM   26  O   UNK N   1      37.523  15.451  10.578  0.00  0.00    -0.390 OA
HETATM   27  H   UNK N   1      38.446  15.158  10.641  0.00  0.00     0.210 HD
ENDBRANCH   5  26
TORSDOF 8
ENDMDL
