MODEL 1
REMARK VINA RESULT:      -8.3      0.000      0.000
REMARK  30 active torsions:
REMARK  status: ('A' for Active; 'I' for Inactive)
REMARK    1  A    between atoms: C_6  and  C_4 
REMARK    2  A    between atoms: C_17  and  C_4 
REMARK    3  A    between atoms: C_7  and  C_5 
REMARK    4  A    between atoms: C_16  and  C_5 
REMARK    5  A    between atoms: C_21  and  C_6 
REMARK    6  A    between atoms: C_22  and  C_7 
REMARK    7  A    between atoms: C_19  and  C_10 
REMARK    8  A    between atoms: N_38  and  C_10 
REMARK    9  A    between atoms: C_20  and  C_11 
REMARK   10  A    between atoms: O_55  and  C_11 
REMARK   11  A    between atoms: C_25  and  C_12 
REMARK   12  A    between atoms: O_56  and  C_12 
REMARK   13  A    between atoms: O_39  and  C_14 
REMARK   14  A    between atoms: C_27  and  C_16 
REMARK   15  A    between atoms: C_16  and  N_30 
REMARK   16  A    between atoms: C_28  and  C_17 
REMARK   17  A    between atoms: C_17  and  N_32 
REMARK   18  A    between atoms: C_23  and  C_19 
REMARK   19  A    between atoms: C_19  and  O_40 
REMARK   20  A    between atoms: C_23  and  C_20 
REMARK   21  A    between atoms: C_20  and  O_41 
REMARK   22  A    between atoms: C_21  and  O_42 
REMARK   23  A    between atoms: O_44  and  C_22 
REMARK   24  A    between atoms: C_23  and  O_45 
REMARK   25  A    between atoms: C_25  and  O_46 
REMARK   26  A    between atoms: O_47  and  C_26 
REMARK   27  A    between atoms: O_49  and  C_27 
REMARK   28  A    between atoms: O_51  and  C_28 
REMARK   29  A    between atoms: P_57  and  O_55 
REMARK   30  A    between atoms: P_57  and  O_56 
ROOT
HETATM    1  O   UNK N   1      34.966  17.007  10.833  0.00  0.00    -0.307 OA
HETATM    2  O   UNK N   1      33.429  15.172   9.650  0.00  0.00    -0.631 OA
HETATM    3  P   UNK N   1      34.751  15.971   9.456  0.00  0.00     0.393 P 
HETATM    4  H   UNK N   1      35.128  17.459  11.676  0.00  0.00     0.222 HD
ENDROOT
BRANCH   3   5
HETATM    5  O   UNK N   1      36.046  14.844   9.405  0.00  0.00    -0.294 OA
BRANCH   5   6
HETATM    6  C   UNK N   1      36.731  15.028  10.609  0.00  0.00     0.214 C 
BRANCH   6   7
HETATM    7  C   UNK N   1      36.589  13.759  11.404  0.00  0.00     0.173 C 
BRANCH   7   8
HETATM    8  C   UNK N   1      35.737  14.018  12.675  0.00  0.00     0.179 C 
BRANCH   8   9
HETATM    9  C   UNK N   1      36.185  13.175  13.876  0.00  0.00     0.167 C 
BRANCH   9  10
HETATM   10  C   UNK N   1      34.931  12.681  14.628  0.00  0.00     0.165 C 
BRANCH  10  11
HETATM   11  N   UNK N   1      35.196  11.782  15.753  0.00  0.00    -0.329 N 
HETATM   12  C   UNK N   1      35.383  10.443  15.505  0.00  0.00     0.049 A 
HETATM   13  C   UNK N   1      35.340   9.935  14.193  0.00  0.00     0.067 A 
HETATM   14  C   UNK N   1      35.621   9.552  16.572  0.00  0.00    -0.008 A 
HETATM   15  C   UNK N   1      35.507   8.574  13.949  0.00  0.00     0.067 A 
HETATM   16  C   UNK N   1      35.734   7.697  15.013  0.00  0.00     0.037 A 
HETATM   17  C   UNK N   1      35.794   8.186  16.323  0.00  0.00     0.016 A 
HETATM   18  C   UNK N   1      35.675  10.038  17.875  0.00  0.00     0.033 A 
HETATM   19  C   UNK N   1      35.502  11.403  18.113  0.00  0.00     0.060 A 
HETATM   20  C   UNK N   1      35.268  12.273  17.031  0.00  0.00     0.126 A 
HETATM   21  C   UNK N   1      35.548  11.931  19.408  0.00  0.00     0.158 A 
HETATM   22  N   UNK N   1      35.102  13.605  17.271  0.00  0.00    -0.293 N 
HETATM   23  C   UNK N   1      35.152  14.104  18.543  0.00  0.00     0.327 A 
ATOM     24  HN  UNK N   1      34.940  14.239  16.489  1.00  0.00     0.172 HD
HETATM   25  N   UNK N   1      35.371  13.265  19.601  0.00  0.00    -0.288 N 
HETATM   26  O   UNK N   1      34.995  15.297  18.733  0.00  0.00    -0.247 OA
ATOM     27  HN  UNK N   1      35.404  13.646  20.547  1.00  0.00     0.172 HD
BRANCH  15  28
HETATM   28  O   UNK N   1      35.444   8.106  12.691  0.00  0.00    -0.361 OA
HETATM   29  H   UNK N   1      36.224   7.978  12.188  0.00  0.00     0.217 HD
ENDBRANCH  15  28
BRANCH  21  30
HETATM   30  O   UNK N   1      35.760  11.130  20.468  0.00  0.00    -0.345 OA
HETATM   31  H   UNK N   1      35.830  11.447  21.346  0.00  0.00     0.219 HD
ENDBRANCH  21  30
ENDBRANCH  10  11
ENDBRANCH   9  10
BRANCH   9  32
HETATM   32  O   UNK N   1      37.063  13.902  14.689  0.00  0.00    -0.391 OA
HETATM   33  H   UNK N   1      37.852  14.441  14.855  0.00  0.00     0.210 HD
ENDBRANCH   9  32
ENDBRANCH   8   9
BRANCH   8  34
HETATM   34  O   UNK N   1      34.400  13.751  12.372  0.00  0.00    -0.390 OA
HETATM   35  H   UNK N   1      34.069  12.850  12.230  0.00  0.00     0.210 HD
ENDBRANCH   8  34
ENDBRANCH   7   8
BRANCH   7  36
HETATM   36  O   UNK N   1      37.873  13.318  11.713  0.00  0.00    -0.391 OA
HETATM   37  H   UNK N   1      38.437  13.837  12.307  0.00  0.00     0.210 HD
ENDBRANCH   7  36
ENDBRANCH   6   7
ENDBRANCH   5   6
ENDBRANCH   3   5
BRANCH   3  38
HETATM   38  O   UNK N   1      34.789  16.813   7.909  0.00  0.00    -0.284 OA
BRANCH  38  39
HETATM   39  C   UNK N   1      34.032  16.152   6.925  0.00  0.00     0.203 C 
HETATM   40  C   UNK N   1      34.919  15.251   6.066  0.00  0.00     0.049 C 
BRANCH  39  41
HETATM   41  C   UNK N   1      33.130  17.132   6.192  0.00  0.00     0.142 C 
HETATM   42  N   UNK N   1      31.864  17.241   6.410  0.00  0.00    -0.358 N 
ATOM     43  HN  UNK N   1      31.400  18.009   5.924  1.00  0.00     0.162 HD
BRANCH  42  44
HETATM   44  C   UNK N   1      31.008  16.429   7.247  0.00  0.00     0.181 C 
BRANCH  44  45
HETATM   45  C   UNK N   1      29.748  16.066   6.437  0.00  0.00     0.044 C 
BRANCH  45  46
HETATM   46  C   UNK N   1      29.317  17.163   5.458  0.00  0.00     0.086 C 
BRANCH  46  47
HETATM   47  C   UNK N   1      28.070  17.910   5.863  0.00  0.00     0.112 C 
HETATM   48  N   UNK N   1      27.888  19.114   5.434  0.00  0.00    -0.360 N 
ATOM     49  HN  UNK N   1      28.644  19.559   4.914  1.00  0.00     0.162 HD
BRANCH  48  50
HETATM   50  C   UNK N   1      26.662  19.873   5.652  0.00  0.00     0.181 C 
BRANCH  50  51
HETATM   51  C   UNK N   1      26.443  20.793   4.450  0.00  0.00     0.046 C 
BRANCH  51  52
HETATM   52  C   UNK N   1      25.960  20.044   3.214  0.00  0.00     0.112 C 
BRANCH  52  53
HETATM   53  C   UNK N   1      24.495  20.239   3.033  0.00  0.00     0.139 C 
HETATM   54  O   UNK N   1      24.084  21.084   2.257  0.00  0.00    -0.650 OA
BRANCH  53  55
HETATM   55  O   UNK N   1      23.625  19.467   3.711  0.00  0.00    -0.776 OA
HETATM   56  H   UNK N   1      22.980  19.816   4.295  0.00  0.00     0.167 HD
ENDBRANCH  53  55
ENDBRANCH  52  53
ENDBRANCH  51  52
ENDBRANCH  50  51
BRANCH  50  57
HETATM   57  C   UNK N   1      26.651  20.633   6.970  0.00  0.00     0.163 C 
HETATM   58  O   UNK N   1      26.387  21.824   6.991  0.00  0.00    -0.648 OA
BRANCH  57  59
HETATM   59  O   UNK N   1      26.985  20.017   8.121  0.00  0.00    -0.775 OA
HETATM   60  H   UNK N   1      26.551  19.276   8.497  0.00  0.00     0.167 HD
ENDBRANCH  57  59
ENDBRANCH  50  57
ENDBRANCH  48  50
BRANCH  47  61
HETATM   61  O   UNK N   1      27.102  17.289   6.566  0.00  0.00    -0.350 OA
HETATM   62  H   UNK N   1      27.295  16.629   7.202  0.00  0.00     0.219 HD
ENDBRANCH  47  61
ENDBRANCH  46  47
ENDBRANCH  45  46
ENDBRANCH  44  45
BRANCH  44  63
HETATM   63  C   UNK N   1      30.753  17.156   8.539  0.00  0.00     0.163 C 
HETATM   64  O   UNK N   1      30.502  18.350   8.551  0.00  0.00    -0.648 OA
BRANCH  63  65
HETATM   65  O   UNK N   1      30.781  16.471   9.699  0.00  0.00    -0.775 OA
HETATM   66  H   UNK N   1      30.796  16.839  10.561  0.00  0.00     0.167 HD
ENDBRANCH  63  65
ENDBRANCH  44  63
ENDBRANCH  42  44
BRANCH  41  67
HETATM   67  O   UNK N   1      33.690  17.998   5.322  0.00  0.00    -0.348 OA
HETATM   68  H   UNK N   1      34.436  18.562   5.361  0.00  0.00     0.219 HD
ENDBRANCH  41  67
ENDBRANCH  39  41
ENDBRANCH  38  39
ENDBRANCH   3  38
TORSDOF 30
ENDMDL
MODEL 2
REMARK VINA RESULT:      -8.3      1.788      4.029
REMARK  30 active torsions:
REMARK  status: ('A' for Active; 'I' for Inactive)
REMARK    1  A    between atoms: C_6  and  C_4 
REMARK    2  A    between atoms: C_17  and  C_4 
REMARK    3  A    between atoms: C_7  and  C_5 
REMARK    4  A    between atoms: C_16  and  C_5 
REMARK    5  A    between atoms: C_21  and  C_6 
REMARK    6  A    between atoms: C_22  and  C_7 
REMARK    7  A    between atoms: C_19  and  C_10 
REMARK    8  A    between atoms: N_38  and  C_10 
REMARK    9  A    between atoms: C_20  and  C_11 
REMARK   10  A    between atoms: O_55  and  C_11 
REMARK   11  A    between atoms: C_25  and  C_12 
REMARK   12  A    between atoms: O_56  and  C_12 
REMARK   13  A    between atoms: O_39  and  C_14 
REMARK   14  A    between atoms: C_27  and  C_16 
REMARK   15  A    between atoms: C_16  and  N_30 
REMARK   16  A    between atoms: C_28  and  C_17 
REMARK   17  A    between atoms: C_17  and  N_32 
REMARK   18  A    between atoms: C_23  and  C_19 
REMARK   19  A    between atoms: C_19  and  O_40 
REMARK   20  A    between atoms: C_23  and  C_20 
REMARK   21  A    between atoms: C_20  and  O_41 
REMARK   22  A    between atoms: C_21  and  O_42 
REMARK   23  A    between atoms: O_44  and  C_22 
REMARK   24  A    between atoms: C_23  and  O_45 
REMARK   25  A    between atoms: C_25  and  O_46 
REMARK   26  A    between atoms: O_47  and  C_26 
REMARK   27  A    between atoms: O_49  and  C_27 
REMARK   28  A    between atoms: O_51  and  C_28 
REMARK   29  A    between atoms: P_57  and  O_55 
REMARK   30  A    between atoms: P_57  and  O_56 
ROOT
HETATM    1  O   UNK N   1      34.561  17.811   6.844  0.00  0.00    -0.307 OA
HETATM    2  O   UNK N   1      35.310  18.217   9.374  0.00  0.00    -0.631 OA
HETATM    3  P   UNK N   1      34.420  17.290   8.495  0.00  0.00     0.393 P 
HETATM    4  H   UNK N   1      34.776  18.033   5.925  0.00  0.00     0.222 HD
ENDROOT
BRANCH   3   5
HETATM    5  O   UNK N   1      35.036  15.691   8.624  0.00  0.00    -0.294 OA
BRANCH   5   6
HETATM    6  C   UNK N   1      34.961  15.385   9.984  0.00  0.00     0.214 C 
BRANCH   6   7
HETATM    7  C   UNK N   1      36.361  15.118  10.463  0.00  0.00     0.173 C 
BRANCH   7   8
HETATM    8  C   UNK N   1      36.392  13.836  11.336  0.00  0.00     0.179 C 
BRANCH   8   9
HETATM    9  C   UNK N   1      35.744  14.037  12.713  0.00  0.00     0.167 C 
BRANCH   9  10
HETATM   10  C   UNK N   1      36.753  13.613  13.801  0.00  0.00     0.165 C 
BRANCH  10  11
HETATM   11  N   UNK N   1      36.356  12.451  14.598  0.00  0.00    -0.329 N 
HETATM   12  C   UNK N   1      35.958  12.642  15.900  0.00  0.00     0.049 A 
HETATM   13  C   UNK N   1      35.914  13.930  16.464  0.00  0.00     0.067 A 
HETATM   14  C   UNK N   1      35.588  11.538  16.696  0.00  0.00    -0.008 A 
HETATM   15  C   UNK N   1      35.532  14.116  17.791  0.00  0.00     0.067 A 
HETATM   16  C   UNK N   1      35.176  13.016  18.574  0.00  0.00     0.037 A 
HETATM   17  C   UNK N   1      35.199  11.728  18.027  0.00  0.00     0.016 A 
HETATM   18  C   UNK N   1      35.618  10.258  16.153  0.00  0.00     0.033 A 
HETATM   19  C   UNK N   1      36.006  10.078  14.823  0.00  0.00     0.060 A 
HETATM   20  C   UNK N   1      36.369  11.195  14.048  0.00  0.00     0.126 A 
HETATM   21  C   UNK N   1      36.050   8.807  14.240  0.00  0.00     0.158 A 
HETATM   22  N   UNK N   1      36.744  11.013  12.750  0.00  0.00    -0.293 N 
HETATM   23  C   UNK N   1      36.781   9.763  12.195  0.00  0.00     0.327 A 
ATOM     24  HN  UNK N   1      37.000  11.821  12.183  1.00  0.00     0.172 HD
HETATM   25  N   UNK N   1      36.436   8.670  12.944  0.00  0.00    -0.288 N 
HETATM   26  O   UNK N   1      37.125   9.624  11.035  0.00  0.00    -0.247 OA
ATOM     27  HN  UNK N   1      36.469   7.742  12.522  1.00  0.00     0.172 HD
BRANCH  15  28
HETATM   28  O   UNK N   1      35.514  15.353  18.316  0.00  0.00    -0.361 OA
HETATM   29  H   UNK N   1      35.659  16.105  17.776  0.00  0.00     0.217 HD
ENDBRANCH  15  28
BRANCH  21  30
HETATM   30  O   UNK N   1      35.720   7.714  14.951  0.00  0.00    -0.345 OA
HETATM   31  H   UNK N   1      34.921   7.241  14.826  0.00  0.00     0.219 HD
ENDBRANCH  21  30
ENDBRANCH  10  11
ENDBRANCH   9  10
BRANCH   9  32
HETATM   32  O   UNK N   1      34.529  13.346  12.791  0.00  0.00    -0.391 OA
HETATM   33  H   UNK N   1      33.620  13.148  12.516  0.00  0.00     0.210 HD
ENDBRANCH   9  32
ENDBRANCH   8   9
BRANCH   8  34
HETATM   34  O   UNK N   1      37.721  13.434  11.485  0.00  0.00    -0.390 OA
HETATM   35  H   UNK N   1      38.174  12.882  10.828  0.00  0.00     0.210 HD
ENDBRANCH   8  34
ENDBRANCH   7   8
BRANCH   7  36
HETATM   36  O   UNK N   1      36.782  16.244  11.165  0.00  0.00    -0.391 OA
HETATM   37  H   UNK N   1      37.556  16.194  11.747  0.00  0.00     0.210 HD
ENDBRANCH   7  36
ENDBRANCH   6   7
ENDBRANCH   5   6
ENDBRANCH   3   5
BRANCH   3  38
HETATM   38  O   UNK N   1      32.763  17.214   9.087  0.00  0.00    -0.284 OA
BRANCH  38  39
HETATM   39  C   UNK N   1      31.823  17.256   8.041  0.00  0.00     0.203 C 
HETATM   40  C   UNK N   1      30.501  17.857   8.518  0.00  0.00     0.049 C 
BRANCH  39  41
HETATM   41  C   UNK N   1      31.753  15.916   7.327  0.00  0.00     0.142 C 
HETATM   42  N   UNK N   1      31.496  15.787   6.070  0.00  0.00    -0.358 N 
ATOM     43  HN  UNK N   1      31.582  14.840   5.700  1.00  0.00     0.162 HD
BRANCH  42  44
HETATM   44  C   UNK N   1      31.102  16.795   5.110  0.00  0.00     0.181 C 
BRANCH  44  45
HETATM   45  C   UNK N   1      29.726  16.403   4.537  0.00  0.00     0.044 C 
BRANCH  45  46
HETATM   46  C   UNK N   1      28.722  15.968   5.610  0.00  0.00     0.086 C 
BRANCH  46  47
HETATM   47  C   UNK N   1      27.737  17.036   6.017  0.00  0.00     0.112 C 
HETATM   48  N   UNK N   1      27.629  18.102   5.298  0.00  0.00    -0.360 N 
ATOM     49  HN  UNK N   1      28.287  18.234   4.530  1.00  0.00     0.162 HD
BRANCH  48  50
HETATM   50  C   UNK N   1      26.619  19.130   5.523  0.00  0.00     0.181 C 
BRANCH  50  51
HETATM   51  C   UNK N   1      26.224  19.724   4.170  0.00  0.00     0.046 C 
BRANCH  51  52
HETATM   52  C   UNK N   1      24.727  19.639   3.902  0.00  0.00     0.112 C 
BRANCH  52  53
HETATM   53  C   UNK N   1      24.330  20.643   2.877  0.00  0.00     0.139 C 
HETATM   54  O   UNK N   1      25.097  20.927   1.973  0.00  0.00    -0.650 OA
BRANCH  53  55
HETATM   55  O   UNK N   1      23.116  21.222   2.936  0.00  0.00    -0.776 OA
HETATM   56  H   UNK N   1      22.902  22.008   2.472  0.00  0.00     0.167 HD
ENDBRANCH  53  55
ENDBRANCH  52  53
ENDBRANCH  51  52
ENDBRANCH  50  51
BRANCH  50  57
HETATM   57  C   UNK N   1      27.056  20.196   6.516  0.00  0.00     0.163 C 
HETATM   58  O   UNK N   1      27.274  21.336   6.138  0.00  0.00    -0.648 OA
BRANCH  57  59
HETATM   59  O   UNK N   1      27.262  19.886   7.811  0.00  0.00    -0.775 OA
HETATM   60  H   UNK N   1      27.230  20.482   8.533  0.00  0.00     0.167 HD
ENDBRANCH  57  59
ENDBRANCH  50  57
ENDBRANCH  48  50
BRANCH  47  61
HETATM   61  O   UNK N   1      26.897  16.829   7.050  0.00  0.00    -0.350 OA
HETATM   62  H   UNK N   1      26.620  17.525   7.614  0.00  0.00     0.219 HD
ENDBRANCH  47  61
ENDBRANCH  46  47
ENDBRANCH  45  46
ENDBRANCH  44  45
BRANCH  44  63
HETATM   63  C   UNK N   1      32.199  16.957   4.092  0.00  0.00     0.163 C 
HETATM   64  O   UNK N   1      33.341  16.606   4.335  0.00  0.00    -0.648 OA
BRANCH  63  65
HETATM   65  O   UNK N   1      31.906  17.480   2.885  0.00  0.00    -0.775 OA
HETATM   66  H   UNK N   1      32.501  17.588   2.169  0.00  0.00     0.167 HD
ENDBRANCH  63  65
ENDBRANCH  44  63
ENDBRANCH  42  44
BRANCH  41  67
HETATM   67  O   UNK N   1      32.055  14.799   8.020  0.00  0.00    -0.348 OA
HETATM   68  H   UNK N   1      32.825  14.501   8.461  0.00  0.00     0.219 HD
ENDBRANCH  41  67
ENDBRANCH  39  41
ENDBRANCH  38  39
ENDBRANCH   3  38
TORSDOF 30
ENDMDL
MODEL 3
REMARK VINA RESULT:      -8.1      1.597      3.556
REMARK  30 active torsions:
REMARK  status: ('A' for Active; 'I' for Inactive)
REMARK    1  A    between atoms: C_6  and  C_4 
REMARK    2  A    between atoms: C_17  and  C_4 
REMARK    3  A    between atoms: C_7  and  C_5 
REMARK    4  A    between atoms: C_16  and  C_5 
REMARK    5  A    between atoms: C_21  and  C_6 
REMARK    6  A    between atoms: C_22  and  C_7 
REMARK    7  A    between atoms: C_19  and  C_10 
REMARK    8  A    between atoms: N_38  and  C_10 
REMARK    9  A    between atoms: C_20  and  C_11 
REMARK   10  A    between atoms: O_55  and  C_11 
REMARK   11  A    between atoms: C_25  and  C_12 
REMARK   12  A    between atoms: O_56  and  C_12 
REMARK   13  A    between atoms: O_39  and  C_14 
REMARK   14  A    between atoms: C_27  and  C_16 
REMARK   15  A    between atoms: C_16  and  N_30 
REMARK   16  A    between atoms: C_28  and  C_17 
REMARK   17  A    between atoms: C_17  and  N_32 
REMARK   18  A    between atoms: C_23  and  C_19 
REMARK   19  A    between atoms: C_19  and  O_40 
REMARK   20  A    between atoms: C_23  and  C_20 
REMARK   21  A    between atoms: C_20  and  O_41 
REMARK   22  A    between atoms: C_21  and  O_42 
REMARK   23  A    between atoms: O_44  and  C_22 
REMARK   24  A    between atoms: C_23  and  O_45 
REMARK   25  A    between atoms: C_25  and  O_46 
REMARK   26  A    between atoms: O_47  and  C_26 
REMARK   27  A    between atoms: O_49  and  C_27 
REMARK   28  A    between atoms: O_51  and  C_28 
REMARK   29  A    between atoms: P_57  and  O_55 
REMARK   30  A    between atoms: P_57  and  O_56 
ROOT
HETATM    1  O   UNK N   1      33.247  13.529   8.672  0.00  0.00    -0.307 OA
HETATM    2  O   UNK N   1      35.380  12.632   7.341  0.00  0.00    -0.631 OA
HETATM    3  P   UNK N   1      34.864  13.867   8.137  0.00  0.00     0.393 P 
HETATM    4  H   UNK N   1      32.410  13.252   9.077  0.00  0.00     0.222 HD
ENDROOT
BRANCH   3   5
HETATM    5  O   UNK N   1      35.872  14.064   9.515  0.00  0.00    -0.294 OA
BRANCH   5   6
HETATM    6  C   UNK N   1      35.534  15.318  10.031  0.00  0.00     0.214 C 
BRANCH   6   7
HETATM    7  C   UNK N   1      35.024  15.104  11.429  0.00  0.00     0.173 C 
BRANCH   7   8
HETATM    8  C   UNK N   1      35.734  13.886  12.076  0.00  0.00     0.179 C 
BRANCH   8   9
HETATM    9  C   UNK N   1      35.255  13.607  13.507  0.00  0.00     0.167 C 
BRANCH   9  10
HETATM   10  C   UNK N   1      36.487  13.357  14.402  0.00  0.00     0.165 C 
BRANCH  10  11
HETATM   11  N   UNK N   1      36.476  12.091  15.136  0.00  0.00    -0.329 N 
HETATM   12  C   UNK N   1      36.058  12.086  16.446  0.00  0.00     0.049 A 
HETATM   13  C   UNK N   1      35.631  13.269  17.077  0.00  0.00     0.067 A 
HETATM   14  C   UNK N   1      36.055  10.883  17.183  0.00  0.00    -0.008 A 
HETATM   15  C   UNK N   1      35.231  13.263  18.411  0.00  0.00     0.067 A 
HETATM   16  C   UNK N   1      35.240  12.069  19.136  0.00  0.00     0.037 A 
HETATM   17  C   UNK N   1      35.647  10.879  18.522  0.00  0.00     0.016 A 
HETATM   18  C   UNK N   1      36.466   9.702  16.574  0.00  0.00     0.033 A 
HETATM   19  C   UNK N   1      36.871   9.717  15.237  0.00  0.00     0.060 A 
HETATM   20  C   UNK N   1      36.863  10.929  14.521  0.00  0.00     0.126 A 
HETATM   21  C   UNK N   1      37.292   8.551  14.588  0.00  0.00     0.158 A 
HETATM   22  N   UNK N   1      37.256  10.935  13.216  0.00  0.00    -0.293 N 
HETATM   23  C   UNK N   1      37.665   9.786  12.597  0.00  0.00     0.327 A 
ATOM     24  HN  UNK N   1      37.245  11.811  12.693  1.00  0.00     0.172 HD
HETATM   25  N   UNK N   1      37.682   8.604  13.287  0.00  0.00    -0.288 N 
HETATM   26  O   UNK N   1      38.017   9.817  11.432  0.00  0.00    -0.247 OA
ATOM     27  HN  UNK N   1      37.990   7.753  12.817  1.00  0.00     0.172 HD
BRANCH  15  28
HETATM   28  O   UNK N   1      34.845  14.407  19.001  0.00  0.00    -0.361 OA
HETATM   29  H   UNK N   1      34.596  15.150  18.487  0.00  0.00     0.217 HD
ENDBRANCH  15  28
BRANCH  21  30
HETATM   30  O   UNK N   1      37.322   7.375  15.241  0.00  0.00    -0.345 OA
HETATM   31  H   UNK N   1      36.587   6.798  15.295  0.00  0.00     0.219 HD
ENDBRANCH  21  30
ENDBRANCH  10  11
ENDBRANCH   9  10
BRANCH   9  32
HETATM   32  O   UNK N   1      34.340  12.546  13.523  0.00  0.00    -0.391 OA
HETATM   33  H   UNK N   1      33.748  11.913  13.957  0.00  0.00     0.210 HD
ENDBRANCH   9  32
ENDBRANCH   8   9
BRANCH   8  34
HETATM   34  O   UNK N   1      37.111  14.121  12.068  0.00  0.00    -0.390 OA
HETATM   35  H   UNK N   1      37.511  14.881  12.519  0.00  0.00     0.210 HD
ENDBRANCH   8  34
ENDBRANCH   7   8
BRANCH   7  36
HETATM   36  O   UNK N   1      33.645  14.926  11.345  0.00  0.00    -0.391 OA
HETATM   37  H   UNK N   1      33.199  14.294  11.929  0.00  0.00     0.210 HD
ENDBRANCH   7  36
ENDBRANCH   6   7
ENDBRANCH   5   6
ENDBRANCH   3   5
BRANCH   3  38
HETATM   38  O   UNK N   1      35.019  15.357   7.212  0.00  0.00    -0.284 OA
BRANCH  38  39
HETATM   39  C   UNK N   1      34.011  15.487   6.239  0.00  0.00     0.203 C 
HETATM   40  C   UNK N   1      34.512  15.031   4.869  0.00  0.00     0.049 C 
BRANCH  39  41
HETATM   41  C   UNK N   1      33.365  16.860   6.315  0.00  0.00     0.142 C 
HETATM   42  N   UNK N   1      32.202  17.077   6.828  0.00  0.00    -0.358 N 
ATOM     43  HN  UNK N   1      31.934  18.058   6.908  1.00  0.00     0.162 HD
BRANCH  42  44
HETATM   44  C   UNK N   1      31.223  16.125   7.306  0.00  0.00     0.181 C 
BRANCH  44  45
HETATM   45  C   UNK N   1      30.003  16.176   6.365  0.00  0.00     0.044 C 
BRANCH  45  46
HETATM   46  C   UNK N   1      29.808  17.540   5.694  0.00  0.00     0.086 C 
BRANCH  46  47
HETATM   47  C   UNK N   1      28.531  18.249   6.071  0.00  0.00     0.112 C 
HETATM   48  N   UNK N   1      28.067  19.170   5.296  0.00  0.00    -0.360 N 
ATOM     49  HN  UNK N   1      28.634  19.460   4.500  1.00  0.00     0.162 HD
BRANCH  48  50
HETATM   50  C   UNK N   1      26.777  19.820   5.495  0.00  0.00     0.181 C 
BRANCH  50  51
HETATM   51  C   UNK N   1      26.253  20.282   4.134  0.00  0.00     0.046 C 
BRANCH  51  52
HETATM   52  C   UNK N   1      24.815  19.851   3.876  0.00  0.00     0.112 C 
BRANCH  52  53
HETATM   53  C   UNK N   1      24.226  20.657   2.772  0.00  0.00     0.139 C 
HETATM   54  O   UNK N   1      24.757  20.668   1.675  0.00  0.00    -0.650 OA
BRANCH  53  55
HETATM   55  O   UNK N   1      23.094  21.357   2.979  0.00  0.00    -0.776 OA
HETATM   56  H   UNK N   1      22.693  21.441   3.822  0.00  0.00     0.167 HD
ENDBRANCH  53  55
ENDBRANCH  52  53
ENDBRANCH  51  52
ENDBRANCH  50  51
BRANCH  50  57
HETATM   57  C   UNK N   1      26.823  20.952   6.510  0.00  0.00     0.163 C 
HETATM   58  O   UNK N   1      27.677  21.819   6.426  0.00  0.00    -0.648 OA
BRANCH  57  59
HETATM   59  O   UNK N   1      25.958  20.983   7.544  0.00  0.00    -0.775 OA
HETATM   60  H   UNK N   1      25.935  20.380   8.262  0.00  0.00     0.167 HD
ENDBRANCH  57  59
ENDBRANCH  50  57
ENDBRANCH  48  50
BRANCH  47  61
HETATM   61  O   UNK N   1      27.819  17.845   7.143  0.00  0.00    -0.350 OA
HETATM   62  H   UNK N   1      26.921  18.081   7.262  0.00  0.00     0.219 HD
ENDBRANCH  47  61
ENDBRANCH  46  47
ENDBRANCH  45  46
ENDBRANCH  44  45
BRANCH  44  63
HETATM   63  C   UNK N   1      30.928  16.409   8.754  0.00  0.00     0.163 C 
HETATM   64  O   UNK N   1      29.973  17.095   9.080  0.00  0.00    -0.648 OA
BRANCH  63  65
HETATM   65  O   UNK N   1      31.722  15.880   9.706  0.00  0.00    -0.775 OA
HETATM   66  H   UNK N   1      32.549  16.218   9.989  0.00  0.00     0.167 HD
ENDBRANCH  63  65
ENDBRANCH  44  63
ENDBRANCH  42  44
BRANCH  41  67
HETATM   67  O   UNK N   1      34.072  17.931   5.901  0.00  0.00    -0.348 OA
HETATM   68  H   UNK N   1      34.968  18.061   5.662  0.00  0.00     0.219 HD
ENDBRANCH  41  67
ENDBRANCH  39  41
ENDBRANCH  38  39
ENDBRANCH   3  38
TORSDOF 30
ENDMDL
MODEL 4
REMARK VINA RESULT:      -8.1      2.675     12.638
REMARK  30 active torsions:
REMARK  status: ('A' for Active; 'I' for Inactive)
REMARK    1  A    between atoms: C_6  and  C_4 
REMARK    2  A    between atoms: C_17  and  C_4 
REMARK    3  A    between atoms: C_7  and  C_5 
REMARK    4  A    between atoms: C_16  and  C_5 
REMARK    5  A    between atoms: C_21  and  C_6 
REMARK    6  A    between atoms: C_22  and  C_7 
REMARK    7  A    between atoms: C_19  and  C_10 
REMARK    8  A    between atoms: N_38  and  C_10 
REMARK    9  A    between atoms: C_20  and  C_11 
REMARK   10  A    between atoms: O_55  and  C_11 
REMARK   11  A    between atoms: C_25  and  C_12 
REMARK   12  A    between atoms: O_56  and  C_12 
REMARK   13  A    between atoms: O_39  and  C_14 
REMARK   14  A    between atoms: C_27  and  C_16 
REMARK   15  A    between atoms: C_16  and  N_30 
REMARK   16  A    between atoms: C_28  and  C_17 
REMARK   17  A    between atoms: C_17  and  N_32 
REMARK   18  A    between atoms: C_23  and  C_19 
REMARK   19  A    between atoms: C_19  and  O_40 
REMARK   20  A    between atoms: C_23  and  C_20 
REMARK   21  A    between atoms: C_20  and  O_41 
REMARK   22  A    between atoms: C_21  and  O_42 
REMARK   23  A    between atoms: O_44  and  C_22 
REMARK   24  A    between atoms: C_23  and  O_45 
REMARK   25  A    between atoms: C_25  and  O_46 
REMARK   26  A    between atoms: O_47  and  C_26 
REMARK   27  A    between atoms: O_49  and  C_27 
REMARK   28  A    between atoms: O_51  and  C_28 
REMARK   29  A    between atoms: P_57  and  O_55 
REMARK   30  A    between atoms: P_57  and  O_56 
ROOT
HETATM    1  O   UNK N   1      37.931  13.330  11.689  0.00  0.00    -0.307 OA
HETATM    2  O   UNK N   1      37.958  13.215   9.022  0.00  0.00    -0.631 OA
HETATM    3  P   UNK N   1      37.070  13.665  10.219  0.00  0.00     0.393 P 
HETATM    4  H   UNK N   1      38.495  13.265  12.476  0.00  0.00     0.222 HD
ENDROOT
BRANCH   3   5
HETATM    5  O   UNK N   1      36.835  15.363  10.092  0.00  0.00    -0.294 OA
BRANCH   5   6
HETATM    6  C   UNK N   1      35.970  15.686  11.140  0.00  0.00     0.214 C 
BRANCH   6   7
HETATM    7  C   UNK N   1      34.937  16.633  10.594  0.00  0.00     0.173 C 
BRANCH   7   8
HETATM    8  C   UNK N   1      33.943  15.870   9.680  0.00  0.00     0.179 C 
BRANCH   8   9
HETATM    9  C   UNK N   1      32.920  16.795   9.007  0.00  0.00     0.167 C 
BRANCH   9  10
HETATM   10  C   UNK N   1      31.874  15.927   8.276  0.00  0.00     0.165 C 
BRANCH  10  11
HETATM   11  N   UNK N   1      31.372  16.487   7.020  0.00  0.00    -0.329 N 
HETATM   12  C   UNK N   1      30.192  17.192   7.031  0.00  0.00     0.049 A 
HETATM   13  C   UNK N   1      29.478  17.394   8.226  0.00  0.00     0.067 A 
HETATM   14  C   UNK N   1      29.676  17.726   5.831  0.00  0.00    -0.008 A 
HETATM   15  C   UNK N   1      28.271  18.091   8.227  0.00  0.00     0.067 A 
HETATM   16  C   UNK N   1      27.763  18.608   7.034  0.00  0.00     0.037 A 
HETATM   17  C   UNK N   1      28.466  18.429   5.837  0.00  0.00     0.016 A 
HETATM   18  C   UNK N   1      30.373  17.542   4.641  0.00  0.00     0.033 A 
HETATM   19  C   UNK N   1      31.579  16.840   4.646  0.00  0.00     0.060 A 
HETATM   20  C   UNK N   1      32.076  16.318   5.855  0.00  0.00     0.126 A 
HETATM   21  C   UNK N   1      32.310  16.633   3.470  0.00  0.00     0.158 A 
HETATM   22  N   UNK N   1      33.256  15.636   5.853  0.00  0.00    -0.293 N 
HETATM   23  C   UNK N   1      33.957  15.444   4.695  0.00  0.00     0.327 A 
ATOM     24  HN  UNK N   1      33.622  15.263   6.729  1.00  0.00     0.172 HD
HETATM   25  N   UNK N   1      33.479  15.941   3.513  0.00  0.00    -0.288 N 
HETATM   26  O   UNK N   1      35.007  14.826   4.716  0.00  0.00    -0.247 OA
ATOM     27  HN  UNK N   1      34.008  15.791   2.654  1.00  0.00     0.172 HD
BRANCH  15  28
HETATM   28  O   UNK N   1      27.595  18.257   9.377  0.00  0.00    -0.361 OA
HETATM   29  H   UNK N   1      27.627  19.072   9.837  0.00  0.00     0.217 HD
ENDBRANCH  15  28
BRANCH  21  30
HETATM   30  O   UNK N   1      31.864  17.107   2.293  0.00  0.00    -0.345 OA
HETATM   31  H   UNK N   1      32.227  17.860   1.871  0.00  0.00     0.219 HD
ENDBRANCH  21  30
ENDBRANCH  10  11
ENDBRANCH   9  10
BRANCH   9  32
HETATM   32  O   UNK N   1      33.563  17.709   8.163  0.00  0.00    -0.391 OA
HETATM   33  H   UNK N   1      34.236  18.375   7.951  0.00  0.00     0.210 HD
ENDBRANCH   9  32
ENDBRANCH   8   9
BRANCH   8  34
HETATM   34  O   UNK N   1      33.287  14.906  10.449  0.00  0.00    -0.390 OA
HETATM   35  H   UNK N   1      33.309  14.911  11.418  0.00  0.00     0.210 HD
ENDBRANCH   8  34
ENDBRANCH   7   8
BRANCH   7  36
HETATM   36  O   UNK N   1      35.616  17.638   9.910  0.00  0.00    -0.391 OA
HETATM   37  H   UNK N   1      36.586  17.655   9.906  0.00  0.00     0.210 HD
ENDBRANCH   7  36
ENDBRANCH   6   7
ENDBRANCH   5   6
ENDBRANCH   3   5
BRANCH   3  38
HETATM   38  O   UNK N   1      35.461  12.953  10.149  0.00  0.00    -0.284 OA
BRANCH  38  39
HETATM   39  C   UNK N   1      35.372  11.768  10.902  0.00  0.00     0.203 C 
HETATM   40  C   UNK N   1      34.350  10.808  10.293  0.00  0.00     0.049 C 
BRANCH  39  41
HETATM   41  C   UNK N   1      35.224  12.083  12.382  0.00  0.00     0.142 C 
HETATM   42  N   UNK N   1      35.845  11.445  13.315  0.00  0.00    -0.358 N 
ATOM     43  HN  UNK N   1      35.735  11.827  14.255  1.00  0.00     0.162 HD
BRANCH  42  44
HETATM   44  C   UNK N   1      36.678  10.267  13.218  0.00  0.00     0.181 C 
BRANCH  44  45
HETATM   45  C   UNK N   1      35.886   9.070  13.781  0.00  0.00     0.044 C 
BRANCH  45  46
HETATM   46  C   UNK N   1      35.805   9.060  15.311  0.00  0.00     0.086 C 
BRANCH  46  47
HETATM   47  C   UNK N   1      34.996  10.187  15.904  0.00  0.00     0.112 C 
HETATM   48  N   UNK N   1      35.519  10.923  16.826  0.00  0.00    -0.360 N 
ATOM     49  HN  UNK N   1      36.431  10.655  17.196  1.00  0.00     0.162 HD
BRANCH  48  50
HETATM   50  C   UNK N   1      34.880  12.116  17.369  0.00  0.00     0.181 C 
BRANCH  50  51
HETATM   51  C   UNK N   1      35.170  13.289  16.431  0.00  0.00     0.046 C 
BRANCH  51  52
HETATM   52  C   UNK N   1      36.576  13.849  16.603  0.00  0.00     0.112 C 
BRANCH  52  53
HETATM   53  C   UNK N   1      36.938  14.701  15.437  0.00  0.00     0.139 C 
HETATM   54  O   UNK N   1      36.720  14.307  14.304  0.00  0.00    -0.650 OA
BRANCH  53  55
HETATM   55  O   UNK N   1      37.484  15.916  15.633  0.00  0.00    -0.776 OA
HETATM   56  H   UNK N   1      37.002  16.644  15.973  0.00  0.00     0.167 HD
ENDBRANCH  53  55
ENDBRANCH  52  53
ENDBRANCH  51  52
ENDBRANCH  50  51
BRANCH  50  57
HETATM   57  C   UNK N   1      35.280  12.413  18.806  0.00  0.00     0.163 C 
HETATM   58  O   UNK N   1      35.909  11.591  19.452  0.00  0.00    -0.648 OA
BRANCH  57  59
HETATM   59  O   UNK N   1      34.900  13.561  19.401  0.00  0.00    -0.775 OA
HETATM   60  H   UNK N   1      34.020  13.868  19.497  0.00  0.00     0.167 HD
ENDBRANCH  57  59
ENDBRANCH  50  57
ENDBRANCH  48  50
BRANCH  47  61
HETATM   61  O   UNK N   1      33.786  10.497  15.397  0.00  0.00    -0.350 OA
HETATM   62  H   UNK N   1      33.437  11.366  15.438  0.00  0.00     0.219 HD
ENDBRANCH  47  61
ENDBRANCH  46  47
ENDBRANCH  45  46
ENDBRANCH  44  45
BRANCH  44  63
HETATM   63  C   UNK N   1      37.995  10.539  13.893  0.00  0.00     0.163 C 
HETATM   64  O   UNK N   1      38.805   9.646  14.076  0.00  0.00    -0.648 OA
BRANCH  63  65
HETATM   65  O   UNK N   1      38.290  11.795  14.282  0.00  0.00    -0.775 OA
HETATM   66  H   UNK N   1      37.835  12.575  14.030  0.00  0.00     0.167 HD
ENDBRANCH  63  65
ENDBRANCH  44  63
ENDBRANCH  42  44
BRANCH  41  67
HETATM   67  O   UNK N   1      34.466  13.138  12.746  0.00  0.00    -0.348 OA
HETATM   68  H   UNK N   1      33.543  13.291  12.773  0.00  0.00     0.219 HD
ENDBRANCH  41  67
ENDBRANCH  39  41
ENDBRANCH  38  39
ENDBRANCH   3  38
TORSDOF 30
ENDMDL
MODEL 5
REMARK VINA RESULT:      -8.0      8.310     12.505
REMARK  30 active torsions:
REMARK  status: ('A' for Active; 'I' for Inactive)
REMARK    1  A    between atoms: C_6  and  C_4 
REMARK    2  A    between atoms: C_17  and  C_4 
REMARK    3  A    between atoms: C_7  and  C_5 
REMARK    4  A    between atoms: C_16  and  C_5 
REMARK    5  A    between atoms: C_21  and  C_6 
REMARK    6  A    between atoms: C_22  and  C_7 
REMARK    7  A    between atoms: C_19  and  C_10 
REMARK    8  A    between atoms: N_38  and  C_10 
REMARK    9  A    between atoms: C_20  and  C_11 
REMARK   10  A    between atoms: O_55  and  C_11 
REMARK   11  A    between atoms: C_25  and  C_12 
REMARK   12  A    between atoms: O_56  and  C_12 
REMARK   13  A    between atoms: O_39  and  C_14 
REMARK   14  A    between atoms: C_27  and  C_16 
REMARK   15  A    between atoms: C_16  and  N_30 
REMARK   16  A    between atoms: C_28  and  C_17 
REMARK   17  A    between atoms: C_17  and  N_32 
REMARK   18  A    between atoms: C_23  and  C_19 
REMARK   19  A    between atoms: C_19  and  O_40 
REMARK   20  A    between atoms: C_23  and  C_20 
REMARK   21  A    between atoms: C_20  and  O_41 
REMARK   22  A    between atoms: C_21  and  O_42 
REMARK   23  A    between atoms: O_44  and  C_22 
REMARK   24  A    between atoms: C_23  and  O_45 
REMARK   25  A    between atoms: C_25  and  O_46 
REMARK   26  A    between atoms: O_47  and  C_26 
REMARK   27  A    between atoms: O_49  and  C_27 
REMARK   28  A    between atoms: O_51  and  C_28 
REMARK   29  A    between atoms: P_57  and  O_55 
REMARK   30  A    between atoms: P_57  and  O_56 
ROOT
HETATM    1  O   UNK N   1      22.268  12.951   2.274  0.00  0.00    -0.307 OA
HETATM    2  O   UNK N   1      23.648  14.040   0.264  0.00  0.00    -0.631 OA
HETATM    3  P   UNK N   1      22.702  14.413   1.443  0.00  0.00     0.393 P 
HETATM    4  H   UNK N   1      22.166  12.141   2.798  0.00  0.00     0.222 HD
ENDROOT
BRANCH   3   5
HETATM    5  O   UNK N   1      23.578  15.423   2.522  0.00  0.00    -0.294 OA
BRANCH   5   6
HETATM    6  C   UNK N   1      24.921  15.127   2.282  0.00  0.00     0.214 C 
BRANCH   6   7
HETATM    7  C   UNK N   1      25.741  15.974   3.216  0.00  0.00     0.173 C 
BRANCH   7   8
HETATM    8  C   UNK N   1      27.201  15.451   3.269  0.00  0.00     0.179 C 
BRANCH   8   9
HETATM    9  C   UNK N   1      28.141  16.381   4.048  0.00  0.00     0.167 C 
BRANCH   9  10
HETATM   10  C   UNK N   1      28.602  15.656   5.330  0.00  0.00     0.165 C 
BRANCH  10  11
HETATM   11  N   UNK N   1      29.842  16.165   5.919  0.00  0.00    -0.329 N 
HETATM   12  C   UNK N   1      29.771  16.932   7.058  0.00  0.00     0.049 A 
HETATM   13  C   UNK N   1      28.535  17.216   7.667  0.00  0.00     0.067 A 
HETATM   14  C   UNK N   1      30.950  17.451   7.635  0.00  0.00    -0.008 A 
HETATM   15  C   UNK N   1      28.468  18.012   8.808  0.00  0.00     0.067 A 
HETATM   16  C   UNK N   1      29.638  18.529   9.368  0.00  0.00     0.037 A 
HETATM   17  C   UNK N   1      30.879  18.246   8.785  0.00  0.00     0.016 A 
HETATM   18  C   UNK N   1      32.181  17.174   7.051  0.00  0.00     0.033 A 
HETATM   19  C   UNK N   1      32.241  16.379   5.905  0.00  0.00     0.060 A 
HETATM   20  C   UNK N   1      31.053  15.871   5.348  0.00  0.00     0.126 A 
HETATM   21  C   UNK N   1      33.460  16.078   5.286  0.00  0.00     0.158 A 
HETATM   22  N   UNK N   1      31.119  15.093   4.230  0.00  0.00    -0.293 N 
HETATM   23  C   UNK N   1      32.319  14.808   3.640  0.00  0.00     0.327 A 
ATOM     24  HN  UNK N   1      30.260  14.717   3.829  1.00  0.00     0.172 HD
HETATM   25  N   UNK N   1      33.480  15.304   4.170  0.00  0.00    -0.288 N 
HETATM   26  O   UNK N   1      32.353  14.115   2.639  0.00  0.00    -0.247 OA
ATOM     27  HN  UNK N   1      34.370  15.088   3.721  1.00  0.00     0.172 HD
BRANCH  15  28
HETATM   28  O   UNK N   1      27.275  18.287   9.364  0.00  0.00    -0.361 OA
HETATM   29  H   UNK N   1      26.680  17.598   9.585  0.00  0.00     0.217 HD
ENDBRANCH  15  28
BRANCH  21  30
HETATM   30  O   UNK N   1      34.617  16.554   5.783  0.00  0.00    -0.345 OA
HETATM   31  H   UNK N   1      35.376  16.710   5.258  0.00  0.00     0.219 HD
ENDBRANCH  21  30
ENDBRANCH  10  11
ENDBRANCH   9  10
BRANCH   9  32
HETATM   32  O   UNK N   1      27.518  17.609   4.304  0.00  0.00    -0.391 OA
HETATM   33  H   UNK N   1      26.884  18.187   4.756  0.00  0.00     0.210 HD
ENDBRANCH   9  32
ENDBRANCH   8   9
BRANCH   8  34
HETATM   34  O   UNK N   1      27.660  15.290   1.960  0.00  0.00    -0.390 OA
HETATM   35  H   UNK N   1      28.440  15.758   1.621  0.00  0.00     0.210 HD
ENDBRANCH   8  34
ENDBRANCH   7   8
BRANCH   7  36
HETATM   36  O   UNK N   1      25.123  15.935   4.463  0.00  0.00    -0.391 OA
HETATM   37  H   UNK N   1      24.431  16.578   4.683  0.00  0.00     0.210 HD
ENDBRANCH   7  36
ENDBRANCH   6   7
ENDBRANCH   5   6
ENDBRANCH   3   5
BRANCH   3  38
HETATM   38  O   UNK N   1      21.325  15.370   0.903  0.00  0.00    -0.284 OA
BRANCH  38  39
HETATM   39  C   UNK N   1      20.808  16.183   1.929  0.00  0.00     0.203 C 
HETATM   40  C   UNK N   1      20.211  15.334   3.051  0.00  0.00     0.049 C 
BRANCH  39  41
HETATM   41  C   UNK N   1      19.928  17.280   1.352  0.00  0.00     0.142 C 
HETATM   42  N   UNK N   1      20.159  18.538   1.508  0.00  0.00    -0.358 N 
ATOM     43  HN  UNK N   1      19.549  19.165   0.982  1.00  0.00     0.162 HD
BRANCH  42  44
HETATM   44  C   UNK N   1      21.161  19.189   2.322  0.00  0.00     0.181 C 
BRANCH  44  45
HETATM   45  C   UNK N   1      20.702  19.125   3.793  0.00  0.00     0.044 C 
BRANCH  45  46
HETATM   46  C   UNK N   1      21.793  18.635   4.750  0.00  0.00     0.086 C 
BRANCH  46  47
HETATM   47  C   UNK N   1      21.282  18.125   6.075  0.00  0.00     0.112 C 
HETATM   48  N   UNK N   1      21.163  16.853   6.259  0.00  0.00    -0.360 N 
ATOM     49  HN  UNK N   1      21.325  16.235   5.464  1.00  0.00     0.162 HD
BRANCH  48  50
HETATM   50  C   UNK N   1      20.810  16.251   7.539  0.00  0.00     0.181 C 
BRANCH  50  51
HETATM   51  C   UNK N   1      21.571  14.931   7.678  0.00  0.00     0.046 C 
BRANCH  51  52
HETATM   52  C   UNK N   1      22.782  14.847   6.758  0.00  0.00     0.112 C 
BRANCH  52  53
HETATM   53  C   UNK N   1      22.595  13.759   5.760  0.00  0.00     0.139 C 
HETATM   54  O   UNK N   1      21.519  13.193   5.668  0.00  0.00    -0.650 OA
BRANCH  53  55
HETATM   55  O   UNK N   1      23.608  13.413   4.943  0.00  0.00    -0.776 OA
HETATM   56  H   UNK N   1      24.188  14.039   4.555  0.00  0.00     0.167 HD
ENDBRANCH  53  55
ENDBRANCH  52  53
ENDBRANCH  51  52
ENDBRANCH  50  51
BRANCH  50  57
HETATM   57  C   UNK N   1      19.311  16.076   7.729  0.00  0.00     0.163 C 
HETATM   58  O   UNK N   1      18.574  15.995   6.761  0.00  0.00    -0.648 OA
BRANCH  57  59
HETATM   59  O   UNK N   1      18.773  16.063   8.965  0.00  0.00    -0.775 OA
HETATM   60  H   UNK N   1      18.751  16.783   9.565  0.00  0.00     0.167 HD
ENDBRANCH  57  59
ENDBRANCH  50  57
ENDBRANCH  48  50
BRANCH  47  61
HETATM   61  O   UNK N   1      21.064  18.979   7.095  0.00  0.00    -0.350 OA
HETATM   62  H   UNK N   1      21.640  19.694   7.278  0.00  0.00     0.219 HD
ENDBRANCH  47  61
ENDBRANCH  46  47
ENDBRANCH  45  46
ENDBRANCH  44  45
BRANCH  44  63
HETATM   63  C   UNK N   1      21.406  20.574   1.787  0.00  0.00     0.163 C 
HETATM   64  O   UNK N   1      21.430  20.790   0.587  0.00  0.00    -0.648 OA
BRANCH  63  65
HETATM   65  O   UNK N   1      21.578  21.595   2.650  0.00  0.00    -0.775 OA
HETATM   66  H   UNK N   1      21.373  21.589   3.564  0.00  0.00     0.167 HD
ENDBRANCH  63  65
ENDBRANCH  44  63
ENDBRANCH  42  44
BRANCH  41  67
HETATM   67  O   UNK N   1      18.891  16.929   0.563  0.00  0.00    -0.348 OA
HETATM   68  H   UNK N   1      18.359  16.161   0.499  0.00  0.00     0.219 HD
ENDBRANCH  41  67
ENDBRANCH  39  41
ENDBRANCH  38  39
ENDBRANCH   3  38
TORSDOF 30
ENDMDL
MODEL 6
REMARK VINA RESULT:      -8.0      1.657      3.708
REMARK  30 active torsions:
REMARK  status: ('A' for Active; 'I' for Inactive)
REMARK    1  A    between atoms: C_6  and  C_4 
REMARK    2  A    between atoms: C_17  and  C_4 
REMARK    3  A    between atoms: C_7  and  C_5 
REMARK    4  A    between atoms: C_16  and  C_5 
REMARK    5  A    between atoms: C_21  and  C_6 
REMARK    6  A    between atoms: C_22  and  C_7 
REMARK    7  A    between atoms: C_19  and  C_10 
REMARK    8  A    between atoms: N_38  and  C_10 
REMARK    9  A    between atoms: C_20  and  C_11 
REMARK   10  A    between atoms: O_55  and  C_11 
REMARK   11  A    between atoms: C_25  and  C_12 
REMARK   12  A    between atoms: O_56  and  C_12 
REMARK   13  A    between atoms: O_39  and  C_14 
REMARK   14  A    between atoms: C_27  and  C_16 
REMARK   15  A    between atoms: C_16  and  N_30 
REMARK   16  A    between atoms: C_28  and  C_17 
REMARK   17  A    between atoms: C_17  and  N_32 
REMARK   18  A    between atoms: C_23  and  C_19 
REMARK   19  A    between atoms: C_19  and  O_40 
REMARK   20  A    between atoms: C_23  and  C_20 
REMARK   21  A    between atoms: C_20  and  O_41 
REMARK   22  A    between atoms: C_21  and  O_42 
REMARK   23  A    between atoms: O_44  and  C_22 
REMARK   24  A    between atoms: C_23  and  O_45 
REMARK   25  A    between atoms: C_25  and  O_46 
REMARK   26  A    between atoms: O_47  and  C_26 
REMARK   27  A    between atoms: O_49  and  C_27 
REMARK   28  A    between atoms: O_51  and  C_28 
REMARK   29  A    between atoms: P_57  and  O_55 
REMARK   30  A    between atoms: P_57  and  O_56 
ROOT
HETATM    1  O   UNK N   1      32.313  13.663   8.446  0.00  0.00    -0.307 OA
HETATM    2  O   UNK N   1      34.508  14.220   7.032  0.00  0.00    -0.631 OA
HETATM    3  P   UNK N   1      33.919  14.325   8.469  0.00  0.00     0.393 P 
HETATM    4  H   UNK N   1      31.486  13.157   8.430  0.00  0.00     0.222 HD
ENDROOT
BRANCH   3   5
HETATM    5  O   UNK N   1      34.895  13.370   9.511  0.00  0.00    -0.294 OA
BRANCH   5   6
HETATM    6  C   UNK N   1      35.930  14.218   9.912  0.00  0.00     0.214 C 
BRANCH   6   7
HETATM    7  C   UNK N   1      36.536  13.629  11.156  0.00  0.00     0.173 C 
BRANCH   7   8
HETATM    8  C   UNK N   1      35.836  14.204  12.415  0.00  0.00     0.179 C 
BRANCH   8   9
HETATM    9  C   UNK N   1      36.245  13.485  13.707  0.00  0.00     0.167 C 
BRANCH   9  10
HETATM   10  C   UNK N   1      34.974  12.947  14.398  0.00  0.00     0.165 C 
BRANCH  10  11
HETATM   11  N   UNK N   1      35.189  11.813  15.299  0.00  0.00    -0.329 N 
HETATM   12  C   UNK N   1      35.237  12.041  16.654  0.00  0.00     0.049 A 
HETATM   13  C   UNK N   1      35.067  13.335  17.180  0.00  0.00     0.067 A 
HETATM   14  C   UNK N   1      35.463  10.969  17.544  0.00  0.00    -0.008 A 
HETATM   15  C   UNK N   1      35.140  13.563  18.552  0.00  0.00     0.067 A 
HETATM   16  C   UNK N   1      35.372  12.498  19.424  0.00  0.00     0.037 A 
HETATM   17  C   UNK N   1      35.529  11.201  18.922  0.00  0.00     0.016 A 
HETATM   18  C   UNK N   1      35.625   9.682  17.042  0.00  0.00     0.033 A 
HETATM   19  C   UNK N   1      35.556   9.461  15.665  0.00  0.00     0.060 A 
HETATM   20  C   UNK N   1      35.328  10.545  14.797  0.00  0.00     0.126 A 
HETATM   21  C   UNK N   1      35.715   8.181  15.121  0.00  0.00     0.158 A 
HETATM   22  N   UNK N   1      35.259  10.321  13.454  0.00  0.00    -0.293 N 
HETATM   23  C   UNK N   1      35.416   9.064  12.940  0.00  0.00     0.327 A 
ATOM     24  HN  UNK N   1      35.087  11.104  12.823  1.00  0.00     0.172 HD
HETATM   25  N   UNK N   1      35.645   8.005  13.775  0.00  0.00    -0.288 N 
HETATM   26  O   UNK N   1      35.356   8.889  11.736  0.00  0.00    -0.247 OA
ATOM     27  HN  UNK N   1      35.763   7.071  13.382  1.00  0.00     0.172 HD
BRANCH  15  28
HETATM   28  O   UNK N   1      34.993  14.809  19.033  0.00  0.00    -0.361 OA
HETATM   29  H   UNK N   1      35.670  15.448  18.923  0.00  0.00     0.217 HD
ENDBRANCH  15  28
BRANCH  21  30
HETATM   30  O   UNK N   1      35.944   7.121  15.917  0.00  0.00    -0.345 OA
HETATM   31  H   UNK N   1      35.299   6.468  16.101  0.00  0.00     0.219 HD
ENDBRANCH  21  30
ENDBRANCH  10  11
ENDBRANCH   9  10
BRANCH   9  32
HETATM   32  O   UNK N   1      36.999  14.334  14.527  0.00  0.00    -0.391 OA
HETATM   33  H   UNK N   1      37.594  15.082  14.694  0.00  0.00     0.210 HD
ENDBRANCH   9  32
ENDBRANCH   8   9
BRANCH   8  34
HETATM   34  O   UNK N   1      34.454  14.114  12.232  0.00  0.00    -0.390 OA
HETATM   35  H   UNK N   1      33.998  13.264  12.128  0.00  0.00     0.210 HD
ENDBRANCH   8  34
ENDBRANCH   7   8
BRANCH   7  36
HETATM   36  O   UNK N   1      37.898  13.920  11.132  0.00  0.00    -0.391 OA
HETATM   37  H   UNK N   1      38.274  14.431  10.399  0.00  0.00     0.210 HD
ENDBRANCH   7  36
ENDBRANCH   6   7
ENDBRANCH   5   6
ENDBRANCH   3   5
BRANCH   3  38
HETATM   38  O   UNK N   1      34.011  15.967   9.099  0.00  0.00    -0.284 OA
BRANCH  38  39
HETATM   39  C   UNK N   1      33.684  16.929   8.126  0.00  0.00     0.203 C 
HETATM   40  C   UNK N   1      34.522  18.195   8.304  0.00  0.00     0.049 C 
BRANCH  39  41
HETATM   41  C   UNK N   1      32.177  17.108   8.032  0.00  0.00     0.142 C 
HETATM   42  N   UNK N   1      31.489  16.844   6.974  0.00  0.00    -0.358 N 
ATOM     43  HN  UNK N   1      30.477  16.910   7.081  1.00  0.00     0.162 HD
BRANCH  42  44
HETATM   44  C   UNK N   1      31.950  16.466   5.656  0.00  0.00     0.181 C 
BRANCH  44  45
HETATM   45  C   UNK N   1      31.408  17.494   4.644  0.00  0.00     0.044 C 
BRANCH  45  46
HETATM   46  C   UNK N   1      30.002  17.162   4.131  0.00  0.00     0.086 C 
BRANCH  46  47
HETATM   47  C   UNK N   1      28.880  17.762   4.942  0.00  0.00     0.112 C 
HETATM   48  N   UNK N   1      28.324  18.855   4.539  0.00  0.00    -0.360 N 
ATOM     49  HN  UNK N   1      28.729  19.333   3.734  1.00  0.00     0.162 HD
BRANCH  48  50
HETATM   50  C   UNK N   1      27.149  19.444   5.169  0.00  0.00     0.181 C 
BRANCH  50  51
HETATM   51  C   UNK N   1      26.426  20.306   4.133  0.00  0.00     0.046 C 
BRANCH  51  52
HETATM   52  C   UNK N   1      25.011  19.820   3.844  0.00  0.00     0.112 C 
BRANCH  52  53
HETATM   53  C   UNK N   1      24.402  20.629   2.753  0.00  0.00     0.139 C 
HETATM   54  O   UNK N   1      24.908  20.637   1.644  0.00  0.00    -0.650 OA
BRANCH  53  55
HETATM   55  O   UNK N   1      23.279  21.336   2.985  0.00  0.00    -0.776 OA
HETATM   56  H   UNK N   1      22.656  21.102   3.644  0.00  0.00     0.167 HD
ENDBRANCH  53  55
ENDBRANCH  52  53
ENDBRANCH  51  52
ENDBRANCH  50  51
BRANCH  50  57
HETATM   57  C   UNK N   1      27.471  20.217   6.439  0.00  0.00     0.163 C 
HETATM   58  O   UNK N   1      27.804  21.389   6.379  0.00  0.00    -0.648 OA
BRANCH  57  59
HETATM   59  O   UNK N   1      27.446  19.605   7.640  0.00  0.00    -0.775 OA
HETATM   60  H   UNK N   1      26.903  18.880   7.879  0.00  0.00     0.167 HD
ENDBRANCH  57  59
ENDBRANCH  50  57
ENDBRANCH  48  50
BRANCH  47  61
HETATM   61  O   UNK N   1      28.386  17.106   6.010  0.00  0.00    -0.350 OA
HETATM   62  H   UNK N   1      27.483  17.164   6.257  0.00  0.00     0.219 HD
ENDBRANCH  47  61
ENDBRANCH  46  47
ENDBRANCH  45  46
ENDBRANCH  44  45
BRANCH  44  63
HETATM   63  C   UNK N   1      31.559  15.037   5.390  0.00  0.00     0.163 C 
HETATM   64  O   UNK N   1      30.764  14.458   6.112  0.00  0.00    -0.648 OA
BRANCH  63  65
HETATM   65  O   UNK N   1      32.080  14.397   4.325  0.00  0.00    -0.775 OA
HETATM   66  H   UNK N   1      31.622  13.821   3.745  0.00  0.00     0.167 HD
ENDBRANCH  63  65
ENDBRANCH  44  63
ENDBRANCH  42  44
BRANCH  41  67
HETATM   67  O   UNK N   1      31.502  17.486   9.137  0.00  0.00    -0.348 OA
HETATM   68  H   UNK N   1      30.803  18.090   9.292  0.00  0.00     0.219 HD
ENDBRANCH  41  67
ENDBRANCH  39  41
ENDBRANCH  38  39
ENDBRANCH   3  38
TORSDOF 30
ENDMDL
MODEL 7
REMARK VINA RESULT:      -8.0      8.032     11.573
REMARK  30 active torsions:
REMARK  status: ('A' for Active; 'I' for Inactive)
REMARK    1  A    between atoms: C_6  and  C_4 
REMARK    2  A    between atoms: C_17  and  C_4 
REMARK    3  A    between atoms: C_7  and  C_5 
REMARK    4  A    between atoms: C_16  and  C_5 
REMARK    5  A    between atoms: C_21  and  C_6 
REMARK    6  A    between atoms: C_22  and  C_7 
REMARK    7  A    between atoms: C_19  and  C_10 
REMARK    8  A    between atoms: N_38  and  C_10 
REMARK    9  A    between atoms: C_20  and  C_11 
REMARK   10  A    between atoms: O_55  and  C_11 
REMARK   11  A    between atoms: C_25  and  C_12 
REMARK   12  A    between atoms: O_56  and  C_12 
REMARK   13  A    between atoms: O_39  and  C_14 
REMARK   14  A    between atoms: C_27  and  C_16 
REMARK   15  A    between atoms: C_16  and  N_30 
REMARK   16  A    between atoms: C_28  and  C_17 
REMARK   17  A    between atoms: C_17  and  N_32 
REMARK   18  A    between atoms: C_23  and  C_19 
REMARK   19  A    between atoms: C_19  and  O_40 
REMARK   20  A    between atoms: C_23  and  C_20 
REMARK   21  A    between atoms: C_20  and  O_41 
REMARK   22  A    between atoms: C_21  and  O_42 
REMARK   23  A    between atoms: O_44  and  C_22 
REMARK   24  A    between atoms: C_23  and  O_45 
REMARK   25  A    between atoms: C_25  and  O_46 
REMARK   26  A    between atoms: O_47  and  C_26 
REMARK   27  A    between atoms: O_49  and  C_27 
REMARK   28  A    between atoms: O_51  and  C_28 
REMARK   29  A    between atoms: P_57  and  O_55 
REMARK   30  A    between atoms: P_57  and  O_56 
ROOT
HETATM    1  O   UNK N   1      24.177  12.607   3.686  0.00  0.00    -0.307 OA
HETATM    2  O   UNK N   1      22.287  14.388   3.066  0.00  0.00    -0.631 OA
HETATM    3  P   UNK N   1      23.060  13.797   4.281  0.00  0.00     0.393 P 
HETATM    4  H   UNK N   1      24.885  12.062   3.308  0.00  0.00     0.222 HD
ENDROOT
BRANCH   3   5
HETATM    5  O   UNK N   1      23.950  15.073   5.011  0.00  0.00    -0.294 OA
BRANCH   5   6
HETATM    6  C   UNK N   1      25.107  15.193   4.238  0.00  0.00     0.214 C 
BRANCH   6   7
HETATM    7  C   UNK N   1      26.178  15.771   5.122  0.00  0.00     0.173 C 
BRANCH   7   8
HETATM    8  C   UNK N   1      27.051  14.634   5.715  0.00  0.00     0.179 C 
BRANCH   8   9
HETATM    9  C   UNK N   1      28.499  14.667   5.209  0.00  0.00     0.167 C 
BRANCH   9  10
HETATM   10  C   UNK N   1      28.935  16.140   5.053  0.00  0.00     0.165 C 
BRANCH  10  11
HETATM   11  N   UNK N   1      30.143  16.512   5.792  0.00  0.00    -0.329 N 
HETATM   12  C   UNK N   1      30.011  17.155   7.000  0.00  0.00     0.049 A 
HETATM   13  C   UNK N   1      28.742  17.441   7.536  0.00  0.00     0.067 A 
HETATM   14  C   UNK N   1      31.159  17.542   7.724  0.00  0.00    -0.008 A 
HETATM   15  C   UNK N   1      28.615  18.113   8.750  0.00  0.00     0.067 A 
HETATM   16  C   UNK N   1      29.756  18.500   9.455  0.00  0.00     0.037 A 
HETATM   17  C   UNK N   1      31.027  18.212   8.946  0.00  0.00     0.016 A 
HETATM   18  C   UNK N   1      32.421  17.260   7.214  0.00  0.00     0.033 A 
HETATM   19  C   UNK N   1      32.542  16.590   5.994  0.00  0.00     0.060 A 
HETATM   20  C   UNK N   1      31.383  16.212   5.291  0.00  0.00     0.126 A 
HETATM   21  C   UNK N   1      33.794  16.289   5.446  0.00  0.00     0.158 A 
HETATM   22  N   UNK N   1      31.508  15.556   4.102  0.00  0.00    -0.293 N 
HETATM   23  C   UNK N   1      32.740  15.268   3.582  0.00  0.00     0.327 A 
ATOM     24  HN  UNK N   1      30.670  15.274   3.594  1.00  0.00     0.172 HD
HETATM   25  N   UNK N   1      33.872  15.638   4.255  0.00  0.00    -0.288 N 
HETATM   26  O   UNK N   1      32.827  14.686   2.515  0.00  0.00    -0.247 OA
ATOM     27  HN  UNK N   1      34.786  15.422   3.857  1.00  0.00     0.172 HD
BRANCH  15  28
HETATM   28  O   UNK N   1      27.393  18.394   9.236  0.00  0.00    -0.361 OA
HETATM   29  H   UNK N   1      26.814  18.965   8.772  0.00  0.00     0.217 HD
ENDBRANCH  15  28
BRANCH  21  30
HETATM   30  O   UNK N   1      34.925  16.642   6.083  0.00  0.00    -0.345 OA
HETATM   31  H   UNK N   1      35.244  17.522   6.113  0.00  0.00     0.219 HD
ENDBRANCH  21  30
ENDBRANCH  10  11
ENDBRANCH   9  10
BRANCH   9  32
HETATM   32  O   UNK N   1      28.625  13.928   4.026  0.00  0.00    -0.391 OA
HETATM   33  H   UNK N   1      28.524  13.788   3.072  0.00  0.00     0.210 HD
ENDBRANCH   9  32
ENDBRANCH   8   9
BRANCH   8  34
HETATM   34  O   UNK N   1      26.459  13.410   5.396  0.00  0.00    -0.390 OA
HETATM   35  H   UNK N   1      25.954  13.274   4.579  0.00  0.00     0.210 HD
ENDBRANCH   8  34
ENDBRANCH   7   8
BRANCH   7  36
HETATM   36  O   UNK N   1      25.543  16.517   6.111  0.00  0.00    -0.391 OA
HETATM   37  H   UNK N   1      25.413  17.471   5.993  0.00  0.00     0.210 HD
ENDBRANCH   7  36
ENDBRANCH   6   7
ENDBRANCH   5   6
ENDBRANCH   3   5
BRANCH   3  38
HETATM   38  O   UNK N   1      21.969  13.199   5.527  0.00  0.00    -0.284 OA
BRANCH  38  39
HETATM   39  C   UNK N   1      22.130  13.882   6.747  0.00  0.00     0.203 C 
HETATM   40  C   UNK N   1      22.962  13.057   7.730  0.00  0.00     0.049 C 
BRANCH  39  41
HETATM   41  C   UNK N   1      20.795  14.409   7.247  0.00  0.00     0.142 C 
HETATM   42  N   UNK N   1      20.113  15.319   6.641  0.00  0.00    -0.358 N 
ATOM     43  HN  UNK N   1      19.188  15.505   7.029  1.00  0.00     0.162 HD
BRANCH  42  44
HETATM   44  C   UNK N   1      20.472  16.115   5.488  0.00  0.00     0.181 C 
BRANCH  44  45
HETATM   45  C   UNK N   1      20.739  17.557   5.962  0.00  0.00     0.044 C 
BRANCH  45  46
HETATM   46  C   UNK N   1      22.229  17.903   6.050  0.00  0.00     0.086 C 
BRANCH  46  47
HETATM   47  C   UNK N   1      22.894  18.161   4.720  0.00  0.00     0.112 C 
HETATM   48  N   UNK N   1      23.938  18.918   4.672  0.00  0.00    -0.360 N 
ATOM     49  HN  UNK N   1      24.222  19.401   5.524  1.00  0.00     0.162 HD
BRANCH  48  50
HETATM   50  C   UNK N   1      24.733  19.124   3.467  0.00  0.00     0.181 C 
BRANCH  50  51
HETATM   51  C   UNK N   1      26.211  19.145   3.861  0.00  0.00     0.046 C 
BRANCH  51  52
HETATM   52  C   UNK N   1      26.690  20.528   4.283  0.00  0.00     0.112 C 
BRANCH  52  53
HETATM   53  C   UNK N   1      26.930  20.563   5.752  0.00  0.00     0.139 C 
HETATM   54  O   UNK N   1      27.608  21.452   6.238  0.00  0.00    -0.650 OA
BRANCH  53  55
HETATM   55  O   UNK N   1      26.381  19.625   6.547  0.00  0.00    -0.776 OA
HETATM   56  H   UNK N   1      26.876  18.926   6.928  0.00  0.00     0.167 HD
ENDBRANCH  53  55
ENDBRANCH  52  53
ENDBRANCH  51  52
ENDBRANCH  50  51
BRANCH  50  57
HETATM   57  C   UNK N   1      24.327  20.362   2.682  0.00  0.00     0.163 C 
HETATM   58  O   UNK N   1      24.897  20.644   1.641  0.00  0.00    -0.648 OA
BRANCH  57  59
HETATM   59  O   UNK N   1      23.373  21.191   3.151  0.00  0.00    -0.775 OA
HETATM   60  H   UNK N   1      23.262  22.092   2.918  0.00  0.00     0.167 HD
ENDBRANCH  57  59
ENDBRANCH  50  57
ENDBRANCH  48  50
BRANCH  47  61
HETATM   61  O   UNK N   1      22.474  17.516   3.613  0.00  0.00    -0.350 OA
HETATM   62  H   UNK N   1      22.644  16.606   3.473  0.00  0.00     0.219 HD
ENDBRANCH  47  61
ENDBRANCH  46  47
ENDBRANCH  45  46
ENDBRANCH  44  45
BRANCH  44  63
HETATM   63  C   UNK N   1      19.402  15.972   4.440  0.00  0.00     0.163 C 
HETATM   64  O   UNK N   1      18.613  15.042   4.469  0.00  0.00    -0.648 OA
BRANCH  63  65
HETATM   65  O   UNK N   1      19.303  16.899   3.466  0.00  0.00    -0.775 OA
HETATM   66  H   UNK N   1      19.077  17.801   3.581  0.00  0.00     0.167 HD
ENDBRANCH  63  65
ENDBRANCH  44  63
ENDBRANCH  42  44
BRANCH  41  67
HETATM   67  O   UNK N   1      20.246  13.843   8.341  0.00  0.00    -0.348 OA
HETATM   68  H   UNK N   1      20.148  14.117   9.231  0.00  0.00     0.219 HD
ENDBRANCH  41  67
ENDBRANCH  39  41
ENDBRANCH  38  39
ENDBRANCH   3  38
TORSDOF 30
ENDMDL
MODEL 8
REMARK VINA RESULT:      -8.0      1.655      2.705
REMARK  30 active torsions:
REMARK  status: ('A' for Active; 'I' for Inactive)
REMARK    1  A    between atoms: C_6  and  C_4 
REMARK    2  A    between atoms: C_17  and  C_4 
REMARK    3  A    between atoms: C_7  and  C_5 
REMARK    4  A    between atoms: C_16  and  C_5 
REMARK    5  A    between atoms: C_21  and  C_6 
REMARK    6  A    between atoms: C_22  and  C_7 
REMARK    7  A    between atoms: C_19  and  C_10 
REMARK    8  A    between atoms: N_38  and  C_10 
REMARK    9  A    between atoms: C_20  and  C_11 
REMARK   10  A    between atoms: O_55  and  C_11 
REMARK   11  A    between atoms: C_25  and  C_12 
REMARK   12  A    between atoms: O_56  and  C_12 
REMARK   13  A    between atoms: O_39  and  C_14 
REMARK   14  A    between atoms: C_27  and  C_16 
REMARK   15  A    between atoms: C_16  and  N_30 
REMARK   16  A    between atoms: C_28  and  C_17 
REMARK   17  A    between atoms: C_17  and  N_32 
REMARK   18  A    between atoms: C_23  and  C_19 
REMARK   19  A    between atoms: C_19  and  O_40 
REMARK   20  A    between atoms: C_23  and  C_20 
REMARK   21  A    between atoms: C_20  and  O_41 
REMARK   22  A    between atoms: C_21  and  O_42 
REMARK   23  A    between atoms: O_44  and  C_22 
REMARK   24  A    between atoms: C_23  and  O_45 
REMARK   25  A    between atoms: C_25  and  O_46 
REMARK   26  A    between atoms: O_47  and  C_26 
REMARK   27  A    between atoms: O_49  and  C_27 
REMARK   28  A    between atoms: O_51  and  C_28 
REMARK   29  A    between atoms: P_57  and  O_55 
REMARK   30  A    between atoms: P_57  and  O_56 
ROOT
HETATM    1  O   UNK N   1      33.849  13.772   7.121  0.00  0.00    -0.307 OA
HETATM    2  O   UNK N   1      36.515  13.908   7.150  0.00  0.00    -0.631 OA
HETATM    3  P   UNK N   1      35.243  14.760   7.434  0.00  0.00     0.393 P 
HETATM    4  H   UNK N   1      33.102  13.154   7.080  0.00  0.00     0.222 HD
ENDROOT
BRANCH   3   5
HETATM    5  O   UNK N   1      35.256  15.186   9.099  0.00  0.00    -0.294 OA
BRANCH   5   6
HETATM    6  C   UNK N   1      35.559  14.000   9.772  0.00  0.00     0.214 C 
BRANCH   6   7
HETATM    7  C   UNK N   1      36.456  14.356  10.926  0.00  0.00     0.173 C 
BRANCH   7   8
HETATM    8  C   UNK N   1      35.609  14.619  12.199  0.00  0.00     0.179 C 
BRANCH   8   9
HETATM    9  C   UNK N   1      36.086  13.808  13.411  0.00  0.00     0.167 C 
BRANCH   9  10
HETATM   10  C   UNK N   1      34.852  13.226  14.134  0.00  0.00     0.165 C 
BRANCH  10  11
HETATM   11  N   UNK N   1      35.140  12.152  15.086  0.00  0.00    -0.329 N 
HETATM   12  C   UNK N   1      35.296  10.870  14.614  0.00  0.00     0.049 A 
HETATM   13  C   UNK N   1      35.198  10.585  13.240  0.00  0.00     0.067 A 
HETATM   14  C   UNK N   1      35.554   9.813  15.512  0.00  0.00    -0.008 A 
HETATM   15  C   UNK N   1      35.334   9.280  12.770  0.00  0.00     0.067 A 
HETATM   16  C   UNK N   1      35.581   8.239  13.667  0.00  0.00     0.037 A 
HETATM   17  C   UNK N   1      35.695   8.504  15.037  0.00  0.00     0.016 A 
HETATM   18  C   UNK N   1      35.662  10.077  16.874  0.00  0.00     0.033 A 
HETATM   19  C   UNK N   1      35.520  11.387  17.338  0.00  0.00     0.060 A 
HETATM   20  C   UNK N   1      35.264  12.425  16.423  0.00  0.00     0.126 A 
HETATM   21  C   UNK N   1      35.619  11.694  18.700  0.00  0.00     0.158 A 
HETATM   22  N   UNK N   1      35.130  13.702  16.884  0.00  0.00    -0.293 N 
HETATM   23  C   UNK N   1      35.232  13.985  18.218  0.00  0.00     0.327 A 
ATOM     24  HN  UNK N   1      34.952  14.457  16.222  1.00  0.00     0.172 HD
HETATM   25  N   UNK N   1      35.473  12.980  19.115  0.00  0.00    -0.288 N 
HETATM   26  O   UNK N   1      35.102  15.132  18.606  0.00  0.00    -0.247 OA
ATOM     27  HN  UNK N   1      35.545  13.201  20.109  1.00  0.00     0.172 HD
BRANCH  15  28
HETATM   28  O   UNK N   1      35.220   9.026  11.456  0.00  0.00    -0.361 OA
HETATM   29  H   UNK N   1      34.788   9.632  10.887  0.00  0.00     0.217 HD
ENDBRANCH  15  28
BRANCH  21  30
HETATM   30  O   UNK N   1      35.854  10.728  19.606  0.00  0.00    -0.345 OA
HETATM   31  H   UNK N   1      35.378  10.650  20.409  0.00  0.00     0.219 HD
ENDBRANCH  21  30
ENDBRANCH  10  11
ENDBRANCH   9  10
BRANCH   9  32
HETATM   32  O   UNK N   1      36.890  14.596  14.244  0.00  0.00    -0.391 OA
HETATM   33  H   UNK N   1      37.054  15.166  15.011  0.00  0.00     0.210 HD
ENDBRANCH   9  32
ENDBRANCH   8   9
BRANCH   8  34
HETATM   34  O   UNK N   1      34.276  14.315  11.912  0.00  0.00    -0.390 OA
HETATM   35  H   UNK N   1      33.711  13.823  12.528  0.00  0.00     0.210 HD
ENDBRANCH   8  34
ENDBRANCH   7   8
BRANCH   7  36
HETATM   36  O   UNK N   1      37.196  15.473  10.547  0.00  0.00    -0.391 OA
HETATM   37  H   UNK N   1      38.165  15.447  10.574  0.00  0.00     0.210 HD
ENDBRANCH   7  36
ENDBRANCH   6   7
ENDBRANCH   5   6
ENDBRANCH   3   5
BRANCH   3  38
HETATM   38  O   UNK N   1      35.259  16.282   6.550  0.00  0.00    -0.284 OA
BRANCH  38  39
HETATM   39  C   UNK N   1      33.988  16.882   6.501  0.00  0.00     0.203 C 
HETATM   40  C   UNK N   1      33.622  17.274   5.069  0.00  0.00     0.049 C 
BRANCH  39  41
HETATM   41  C   UNK N   1      33.862  17.961   7.564  0.00  0.00     0.142 C 
HETATM   42  N   UNK N   1      32.829  18.101   8.323  0.00  0.00    -0.358 N 
ATOM     43  HN  UNK N   1      32.919  18.798   9.062  1.00  0.00     0.162 HD
BRANCH  42  44
HETATM   44  C   UNK N   1      31.560  17.408   8.276  0.00  0.00     0.181 C 
BRANCH  44  45
HETATM   45  C   UNK N   1      30.537  18.222   9.092  0.00  0.00     0.044 C 
BRANCH  45  46
HETATM   46  C   UNK N   1      29.225  17.472   9.346  0.00  0.00     0.086 C 
BRANCH  46  47
HETATM   47  C   UNK N   1      28.177  17.660   8.277  0.00  0.00     0.112 C 
HETATM   48  N   UNK N   1      28.341  18.580   7.387  0.00  0.00    -0.360 N 
ATOM     49  HN  UNK N   1      29.129  19.219   7.494  1.00  0.00     0.162 HD
BRANCH  48  50
HETATM   50  C   UNK N   1      27.463  18.758   6.236  0.00  0.00     0.181 C 
BRANCH  50  51
HETATM   51  C   UNK N   1      28.099  18.063   5.031  0.00  0.00     0.046 C 
BRANCH  51  52
HETATM   52  C   UNK N   1      29.598  17.848   5.196  0.00  0.00     0.112 C 
BRANCH  52  53
HETATM   53  C   UNK N   1      29.948  16.428   4.913  0.00  0.00     0.139 C 
HETATM   54  O   UNK N   1      30.482  16.132   3.858  0.00  0.00    -0.650 OA
BRANCH  53  55
HETATM   55  O   UNK N   1      29.695  15.476   5.830  0.00  0.00    -0.776 OA
HETATM   56  H   UNK N   1      28.828  15.249   6.104  0.00  0.00     0.167 HD
ENDBRANCH  53  55
ENDBRANCH  52  53
ENDBRANCH  51  52
ENDBRANCH  50  51
BRANCH  50  57
HETATM   57  C   UNK N   1      27.130  20.214   5.953  0.00  0.00     0.163 C 
HETATM   58  O   UNK N   1      27.831  21.105   6.404  0.00  0.00    -0.648 OA
BRANCH  57  59
HETATM   59  O   UNK N   1      26.028  20.542   5.249  0.00  0.00    -0.775 OA
HETATM   60  H   UNK N   1      25.704  20.094   4.492  0.00  0.00     0.167 HD
ENDBRANCH  57  59
ENDBRANCH  50  57
ENDBRANCH  48  50
BRANCH  47  61
HETATM   61  O   UNK N   1      27.141  16.803   8.181  0.00  0.00    -0.350 OA
HETATM   62  H   UNK N   1      26.369  17.008   7.691  0.00  0.00     0.219 HD
ENDBRANCH  47  61
ENDBRANCH  46  47
ENDBRANCH  45  46
ENDBRANCH  44  45
BRANCH  44  63
HETATM   63  C   UNK N   1      31.760  15.988   8.733  0.00  0.00     0.163 C 
HETATM   64  O   UNK N   1      31.421  15.048   8.033  0.00  0.00    -0.648 OA
BRANCH  63  65
HETATM   65  O   UNK N   1      32.342  15.753   9.926  0.00  0.00    -0.775 OA
HETATM   66  H   UNK N   1      32.054  16.078  10.756  0.00  0.00     0.167 HD
ENDBRANCH  63  65
ENDBRANCH  44  63
ENDBRANCH  42  44
BRANCH  41  67
HETATM   67  O   UNK N   1      34.916  18.772   7.791  0.00  0.00    -0.348 OA
HETATM   68  H   UNK N   1      35.837  18.691   7.643  0.00  0.00     0.219 HD
ENDBRANCH  41  67
ENDBRANCH  39  41
ENDBRANCH  38  39
ENDBRANCH   3  38
TORSDOF 30
ENDMDL
MODEL 9
REMARK VINA RESULT:      -7.9      1.298      2.328
REMARK  30 active torsions:
REMARK  status: ('A' for Active; 'I' for Inactive)
REMARK    1  A    between atoms: C_6  and  C_4 
REMARK    2  A    between atoms: C_17  and  C_4 
REMARK    3  A    between atoms: C_7  and  C_5 
REMARK    4  A    between atoms: C_16  and  C_5 
REMARK    5  A    between atoms: C_21  and  C_6 
REMARK    6  A    between atoms: C_22  and  C_7 
REMARK    7  A    between atoms: C_19  and  C_10 
REMARK    8  A    between atoms: N_38  and  C_10 
REMARK    9  A    between atoms: C_20  and  C_11 
REMARK   10  A    between atoms: O_55  and  C_11 
REMARK   11  A    between atoms: C_25  and  C_12 
REMARK   12  A    between atoms: O_56  and  C_12 
REMARK   13  A    between atoms: O_39  and  C_14 
REMARK   14  A    between atoms: C_27  and  C_16 
REMARK   15  A    between atoms: C_16  and  N_30 
REMARK   16  A    between atoms: C_28  and  C_17 
REMARK   17  A    between atoms: C_17  and  N_32 
REMARK   18  A    between atoms: C_23  and  C_19 
REMARK   19  A    between atoms: C_19  and  O_40 
REMARK   20  A    between atoms: C_23  and  C_20 
REMARK   21  A    between atoms: C_20  and  O_41 
REMARK   22  A    between atoms: C_21  and  O_42 
REMARK   23  A    between atoms: O_44  and  C_22 
REMARK   24  A    between atoms: C_23  and  O_45 
REMARK   25  A    between atoms: C_25  and  O_46 
REMARK   26  A    between atoms: O_47  and  C_26 
REMARK   27  A    between atoms: O_49  and  C_27 
REMARK   28  A    between atoms: O_51  and  C_28 
REMARK   29  A    between atoms: P_57  and  O_55 
REMARK   30  A    between atoms: P_57  and  O_56 
ROOT
HETATM    1  O   UNK N   1      34.748  16.598   6.986  0.00  0.00    -0.307 OA
HETATM    2  O   UNK N   1      35.079  18.166   9.120  0.00  0.00    -0.631 OA
HETATM    3  P   UNK N   1      34.505  16.783   8.696  0.00  0.00     0.393 P 
HETATM    4  H   UNK N   1      35.029  16.466   6.067  0.00  0.00     0.222 HD
ENDROOT
BRANCH   3   5
HETATM    5  O   UNK N   1      35.399  15.567   9.516  0.00  0.00    -0.294 OA
BRANCH   5   6
HETATM    6  C   UNK N   1      35.732  16.134  10.748  0.00  0.00     0.214 C 
BRANCH   6   7
HETATM    7  C   UNK N   1      35.163  15.246  11.820  0.00  0.00     0.173 C 
BRANCH   7   8
HETATM    8  C   UNK N   1      36.082  14.015  12.038  0.00  0.00     0.179 C 
BRANCH   8   9
HETATM    9  C   UNK N   1      36.342  13.720  13.521  0.00  0.00     0.167 C 
BRANCH   9  10
HETATM   10  C   UNK N   1      35.050  13.154  14.147  0.00  0.00     0.165 C 
BRANCH  10  11
HETATM   11  N   UNK N   1      35.253  12.105  15.147  0.00  0.00    -0.329 N 
HETATM   12  C   UNK N   1      35.390  10.803  14.727  0.00  0.00     0.049 A 
HETATM   13  C   UNK N   1      35.354  10.473  13.359  0.00  0.00     0.067 A 
HETATM   14  C   UNK N   1      35.567   9.769  15.671  0.00  0.00    -0.008 A 
HETATM   15  C   UNK N   1      35.471   9.150  12.940  0.00  0.00     0.067 A 
HETATM   16  C   UNK N   1      35.637   8.133  13.882  0.00  0.00     0.037 A 
HETATM   17  C   UNK N   1      35.689   8.442  15.247  0.00  0.00     0.016 A 
HETATM   18  C   UNK N   1      35.613  10.077  17.027  0.00  0.00     0.033 A 
HETATM   19  C   UNK N   1      35.490  11.406  17.440  0.00  0.00     0.060 A 
HETATM   20  C   UNK N   1      35.316  12.420  16.480  0.00  0.00     0.126 A 
HETATM   21  C   UNK N   1      35.530  11.756  18.795  0.00  0.00     0.158 A 
HETATM   22  N   UNK N   1      35.201  13.715  16.891  0.00  0.00    -0.293 N 
HETATM   23  C   UNK N   1      35.243  14.040  18.218  0.00  0.00     0.327 A 
ATOM     24  HN  UNK N   1      35.082  14.452  16.196  1.00  0.00     0.172 HD
HETATM   25  N   UNK N   1      35.404  13.060  19.160  0.00  0.00    -0.288 N 
HETATM   26  O   UNK N   1      35.132  15.203  18.562  0.00  0.00    -0.247 OA
ATOM     27  HN  UNK N   1      35.432  13.312  20.148  1.00  0.00     0.172 HD
BRANCH  15  28
HETATM   28  O   UNK N   1      35.416   8.854  11.631  0.00  0.00    -0.361 OA
HETATM   29  H   UNK N   1      34.714   9.171  11.098  0.00  0.00     0.217 HD
ENDBRANCH  15  28
BRANCH  21  30
HETATM   30  O   UNK N   1      35.685  10.815  19.743  0.00  0.00    -0.345 OA
HETATM   31  H   UNK N   1      36.521  10.486  20.008  0.00  0.00     0.219 HD
ENDBRANCH  21  30
ENDBRANCH  10  11
ENDBRANCH   9  10
BRANCH   9  32
HETATM   32  O   UNK N   1      36.814  14.864  14.176  0.00  0.00    -0.391 OA
HETATM   33  H   UNK N   1      36.711  15.729  14.603  0.00  0.00     0.210 HD
ENDBRANCH   9  32
ENDBRANCH   8   9
BRANCH   8  34
HETATM   34  O   UNK N   1      37.290  14.243  11.374  0.00  0.00    -0.390 OA
HETATM   35  H   UNK N   1      37.364  14.222  10.407  0.00  0.00     0.210 HD
ENDBRANCH   8  34
ENDBRANCH   7   8
BRANCH   7  36
HETATM   36  O   UNK N   1      33.881  14.880  11.417  0.00  0.00    -0.391 OA
HETATM   37  H   UNK N   1      33.360  14.262  11.953  0.00  0.00     0.210 HD
ENDBRANCH   7  36
ENDBRANCH   6   7
ENDBRANCH   5   6
ENDBRANCH   3   5
BRANCH   3  38
HETATM   38  O   UNK N   1      32.833  16.578   9.211  0.00  0.00    -0.284 OA
BRANCH  38  39
HETATM   39  C   UNK N   1      31.919  16.908   8.194  0.00  0.00     0.203 C 
HETATM   40  C   UNK N   1      30.629  17.479   8.782  0.00  0.00     0.049 C 
BRANCH  39  41
HETATM   41  C   UNK N   1      31.778  15.762   7.206  0.00  0.00     0.142 C 
HETATM   42  N   UNK N   1      31.603  15.927   5.939  0.00  0.00    -0.358 N 
ATOM     43  HN  UNK N   1      31.628  15.075   5.378  1.00  0.00     0.162 HD
BRANCH  42  44
HETATM   44  C   UNK N   1      31.377  17.149   5.199  0.00  0.00     0.181 C 
BRANCH  44  45
HETATM   45  C   UNK N   1      30.029  17.023   4.462  0.00  0.00     0.044 C 
BRANCH  45  46
HETATM   46  C   UNK N   1      28.963  16.273   5.267  0.00  0.00     0.086 C 
BRANCH  46  47
HETATM   47  C   UNK N   1      27.768  17.108   5.657  0.00  0.00     0.112 C 
HETATM   48  N   UNK N   1      27.351  18.028   4.853  0.00  0.00    -0.360 N 
ATOM     49  HN  UNK N   1      27.906  18.228   4.021  1.00  0.00     0.162 HD
BRANCH  48  50
HETATM   50  C   UNK N   1      26.131  18.797   5.068  0.00  0.00     0.181 C 
BRANCH  50  51
HETATM   51  C   UNK N   1      25.325  18.798   3.767  0.00  0.00     0.046 C 
BRANCH  51  52
HETATM   52  C   UNK N   1      23.978  19.495   3.908  0.00  0.00     0.112 C 
BRANCH  52  53
HETATM   53  C   UNK N   1      23.869  20.608   2.925  0.00  0.00     0.139 C 
HETATM   54  O   UNK N   1      22.832  21.242   2.835  0.00  0.00    -0.650 OA
BRANCH  53  55
HETATM   55  O   UNK N   1      24.923  20.928   2.151  0.00  0.00    -0.776 OA
HETATM   56  H   UNK N   1      24.997  20.664   1.255  0.00  0.00     0.167 HD
ENDBRANCH  53  55
ENDBRANCH  52  53
ENDBRANCH  51  52
ENDBRANCH  50  51
BRANCH  50  57
HETATM   57  C   UNK N   1      26.390  20.203   5.588  0.00  0.00     0.163 C 
HETATM   58  O   UNK N   1      27.123  20.961   4.974  0.00  0.00    -0.648 OA
BRANCH  57  59
HETATM   59  O   UNK N   1      25.858  20.611   6.757  0.00  0.00    -0.775 OA
HETATM   60  H   UNK N   1      25.034  20.342   7.112  0.00  0.00     0.167 HD
ENDBRANCH  57  59
ENDBRANCH  50  57
ENDBRANCH  48  50
BRANCH  47  61
HETATM   61  O   UNK N   1      27.072  16.821   6.775  0.00  0.00    -0.350 OA
HETATM   62  H   UNK N   1      26.137  16.761   6.778  0.00  0.00     0.219 HD
ENDBRANCH  47  61
ENDBRANCH  46  47
ENDBRANCH  45  46
ENDBRANCH  44  45
BRANCH  44  63
HETATM   63  C   UNK N   1      32.568  17.417   4.318  0.00  0.00     0.163 C 
HETATM   64  O   UNK N   1      33.532  18.036   4.734  0.00  0.00    -0.648 OA
BRANCH  63  65
HETATM   65  O   UNK N   1      32.574  16.945   3.056  0.00  0.00    -0.775 OA
HETATM   66  H   UNK N   1      33.038  17.312   2.329  0.00  0.00     0.167 HD
ENDBRANCH  63  65
ENDBRANCH  44  63
ENDBRANCH  42  44
BRANCH  41  67
HETATM   67  O   UNK N   1      31.923  14.499   7.656  0.00  0.00    -0.348 OA
HETATM   68  H   UNK N   1      32.275  13.716   7.282  0.00  0.00     0.219 HD
ENDBRANCH  41  67
ENDBRANCH  39  41
ENDBRANCH  38  39
ENDBRANCH   3  38
TORSDOF 30
ENDMDL
