REMARK  4 active torsions:
REMARK  status: ('A' for Active; 'I' for Inactive)
REMARK    1  A    between atoms: C_2  and  C_4 
REMARK    2  A    between atoms: C_4  and  C_5 
REMARK    3  A    between atoms: C_5  and  C_6 
REMARK    4  A    between atoms: C_6  and  O_7 
ROOT
HETATM    1  C   UNK N   1       2.223   1.361  -0.000  0.00  0.00     0.110 C 
ENDROOT
BRANCH   1   2
HETATM    2  C   UNK N   1       1.041   0.397   0.000  0.00  0.00     0.014 C 
BRANCH   2   3
HETATM    3  C   UNK N   1      -0.313   1.099  -0.000  0.00  0.00    -0.022 C 
HETATM    4  C   UNK N   1      -1.564   0.245   0.000  0.00  0.00     0.009 C 
HETATM    5  C   UNK N   1      -0.462   2.611   0.000  0.00  0.00     0.009 C 
ENDBRANCH   2   3
ENDBRANCH   1   2
BRANCH   1   6
HETATM    6  C   UNK N   1       3.543   0.642   0.000  0.00  0.00     0.139 C 
HETATM    7  O   UNK N   1       3.594  -0.579   0.000  0.00  0.00    -0.650 OA
BRANCH   6   8
HETATM    8  O   UNK N   1       4.684   1.354  -0.000  0.00  0.00    -0.776 OA
HETATM    9  H   UNK N   1       5.511   0.914  -0.000  0.00  0.00     0.167 HD
ENDBRANCH   6   8
ENDBRANCH   1   6
TORSDOF 4
