REMARK  2 active torsions:
REMARK  status: ('A' for Active; 'I' for Inactive)
REMARK    1  A    between atoms: C_4  and  C_3 
REMARK    2  A    between atoms: O_9  and  C_5 
ROOT
HETATM    1  C   UNK N   1      -0.777   0.265  -0.000  0.00  0.00     0.040 A 
HETATM    2  C   UNK N   1      -0.182  -1.146   0.000  0.00  0.00     0.086 A 
HETATM    3  C   UNK N   1       0.392   1.279  -0.000  0.00  0.00     0.145 A 
HETATM    4  C   UNK N   1       1.248  -0.832   0.000  0.00  0.00     0.111 A 
HETATM    5  N   UNK N   1       1.533   0.400  -0.000  0.00  0.00    -0.364 N 
ATOM      6  HN  UNK N   1       2.493   0.743  -0.000  1.00  0.00     0.162 HD
ENDROOT
BRANCH   3   7
HETATM    7  C   UNK N   1       0.859   2.717  -0.000  0.00  0.00     0.256 C 
HETATM    8  O   UNK N   1       0.092   3.672   0.000  0.00  0.00    -0.305 OA
ENDBRANCH   3   7
BRANCH   4   9
HETATM    9  O   UNK N   1       2.212  -1.778   0.000  0.00  0.00    -0.350 OA
HETATM   10  H   UNK N   1       1.979  -2.685   0.000  0.00  0.00     0.219 HD
ENDBRANCH   4   9
TORSDOF 2
