REMARK WARNING: 32 MAX_TORS EXCEEDED!!!
REMARK  33 active torsions:
REMARK  status: ('A' for Active; 'I' for Inactive)
REMARK    1  A    between atoms: C_9  and  C_3 
REMARK    2  A    between atoms: O_39  and  C_3 
REMARK    3  A    between atoms: C_11  and  C_4 
REMARK    4  A    between atoms: O_40  and  C_4 
REMARK    5  A    between atoms: C_12  and  C_5 
REMARK    6  A    between atoms: O_41  and  C_5 
REMARK    7  A    between atoms: C_13  and  C_6 
REMARK    8  A    between atoms: O_42  and  C_6 
REMARK    9  A    between atoms: C_14  and  C_7 
REMARK   10  A    between atoms: O_58  and  C_7 
REMARK   11  A    between atoms: C_10  and  N_38 
REMARK   12  A    between atoms: C_15  and  N_38 
REMARK   13  A    between atoms: C_16  and  O_43 
REMARK   14  A    between atoms: C_18  and  O_45 
REMARK   15  A    between atoms: C_19  and  O_46 
REMARK   16  A    between atoms: C_20  and  O_47 
REMARK   17  A    between atoms: C_21  and  O_48 
REMARK   18  A    between atoms: C_22  and  O_49 
REMARK   19  A    between atoms: C_23  and  O_50 
REMARK   20  A    between atoms: C_24  and  O_51 
REMARK   21  A    between atoms: C_25  and  O_52 
REMARK   22  A    between atoms: C_26  and  O_53 
REMARK   23  A    between atoms: C_27  and  O_54 
REMARK   24  A    between atoms: C_28  and  O_55 
REMARK   25  A    between atoms: C_29  and  O_56 
REMARK   26  A    between atoms: C_30  and  O_64 
REMARK   27  A    between atoms: C_31  and  O_65 
REMARK   28  A    between atoms: C_32  and  O_66 
REMARK   29  A    between atoms: C_33  and  O_57 
REMARK   30  A    between atoms: C_34  and  O_58 
REMARK   31  A    between atoms: C_35  and  O_65 
REMARK   32  A    between atoms: C_36  and  O_66 
REMARK   33  A    between atoms: C_37  and  O_64 
ROOT
HETATM    1  C   UNK N   1       3.468  -3.652   0.431  0.00  0.00     0.179 C 
HETATM    2  C   UNK N   1       4.800  -3.083   0.933  0.00  0.00     0.180 C 
HETATM    3  C   UNK N   1       5.052  -1.741   0.222  0.00  0.00     0.183 C 
HETATM    4  C   UNK N   1       3.827  -0.801   0.389  0.00  0.00     0.204 C 
HETATM    5  C   UNK N   1       2.572  -1.531  -0.112  0.00  0.00     0.292 C 
HETATM    6  O   UNK N   1       4.748  -2.880   2.315  0.00  0.00    -0.390 OA
HETATM    7  O   UNK N   1       2.425  -2.720   0.684  0.00  0.00    -0.348 OA
HETATM    8  H   UNK N   1       4.851  -2.778   3.274  0.00  0.00     0.210 HD
ENDROOT
BRANCH   1   9
HETATM    9  C   UNK N   1       3.135  -5.003   1.076  0.00  0.00     0.198 C 
BRANCH   9  10
HETATM   10  O   UNK N   1       2.852  -4.874   2.437  0.00  0.00    -0.398 OA
HETATM   11  H   UNK N   1       2.831  -4.659   3.382  0.00  0.00     0.209 HD
ENDBRANCH   9  10
ENDBRANCH   1   9
BRANCH   3  12
HETATM   12  O   UNK N   1       5.282  -1.979  -1.139  0.00  0.00    -0.390 OA
HETATM   13  H   UNK N   1       5.219  -2.200  -2.081  0.00  0.00     0.210 HD
ENDBRANCH   3  12
BRANCH   4  14
HETATM   14  O   UNK N   1       4.027   0.375  -0.336  0.00  0.00    -0.388 OA
HETATM   15  H   UNK N   1       4.804   0.663  -0.839  0.00  0.00     0.210 HD
ENDBRANCH   4  14
BRANCH   5  16
HETATM   16  O   UNK N   1       1.399  -0.675  -0.100  0.00  0.00    -0.348 OA
BRANCH  16  17
HETATM   17  C   UNK N   1       0.244  -1.361   0.372  0.00  0.00     0.187 C 
HETATM   18  C   UNK N   1      -0.263  -2.458  -0.572  0.00  0.00     0.180 C 
HETATM   19  O   UNK N   1      -0.914  -3.319   0.307  0.00  0.00    -0.348 OA
HETATM   20  C   UNK N   1      -2.203  -2.903   0.665  0.00  0.00     0.292 C 
HETATM   21  C   UNK N   1      -2.155  -1.422   1.224  0.00  0.00     0.204 C 
HETATM   22  C   UNK N   1      -1.051  -0.512   0.561  0.00  0.00     0.183 C 
BRANCH  18  23
HETATM   23  C   UNK N   1       0.724  -3.245  -1.448  0.00  0.00     0.198 C 
BRANCH  23  24
HETATM   24  O   UNK N   1       1.083  -4.470  -0.888  0.00  0.00    -0.398 OA
HETATM   25  H   UNK N   1       0.470  -5.113  -0.499  0.00  0.00     0.209 HD
ENDBRANCH  23  24
ENDBRANCH  18  23
BRANCH  20  26
HETATM   26  O   UNK N   1      -3.092  -3.219  -0.387  0.00  0.00    -0.346 OA
BRANCH  26  27
HETATM   27  C   UNK N   1      -3.189  -4.651  -0.658  0.00  0.00     0.187 C 
HETATM   28  C   UNK N   1      -4.002  -5.467   0.355  0.00  0.00    -0.027 C 
HETATM   29  C   UNK N   1      -3.516  -6.612   0.916  0.00  0.00     0.008 C 
HETATM   30  C   UNK N   1      -2.091  -7.195   0.739  0.00  0.00     0.132 C 
HETATM   31  C   UNK N   1      -1.169  -6.134   0.219  0.00  0.00     0.175 C 
HETATM   32  C   UNK N   1      -1.859  -5.404  -1.013  0.00  0.00     0.182 C 
BRANCH  28  33
HETATM   33  C   UNK N   1      -5.420  -5.084   0.686  0.00  0.00     0.201 C 
BRANCH  33  34
HETATM   34  O   UNK N   1      -5.841  -3.955  -0.021  0.00  0.00    -0.397 OA
HETATM   35  H   UNK N   1      -5.308  -3.310  -0.512  0.00  0.00     0.209 HD
ENDBRANCH  33  34
ENDBRANCH  28  33
BRANCH  30  36
HETATM   36  N   UNK N   1      -1.920  -8.359  -0.152  0.00  0.00    -0.402 N 
HETATM   37  H   UNK N   1      -1.105  -8.483  -0.753  0.00  0.00     0.154 HD
BRANCH  36  38
HETATM   38  C   UNK N   1      -3.013  -9.311  -0.097  0.00  0.00     0.137 C 
HETATM   39  C   UNK N   1      -3.828  -9.193  -1.422  0.00  0.00     0.145 C 
HETATM   40  C   UNK N   1      -4.468  -7.844  -1.676  0.00  0.00     0.042 C 
HETATM   41  O   UNK N   1      -4.808 -10.216  -1.576  0.00  0.00    -0.352 OA
HETATM   42  C   UNK N   1      -5.079 -10.885  -0.356  0.00  0.00     0.292 C 
HETATM   43  C   UNK N   1      -3.849 -11.740   0.030  0.00  0.00     0.204 C 
HETATM   44  C   UNK N   1      -2.561 -10.800  -0.016  0.00  0.00     0.176 C 
BRANCH  42  45
HETATM   45  O   UNK N   1      -6.400 -11.419  -0.363  0.00  0.00    -0.348 OA
BRANCH  45  46
HETATM   46  C   UNK N   1      -7.306 -10.348  -0.720  0.00  0.00     0.187 C 
HETATM   47  C   UNK N   1      -8.784 -10.757  -0.573  0.00  0.00     0.180 C 
HETATM   48  O   UNK N   1      -9.684  -9.739  -1.039  0.00  0.00    -0.348 OA
HETATM   49  C   UNK N   1      -9.494  -8.430  -0.481  0.00  0.00     0.291 C 
HETATM   50  C   UNK N   1      -8.024  -7.961  -0.589  0.00  0.00     0.204 C 
HETATM   51  C   UNK N   1      -7.119  -8.989   0.044  0.00  0.00     0.183 C 
BRANCH  47  52
HETATM   52  C   UNK N   1      -9.123 -11.223   0.843  0.00  0.00     0.198 C 
BRANCH  52  53
HETATM   53  O   UNK N   1     -10.402 -11.777   0.879  0.00  0.00    -0.398 OA
HETATM   54  H   UNK N   1     -11.181 -11.199   0.904  0.00  0.00     0.209 HD
ENDBRANCH  52  53
ENDBRANCH  47  52
BRANCH  49  55
HETATM   55  O   UNK N   1     -10.044  -8.365   0.829  0.00  0.00    -0.356 OA
BRANCH  55  56
HETATM   56  C   UNK N   1      -9.751  -7.117   1.441  0.00  0.00     0.205 C 
BRANCH  56  57
HETATM   57  C   UNK N   1     -10.709  -5.961   1.096  0.00  0.00     0.180 C 
HETATM   58  C   UNK N   1      -9.958  -4.792   0.404  0.00  0.00     0.180 C 
HETATM   59  C   UNK N   1     -10.949  -3.644   0.172  0.00  0.00     0.183 C 
HETATM   60  C   UNK N   1     -12.144  -4.175  -0.629  0.00  0.00     0.204 C 
HETATM   61  C   UNK N   1     -12.756  -5.389   0.098  0.00  0.00     0.288 C 
HETATM   62  O   UNK N   1     -11.795  -6.418   0.298  0.00  0.00    -0.349 OA
BRANCH  58  63
HETATM   63  O   UNK N   1      -9.429  -5.204  -0.823  0.00  0.00    -0.390 OA
HETATM   64  H   UNK N   1      -9.492  -5.664  -1.674  0.00  0.00     0.210 HD
ENDBRANCH  58  63
BRANCH  59  65
HETATM   65  O   UNK N   1     -10.329  -2.596  -0.514  0.00  0.00    -0.390 OA
HETATM   66  H   UNK N   1      -9.484  -2.604  -0.990  0.00  0.00     0.210 HD
ENDBRANCH  59  65
BRANCH  60  67
HETATM   67  O   UNK N   1     -13.104  -3.172  -0.790  0.00  0.00    -0.388 OA
HETATM   68  H   UNK N   1     -12.835  -2.247  -0.902  0.00  0.00     0.210 HD
ENDBRANCH  60  67
BRANCH  61  69
HETATM   69  O   UNK N   1     -13.340  -5.014   1.315  0.00  0.00    -0.369 OA
HETATM   70  H   UNK N   1     -13.317  -4.534   2.157  0.00  0.00     0.212 HD
ENDBRANCH  61  69
ENDBRANCH  56  57
ENDBRANCH  55  56
ENDBRANCH  49  55
BRANCH  50  71
HETATM   71  O   UNK N   1      -7.685  -7.794  -1.937  0.00  0.00    -0.388 OA
HETATM   72  H   UNK N   1      -7.467  -7.939  -2.871  0.00  0.00     0.210 HD
ENDBRANCH  50  71
BRANCH  51  73
HETATM   73  O   UNK N   1      -7.368  -9.124   1.414  0.00  0.00    -0.390 OA
HETATM   74  H   UNK N   1      -7.535  -9.022   2.364  0.00  0.00     0.210 HD
ENDBRANCH  51  73
ENDBRANCH  45  46
ENDBRANCH  42  45
BRANCH  43  75
HETATM   75  O   UNK N   1      -3.697 -12.835  -0.825  0.00  0.00    -0.388 OA
HETATM   76  H   UNK N   1      -4.303 -13.306  -1.418  0.00  0.00     0.210 HD
ENDBRANCH  43  75
BRANCH  44  77
HETATM   77  O   UNK N   1      -1.778 -11.100  -1.138  0.00  0.00    -0.391 OA
HETATM   78  H   UNK N   1      -1.687 -11.674  -1.915  0.00  0.00     0.210 HD
ENDBRANCH  44  77
ENDBRANCH  36  38
ENDBRANCH  30  36
BRANCH  31  79
HETATM   79  O   UNK N   1      -0.844  -5.366   1.335  0.00  0.00    -0.391 OA
HETATM   80  H   UNK N   1      -0.267  -5.294   2.111  0.00  0.00     0.210 HD
ENDBRANCH  31  79
BRANCH  32  81
HETATM   81  O   UNK N   1      -2.129  -6.371  -1.983  0.00  0.00    -0.390 OA
HETATM   82  H   UNK N   1      -2.804  -6.545  -2.656  0.00  0.00     0.210 HD
ENDBRANCH  32  81
ENDBRANCH  26  27
ENDBRANCH  20  26
BRANCH  21  83
HETATM   83  O   UNK N   1      -1.820  -1.520   2.581  0.00  0.00    -0.388 OA
HETATM   84  H   UNK N   1      -1.763  -1.755   3.520  0.00  0.00     0.210 HD
ENDBRANCH  21  83
BRANCH  22  85
HETATM   85  O   UNK N   1      -0.801   0.607   1.359  0.00  0.00    -0.390 OA
HETATM   86  H   UNK N   1      -0.041   0.845   1.914  0.00  0.00     0.210 HD
ENDBRANCH  22  85
ENDBRANCH  16  17
ENDBRANCH   5  16
TORSDOF 33
