MODEL 1
REMARK VINA RESULT:      -6.3      0.000      0.000
REMARK  14 active torsions:
REMARK  status: ('A' for Active; 'I' for Inactive)
REMARK    1  A    between atoms: C_3  and  C_2 
REMARK    2  A    between atoms: O_17  and  C_2 
REMARK    3  A    between atoms: C_4  and  O_18 
REMARK    4  A    between atoms: C_5  and  O_7 
REMARK    5  A    between atoms: C_6  and  O_8 
REMARK    6  A    between atoms: P_20  and  O_9 
REMARK    7  A    between atoms: P_20  and  O_10 
REMARK    8  A    between atoms: P_21  and  O_12 
REMARK    9  A    between atoms: P_21  and  O_13 
REMARK   10  A    between atoms: P_22  and  O_15 
REMARK   11  A    between atoms: P_20  and  O_17 
REMARK   12  A    between atoms: P_22  and  O_18 
REMARK   13  A    between atoms: P_21  and  O_19 
REMARK   14  A    between atoms: P_22  and  O_19 
ROOT
HETATM    1  C   UNK N   1      33.697  14.655   9.677  0.00  0.00     0.044 C 
HETATM    2  C   UNK N   1      35.076  14.442  10.315  0.00  0.00     0.044 C 
HETATM    3  C   UNK N   1      33.598  16.158   9.405  0.00  0.00     0.165 C 
HETATM    4  C   UNK N   1      35.576  15.858  10.610  0.00  0.00     0.155 C 
HETATM    5  C   UNK N   1      35.056  16.610   9.400  0.00  0.00     0.176 C 
ENDROOT
BRANCH   3   6
HETATM    6  O   UNK N   1      32.945  16.415   8.182  0.00  0.00    -0.289 OA
BRANCH   6   7
HETATM    7  P   UNK N   1      31.218  16.219   8.405  0.00  0.00     0.402 P 
HETATM    8  O   UNK N   1      31.349  16.419   6.871  0.00  0.00    -0.631 OA
BRANCH   7   9
HETATM    9  O   UNK N   1      31.772  17.617   9.272  0.00  0.00    -0.307 OA
HETATM   10  H   UNK N   1      31.750  18.376   9.877  0.00  0.00     0.222 HD
ENDBRANCH   7   9
BRANCH   7  11
HETATM   11  O   UNK N   1      30.164  17.566   8.090  0.00  0.00    -0.195 OA
BRANCH  11  12
HETATM   12  P   UNK N   1      29.251  17.823   9.552  0.00  0.00     0.399 P 
HETATM   13  O   UNK N   1      29.744  19.140  10.210  0.00  0.00    -0.631 OA
BRANCH  12  14
HETATM   14  O   UNK N   1      29.559  16.552  10.693  0.00  0.00    -0.307 OA
HETATM   15  H   UNK N   1      29.229  15.644  10.614  0.00  0.00     0.222 HD
ENDBRANCH  12  14
BRANCH  12  16
HETATM   16  O   UNK N   1      27.547  17.977   9.254  0.00  0.00    -0.307 OA
HETATM   17  H   UNK N   1      27.031  18.668   9.698  0.00  0.00     0.222 HD
ENDBRANCH  12  16
ENDBRANCH  11  12
ENDBRANCH   7  11
ENDBRANCH   6   7
ENDBRANCH   3   6
BRANCH   5  18
HETATM   18  O   UNK N   1      35.186  17.992   9.533  0.00  0.00    -0.390 OA
HETATM   19  H   UNK N   1      34.439  18.604   9.441  0.00  0.00     0.210 HD
ENDBRANCH   5  18
BRANCH   2  20
HETATM   20  C   UNK N   1      34.983  13.547  11.549  0.00  0.00     0.187 C 
BRANCH  20  21
HETATM   21  O   UNK N   1      35.153  14.268  12.740  0.00  0.00    -0.297 OA
BRANCH  21  22
HETATM   22  P   UNK N   1      36.136  13.278  13.782  0.00  0.00     0.390 P 
HETATM   23  O   UNK N   1      34.814  13.325  14.595  0.00  0.00    -0.632 OA
BRANCH  22  24
HETATM   24  O   UNK N   1      36.668  13.864  15.326  0.00  0.00    -0.307 OA
HETATM   25  H   UNK N   1      36.933  13.244  16.024  0.00  0.00     0.222 HD
ENDBRANCH  22  24
BRANCH  22  26
HETATM   26  O   UNK N   1      36.783  14.885  13.663  0.00  0.00    -0.307 OA
HETATM   27  H   UNK N   1      37.356  15.238  14.362  0.00  0.00     0.222 HD
ENDBRANCH  22  26
ENDBRANCH  21  22
ENDBRANCH  20  21
ENDBRANCH   2  20
BRANCH   4  28
HETATM   28  O   UNK N   1      36.966  15.919  10.726  0.00  0.00    -0.392 OA
HETATM   29  H   UNK N   1      37.431  16.676  11.115  0.00  0.00     0.210 HD
ENDBRANCH   4  28
TORSDOF 14
ENDMDL
MODEL 2
REMARK VINA RESULT:      -6.0     12.009     14.927
REMARK  14 active torsions:
REMARK  status: ('A' for Active; 'I' for Inactive)
REMARK    1  A    between atoms: C_3  and  C_2 
REMARK    2  A    between atoms: O_17  and  C_2 
REMARK    3  A    between atoms: C_4  and  O_18 
REMARK    4  A    between atoms: C_5  and  O_7 
REMARK    5  A    between atoms: C_6  and  O_8 
REMARK    6  A    between atoms: P_20  and  O_9 
REMARK    7  A    between atoms: P_20  and  O_10 
REMARK    8  A    between atoms: P_21  and  O_12 
REMARK    9  A    between atoms: P_21  and  O_13 
REMARK   10  A    between atoms: P_22  and  O_15 
REMARK   11  A    between atoms: P_20  and  O_17 
REMARK   12  A    between atoms: P_22  and  O_18 
REMARK   13  A    between atoms: P_21  and  O_19 
REMARK   14  A    between atoms: P_22  and  O_19 
ROOT
HETATM    1  C   UNK N   1      21.437  15.549   5.268  0.00  0.00     0.044 C 
HETATM    2  C   UNK N   1      21.033  16.544   4.171  0.00  0.00     0.044 C 
HETATM    3  C   UNK N   1      20.145  15.227   6.024  0.00  0.00     0.165 C 
HETATM    4  C   UNK N   1      19.596  16.931   4.525  0.00  0.00     0.155 C 
HETATM    5  C   UNK N   1      19.052  15.608   5.030  0.00  0.00     0.176 C 
ENDROOT
BRANCH   3   6
HETATM    6  O   UNK N   1      20.095  13.866   6.392  0.00  0.00    -0.289 OA
BRANCH   6   7
HETATM    7  P   UNK N   1      21.302  13.564   7.624  0.00  0.00     0.402 P 
HETATM    8  O   UNK N   1      20.928  12.134   7.147  0.00  0.00    -0.631 OA
BRANCH   7   9
HETATM    9  O   UNK N   1      19.934  14.372   8.323  0.00  0.00    -0.307 OA
HETATM   10  H   UNK N   1      19.367  15.101   8.622  0.00  0.00     0.222 HD
ENDBRANCH   7   9
BRANCH   7  11
HETATM   11  O   UNK N   1      20.830  12.764   9.096  0.00  0.00    -0.195 OA
BRANCH  11  12
HETATM   12  P   UNK N   1      22.306  12.230   9.855  0.00  0.00     0.399 P 
HETATM   13  O   UNK N   1      23.241  13.458  10.020  0.00  0.00    -0.631 OA
BRANCH  12  14
HETATM   14  O   UNK N   1      23.142  11.103   8.834  0.00  0.00    -0.307 OA
HETATM   15  H   UNK N   1      22.974  10.148   8.808  0.00  0.00     0.222 HD
ENDBRANCH  12  14
BRANCH  12  16
HETATM   16  O   UNK N   1      22.036  11.546  11.428  0.00  0.00    -0.307 OA
HETATM   17  H   UNK N   1      22.519  11.882  12.199  0.00  0.00     0.222 HD
ENDBRANCH  12  16
ENDBRANCH  11  12
ENDBRANCH   7  11
ENDBRANCH   6   7
ENDBRANCH   3   6
BRANCH   5  18
HETATM   18  O   UNK N   1      17.803  15.739   5.636  0.00  0.00    -0.390 OA
HETATM   19  H   UNK N   1      16.972  15.518   5.187  0.00  0.00     0.210 HD
ENDBRANCH   5  18
BRANCH   2  20
HETATM   20  C   UNK N   1      21.998  17.726   4.113  0.00  0.00     0.187 C 
BRANCH  20  21
HETATM   21  O   UNK N   1      21.344  18.952   4.298  0.00  0.00    -0.297 OA
BRANCH  21  22
HETATM   22  P   UNK N   1      21.558  19.855   2.824  0.00  0.00     0.390 P 
HETATM   23  O   UNK N   1      22.949  20.052   3.485  0.00  0.00    -0.632 OA
BRANCH  22  24
HETATM   24  O   UNK N   1      21.715  21.583   2.851  0.00  0.00    -0.307 OA
HETATM   25  H   UNK N   1      22.058  22.058   2.078  0.00  0.00     0.222 HD
ENDBRANCH  22  24
BRANCH  22  26
HETATM   26  O   UNK N   1      20.346  20.588   3.830  0.00  0.00    -0.307 OA
HETATM   27  H   UNK N   1      20.513  21.444   4.256  0.00  0.00     0.222 HD
ENDBRANCH  22  26
ENDBRANCH  21  22
ENDBRANCH  20  21
ENDBRANCH   2  20
BRANCH   4  28
HETATM   28  O   UNK N   1      18.889  17.420   3.425  0.00  0.00    -0.392 OA
HETATM   29  H   UNK N   1      18.906  18.352   3.157  0.00  0.00     0.210 HD
ENDBRANCH   4  28
TORSDOF 14
ENDMDL
MODEL 3
REMARK VINA RESULT:      -5.8      3.639      8.512
REMARK  14 active torsions:
REMARK  status: ('A' for Active; 'I' for Inactive)
REMARK    1  A    between atoms: C_3  and  C_2 
REMARK    2  A    between atoms: O_17  and  C_2 
REMARK    3  A    between atoms: C_4  and  O_18 
REMARK    4  A    between atoms: C_5  and  O_7 
REMARK    5  A    between atoms: C_6  and  O_8 
REMARK    6  A    between atoms: P_20  and  O_9 
REMARK    7  A    between atoms: P_20  and  O_10 
REMARK    8  A    between atoms: P_21  and  O_12 
REMARK    9  A    between atoms: P_21  and  O_13 
REMARK   10  A    between atoms: P_22  and  O_15 
REMARK   11  A    between atoms: P_20  and  O_17 
REMARK   12  A    between atoms: P_22  and  O_18 
REMARK   13  A    between atoms: P_21  and  O_19 
REMARK   14  A    between atoms: P_22  and  O_19 
ROOT
HETATM    1  C   UNK N   1      29.995  17.201   6.918  0.00  0.00     0.044 C 
HETATM    2  C   UNK N   1      28.572  17.677   7.242  0.00  0.00     0.044 C 
HETATM    3  C   UNK N   1      30.705  17.083   8.269  0.00  0.00     0.165 C 
HETATM    4  C   UNK N   1      28.630  18.053   8.724  0.00  0.00     0.155 C 
HETATM    5  C   UNK N   1      29.552  16.976   9.263  0.00  0.00     0.176 C 
ENDROOT
BRANCH   3   6
HETATM    6  O   UNK N   1      31.557  15.959   8.302  0.00  0.00    -0.289 OA
BRANCH   6   7
HETATM    7  P   UNK N   1      33.204  16.500   8.560  0.00  0.00     0.402 P 
HETATM    8  O   UNK N   1      33.319  15.634   7.276  0.00  0.00    -0.631 OA
BRANCH   7   9
HETATM    9  O   UNK N   1      32.674  15.551   9.914  0.00  0.00    -0.307 OA
HETATM   10  H   UNK N   1      32.719  14.926  10.655  0.00  0.00     0.222 HD
ENDBRANCH   7   9
BRANCH   7  11
HETATM   11  O   UNK N   1      34.424  15.332   8.977  0.00  0.00    -0.195 OA
BRANCH  11  12
HETATM   12  P   UNK N   1      35.266  15.981  10.358  0.00  0.00     0.399 P 
HETATM   13  O   UNK N   1      35.228  17.531  10.268  0.00  0.00    -0.631 OA
BRANCH  12  14
HETATM   14  O   UNK N   1      36.940  15.523  10.321  0.00  0.00    -0.307 OA
HETATM   15  H   UNK N   1      37.594  15.758  10.997  0.00  0.00     0.222 HD
ENDBRANCH  12  14
BRANCH  12  16
HETATM   16  O   UNK N   1      34.537  15.514  11.863  0.00  0.00    -0.307 OA
HETATM   17  H   UNK N   1      33.572  15.495  11.957  0.00  0.00     0.222 HD
ENDBRANCH  12  16
ENDBRANCH  11  12
ENDBRANCH   7  11
ENDBRANCH   6   7
ENDBRANCH   3   6
BRANCH   5  18
HETATM   18  O   UNK N   1      29.955  17.225  10.575  0.00  0.00    -0.390 OA
HETATM   19  H   UNK N   1      30.207  16.520  11.193  0.00  0.00     0.210 HD
ENDBRANCH   5  18
BRANCH   2  20
HETATM   20  C   UNK N   1      28.150  18.825   6.327  0.00  0.00     0.187 C 
BRANCH  20  21
HETATM   21  O   UNK N   1      27.953  20.020   7.033  0.00  0.00    -0.297 OA
BRANCH  21  22
HETATM   22  P   UNK N   1      26.588  20.812   6.296  0.00  0.00     0.390 P 
HETATM   23  O   UNK N   1      27.679  21.904   6.128  0.00  0.00    -0.632 OA
BRANCH  22  24
HETATM   24  O   UNK N   1      25.849  22.193   7.041  0.00  0.00    -0.307 OA
HETATM   25  H   UNK N   1      25.898  22.319   8.002  0.00  0.00     0.222 HD
ENDBRANCH  22  24
BRANCH  22  26
HETATM   26  O   UNK N   1      26.310  20.547   7.989  0.00  0.00    -0.307 OA
HETATM   27  H   UNK N   1      26.927  20.899   8.650  0.00  0.00     0.222 HD
ENDBRANCH  22  26
ENDBRANCH  21  22
ENDBRANCH  20  21
ENDBRANCH   2  20
BRANCH   4  28
HETATM   28  O   UNK N   1      27.372  18.037   9.328  0.00  0.00    -0.392 OA
HETATM   29  H   UNK N   1      26.592  17.632   8.916  0.00  0.00     0.210 HD
ENDBRANCH   4  28
TORSDOF 14
ENDMDL
MODEL 4
REMARK VINA RESULT:      -5.5      2.258      7.202
REMARK  14 active torsions:
REMARK  status: ('A' for Active; 'I' for Inactive)
REMARK    1  A    between atoms: C_3  and  C_2 
REMARK    2  A    between atoms: O_17  and  C_2 
REMARK    3  A    between atoms: C_4  and  O_18 
REMARK    4  A    between atoms: C_5  and  O_7 
REMARK    5  A    between atoms: C_6  and  O_8 
REMARK    6  A    between atoms: P_20  and  O_9 
REMARK    7  A    between atoms: P_20  and  O_10 
REMARK    8  A    between atoms: P_21  and  O_12 
REMARK    9  A    between atoms: P_21  and  O_13 
REMARK   10  A    between atoms: P_22  and  O_15 
REMARK   11  A    between atoms: P_20  and  O_17 
REMARK   12  A    between atoms: P_22  and  O_18 
REMARK   13  A    between atoms: P_21  and  O_19 
REMARK   14  A    between atoms: P_22  and  O_19 
ROOT
HETATM    1  C   UNK N   1      32.545  17.340   7.945  0.00  0.00     0.044 C 
HETATM    2  C   UNK N   1      31.796  17.041   6.639  0.00  0.00     0.044 C 
HETATM    3  C   UNK N   1      33.543  16.192   8.116  0.00  0.00     0.165 C 
HETATM    4  C   UNK N   1      32.222  15.617   6.279  0.00  0.00     0.155 C 
HETATM    5  C   UNK N   1      33.678  15.631   6.704  0.00  0.00     0.176 C 
ENDROOT
BRANCH   3   6
HETATM    6  O   UNK N   1      34.770  16.655   8.637  0.00  0.00    -0.289 OA
BRANCH   6   7
HETATM    7  P   UNK N   1      34.846  16.272  10.345  0.00  0.00     0.402 P 
HETATM    8  O   UNK N   1      35.639  17.603  10.252  0.00  0.00    -0.631 OA
BRANCH   7   9
HETATM    9  O   UNK N   1      35.613  15.016   9.422  0.00  0.00    -0.307 OA
HETATM   10  H   UNK N   1      36.172  14.248   9.228  0.00  0.00     0.222 HD
ENDBRANCH   7   9
BRANCH   7  11
HETATM   11  O   UNK N   1      36.381  15.869  11.055  0.00  0.00    -0.195 OA
BRANCH  11  12
HETATM   12  P   UNK N   1      36.101  14.473  12.061  0.00  0.00     0.399 P 
HETATM   13  O   UNK N   1      36.825  13.257  11.420  0.00  0.00    -0.631 OA
BRANCH  12  14
HETATM   14  O   UNK N   1      34.411  14.080  12.100  0.00  0.00    -0.307 OA
HETATM   15  H   UNK N   1      33.955  13.665  12.849  0.00  0.00     0.222 HD
ENDBRANCH  12  14
BRANCH  12  16
HETATM   16  O   UNK N   1      36.718  14.677  13.671  0.00  0.00    -0.307 OA
HETATM   17  H   UNK N   1      37.435  14.111  13.998  0.00  0.00     0.222 HD
ENDBRANCH  12  16
ENDBRANCH  11  12
ENDBRANCH   7  11
ENDBRANCH   6   7
ENDBRANCH   3   6
BRANCH   5  18
HETATM   18  O   UNK N   1      34.252  14.359   6.689  0.00  0.00    -0.390 OA
HETATM   19  H   UNK N   1      33.813  13.586   6.301  0.00  0.00     0.210 HD
ENDBRANCH   5  18
BRANCH   2  20
HETATM   20  C   UNK N   1      30.288  17.213   6.814  0.00  0.00     0.187 C 
BRANCH  20  21
HETATM   21  O   UNK N   1      29.900  17.137   8.159  0.00  0.00    -0.297 OA
BRANCH  21  22
HETATM   22  P   UNK N   1      28.814  18.470   8.436  0.00  0.00     0.390 P 
HETATM   23  O   UNK N   1      29.400  18.278   9.860  0.00  0.00    -0.632 OA
BRANCH  22  24
HETATM   24  O   UNK N   1      27.386  18.271   9.403  0.00  0.00    -0.307 OA
HETATM   25  H   UNK N   1      27.407  18.458  10.355  0.00  0.00     0.222 HD
ENDBRANCH  22  24
BRANCH  22  26
HETATM   26  O   UNK N   1      27.937  17.039   7.989  0.00  0.00    -0.307 OA
HETATM   27  H   UNK N   1      28.236  16.490   7.247  0.00  0.00     0.222 HD
ENDBRANCH  22  26
ENDBRANCH  21  22
ENDBRANCH  20  21
ENDBRANCH   2  20
BRANCH   4  28
HETATM   28  O   UNK N   1      32.060  15.339   4.920  0.00  0.00    -0.392 OA
HETATM   29  H   UNK N   1      32.063  14.438   4.561  0.00  0.00     0.210 HD
ENDBRANCH   4  28
TORSDOF 14
ENDMDL
MODEL 5
REMARK VINA RESULT:      -5.4     15.766     19.483
REMARK  14 active torsions:
REMARK  status: ('A' for Active; 'I' for Inactive)
REMARK    1  A    between atoms: C_3  and  C_2 
REMARK    2  A    between atoms: O_17  and  C_2 
REMARK    3  A    between atoms: C_4  and  O_18 
REMARK    4  A    between atoms: C_5  and  O_7 
REMARK    5  A    between atoms: C_6  and  O_8 
REMARK    6  A    between atoms: P_20  and  O_9 
REMARK    7  A    between atoms: P_20  and  O_10 
REMARK    8  A    between atoms: P_21  and  O_12 
REMARK    9  A    between atoms: P_21  and  O_13 
REMARK   10  A    between atoms: P_22  and  O_15 
REMARK   11  A    between atoms: P_20  and  O_17 
REMARK   12  A    between atoms: P_22  and  O_18 
REMARK   13  A    between atoms: P_21  and  O_19 
REMARK   14  A    between atoms: P_22  and  O_19 
ROOT
HETATM    1  C   UNK N   1      27.602  24.010  -4.991  0.00  0.00     0.044 C 
HETATM    2  C   UNK N   1      26.268  24.337  -5.676  0.00  0.00     0.044 C 
HETATM    3  C   UNK N   1      27.867  25.175  -4.033  0.00  0.00     0.165 C 
HETATM    4  C   UNK N   1      25.980  25.783  -5.267  0.00  0.00     0.155 C 
HETATM    5  C   UNK N   1      26.484  25.788  -3.836  0.00  0.00     0.176 C 
ENDROOT
BRANCH   3   6
HETATM    6  O   UNK N   1      28.438  24.722  -2.825  0.00  0.00    -0.289 OA
BRANCH   6   7
HETATM    7  P   UNK N   1      29.348  23.259  -3.138  0.00  0.00     0.402 P 
HETATM    8  O   UNK N   1      28.610  22.932  -1.811  0.00  0.00    -0.631 OA
BRANCH   7   9
HETATM    9  O   UNK N   1      30.434  24.599  -2.941  0.00  0.00    -0.307 OA
HETATM   10  H   UNK N   1      30.805  25.489  -3.053  0.00  0.00     0.222 HD
ENDBRANCH   7   9
BRANCH   7  11
HETATM   11  O   UNK N   1      30.642  22.819  -2.062  0.00  0.00    -0.195 OA
BRANCH  11  12
HETATM   12  P   UNK N   1      31.757  21.867  -3.005  0.00  0.00     0.399 P 
HETATM   13  O   UNK N   1      30.961  20.724  -3.693  0.00  0.00    -0.631 OA
BRANCH  12  14
HETATM   14  O   UNK N   1      32.929  21.105  -1.975  0.00  0.00    -0.307 OA
HETATM   15  H   UNK N   1      32.920  21.137  -1.006  0.00  0.00     0.222 HD
ENDBRANCH  12  14
BRANCH  12  16
HETATM   16  O   UNK N   1      32.543  22.794  -4.244  0.00  0.00    -0.307 OA
HETATM   17  H   UNK N   1      32.250  23.698  -4.442  0.00  0.00     0.222 HD
ENDBRANCH  12  16
ENDBRANCH  11  12
ENDBRANCH   7  11
ENDBRANCH   6   7
ENDBRANCH   3   6
BRANCH   5  18
HETATM   18  O   UNK N   1      26.543  27.073  -3.295  0.00  0.00    -0.390 OA
HETATM   19  H   UNK N   1      25.752  27.587  -3.067  0.00  0.00     0.210 HD
ENDBRANCH   5  18
BRANCH   2  20
HETATM   20  C   UNK N   1      26.354  24.124  -7.186  0.00  0.00     0.187 C 
BRANCH  20  21
HETATM   21  O   UNK N   1      25.214  23.486  -7.696  0.00  0.00    -0.297 OA
BRANCH  21  22
HETATM   22  P   UNK N   1      25.688  21.852  -8.071  0.00  0.00     0.390 P 
HETATM   23  O   UNK N   1      26.390  22.625  -9.220  0.00  0.00    -0.632 OA
BRANCH  22  24
HETATM   24  O   UNK N   1      25.080  21.050  -9.484  0.00  0.00    -0.307 OA
HETATM   25  H   UNK N   1      25.472  21.223 -10.355  0.00  0.00     0.222 HD
ENDBRANCH  22  24
BRANCH  22  26
HETATM   26  O   UNK N   1      23.970  22.049  -8.225  0.00  0.00    -0.307 OA
HETATM   27  H   UNK N   1      23.598  22.592  -8.938  0.00  0.00     0.222 HD
ENDBRANCH  22  26
ENDBRANCH  21  22
ENDBRANCH  20  21
ENDBRANCH   2  20
BRANCH   4  28
HETATM   28  O   UNK N   1      24.625  26.104  -5.363  0.00  0.00    -0.392 OA
HETATM   29  H   UNK N   1      23.935  25.444  -5.533  0.00  0.00     0.210 HD
ENDBRANCH   4  28
TORSDOF 14
ENDMDL
MODEL 6
REMARK VINA RESULT:      -5.3      2.939      7.673
REMARK  14 active torsions:
REMARK  status: ('A' for Active; 'I' for Inactive)
REMARK    1  A    between atoms: C_3  and  C_2 
REMARK    2  A    between atoms: O_17  and  C_2 
REMARK    3  A    between atoms: C_4  and  O_18 
REMARK    4  A    between atoms: C_5  and  O_7 
REMARK    5  A    between atoms: C_6  and  O_8 
REMARK    6  A    between atoms: P_20  and  O_9 
REMARK    7  A    between atoms: P_20  and  O_10 
REMARK    8  A    between atoms: P_21  and  O_12 
REMARK    9  A    between atoms: P_21  and  O_13 
REMARK   10  A    between atoms: P_22  and  O_15 
REMARK   11  A    between atoms: P_20  and  O_17 
REMARK   12  A    between atoms: P_22  and  O_18 
REMARK   13  A    between atoms: P_21  and  O_19 
REMARK   14  A    between atoms: P_22  and  O_19 
ROOT
HETATM    1  C   UNK N   1      33.584  14.811  10.433  0.00  0.00     0.044 C 
HETATM    2  C   UNK N   1      33.571  16.049   9.526  0.00  0.00     0.044 C 
HETATM    3  C   UNK N   1      34.985  14.770  11.048  0.00  0.00     0.165 C 
HETATM    4  C   UNK N   1      35.034  16.492   9.472  0.00  0.00     0.155 C 
HETATM    5  C   UNK N   1      35.479  16.205  10.894  0.00  0.00     0.176 C 
ENDROOT
BRANCH   3   6
HETATM    6  O   UNK N   1      34.939  14.353  12.395  0.00  0.00    -0.289 OA
BRANCH   6   7
HETATM    7  P   UNK N   1      35.762  12.813  12.544  0.00  0.00     0.402 P 
HETATM    8  O   UNK N   1      34.549  12.652  13.499  0.00  0.00    -0.631 OA
BRANCH   7   9
HETATM    9  O   UNK N   1      36.809  14.096  13.067  0.00  0.00    -0.307 OA
HETATM   10  H   UNK N   1      37.422  14.846  13.008  0.00  0.00     0.222 HD
ENDBRANCH   7   9
BRANCH   7  11
HETATM   11  O   UNK N   1      36.504  12.392  14.060  0.00  0.00    -0.195 OA
BRANCH  11  12
HETATM   12  P   UNK N   1      36.014  10.754  14.403  0.00  0.00     0.399 P 
HETATM   13  O   UNK N   1      37.245   9.981  14.949  0.00  0.00    -0.631 OA
BRANCH  12  14
HETATM   14  O   UNK N   1      35.526   9.947  12.946  0.00  0.00    -0.307 OA
HETATM   15  H   UNK N   1      34.854  10.275  12.328  0.00  0.00     0.222 HD
ENDBRANCH  12  14
BRANCH  12  16
HETATM   16  O   UNK N   1      34.756  10.672  15.597  0.00  0.00    -0.307 OA
HETATM   17  H   UNK N   1      34.602  11.416  16.201  0.00  0.00     0.222 HD
ENDBRANCH  12  16
ENDBRANCH  11  12
ENDBRANCH   7  11
ENDBRANCH   6   7
ENDBRANCH   3   6
BRANCH   5  18
HETATM   18  O   UNK N   1      36.860  16.314  11.054  0.00  0.00    -0.390 OA
HETATM   19  H   UNK N   1      37.348  17.137  10.892  0.00  0.00     0.210 HD
ENDBRANCH   5  18
BRANCH   2  20
HETATM   20  C   UNK N   1      32.968  15.728   8.160  0.00  0.00     0.187 C 
BRANCH  20  21
HETATM   21  O   UNK N   1      33.782  16.170   7.106  0.00  0.00    -0.297 OA
BRANCH  21  22
HETATM   22  P   UNK N   1      32.793  17.210   6.119  0.00  0.00     0.390 P 
HETATM   23  O   UNK N   1      32.965  15.993   5.171  0.00  0.00    -0.632 OA
BRANCH  22  24
HETATM   24  O   UNK N   1      33.431  17.945   4.682  0.00  0.00    -0.307 OA
HETATM   25  H   UNK N   1      33.096  18.803   4.378  0.00  0.00     0.222 HD
ENDBRANCH  22  24
BRANCH  22  26
HETATM   26  O   UNK N   1      34.350  17.924   6.407  0.00  0.00    -0.307 OA
HETATM   27  H   UNK N   1      35.159  17.401   6.298  0.00  0.00     0.222 HD
ENDBRANCH  22  26
ENDBRANCH  21  22
ENDBRANCH  20  21
ENDBRANCH   2  20
BRANCH   4  28
HETATM   28  O   UNK N   1      35.172  17.837   9.125  0.00  0.00    -0.392 OA
HETATM   29  H   UNK N   1      36.028  18.246   8.922  0.00  0.00     0.210 HD
ENDBRANCH   4  28
TORSDOF 14
ENDMDL
MODEL 7
REMARK VINA RESULT:      -5.3      1.550      2.071
REMARK  14 active torsions:
REMARK  status: ('A' for Active; 'I' for Inactive)
REMARK    1  A    between atoms: C_3  and  C_2 
REMARK    2  A    between atoms: O_17  and  C_2 
REMARK    3  A    between atoms: C_4  and  O_18 
REMARK    4  A    between atoms: C_5  and  O_7 
REMARK    5  A    between atoms: C_6  and  O_8 
REMARK    6  A    between atoms: P_20  and  O_9 
REMARK    7  A    between atoms: P_20  and  O_10 
REMARK    8  A    between atoms: P_21  and  O_12 
REMARK    9  A    between atoms: P_21  and  O_13 
REMARK   10  A    between atoms: P_22  and  O_15 
REMARK   11  A    between atoms: P_20  and  O_17 
REMARK   12  A    between atoms: P_22  and  O_18 
REMARK   13  A    between atoms: P_21  and  O_19 
REMARK   14  A    between atoms: P_22  and  O_19 
ROOT
HETATM    1  C   UNK N   1      34.029  14.312   9.610  0.00  0.00     0.044 C 
HETATM    2  C   UNK N   1      35.221  14.232  10.573  0.00  0.00     0.044 C 
HETATM    3  C   UNK N   1      33.868  15.798   9.280  0.00  0.00     0.165 C 
HETATM    4  C   UNK N   1      35.505  15.689  10.941  0.00  0.00     0.155 C 
HETATM    5  C   UNK N   1      35.236  16.383   9.619  0.00  0.00     0.176 C 
ENDROOT
BRANCH   3   6
HETATM    6  O   UNK N   1      33.517  15.985   7.926  0.00  0.00    -0.289 OA
BRANCH   6   7
HETATM    7  P   UNK N   1      31.771  16.010   7.788  0.00  0.00     0.402 P 
HETATM    8  O   UNK N   1      32.238  16.241   6.325  0.00  0.00    -0.631 OA
BRANCH   7   9
HETATM    9  O   UNK N   1      32.300  17.295   8.828  0.00  0.00    -0.307 OA
HETATM   10  H   UNK N   1      32.640  18.165   9.094  0.00  0.00     0.222 HD
ENDBRANCH   7   9
BRANCH   7  11
HETATM   11  O   UNK N   1      30.976  17.493   7.347  0.00  0.00    -0.195 OA
BRANCH  11  12
HETATM   12  P   UNK N   1      29.906  17.099   6.029  0.00  0.00     0.399 P 
HETATM   13  O   UNK N   1      28.512  17.712   6.333  0.00  0.00    -0.631 OA
BRANCH  12  14
HETATM   14  O   UNK N   1      29.681  15.382   5.920  0.00  0.00    -0.307 OA
HETATM   15  H   UNK N   1      29.285  14.829   6.612  0.00  0.00     0.222 HD
ENDBRANCH  12  14
BRANCH  12  16
HETATM   16  O   UNK N   1      30.455  17.741   4.512  0.00  0.00    -0.307 OA
HETATM   17  H   UNK N   1      31.403  17.839   4.333  0.00  0.00     0.222 HD
ENDBRANCH  12  16
ENDBRANCH  11  12
ENDBRANCH   7  11
ENDBRANCH   6   7
ENDBRANCH   3   6
BRANCH   5  18
HETATM   18  O   UNK N   1      35.206  17.772   9.740  0.00  0.00    -0.390 OA
HETATM   19  H   UNK N   1      35.997  18.327   9.654  0.00  0.00     0.210 HD
ENDBRANCH   5  18
BRANCH   2  20
HETATM   20  C   UNK N   1      34.906  13.339  11.772  0.00  0.00     0.187 C 
BRANCH  20  21
HETATM   21  O   UNK N   1      35.133  13.992  12.992  0.00  0.00    -0.297 OA
BRANCH  21  22
HETATM   22  P   UNK N   1      35.882  12.826  14.046  0.00  0.00     0.390 P 
HETATM   23  O   UNK N   1      34.670  13.259  14.914  0.00  0.00    -0.632 OA
BRANCH  22  24
HETATM   24  O   UNK N   1      36.642  13.320  15.526  0.00  0.00    -0.307 OA
HETATM   25  H   UNK N   1      36.675  12.719  16.287  0.00  0.00     0.222 HD
ENDBRANCH  22  24
BRANCH  22  26
HETATM   26  O   UNK N   1      36.920  14.196  13.801  0.00  0.00    -0.307 OA
HETATM   27  H   UNK N   1      37.597  14.183  13.107  0.00  0.00     0.222 HD
ENDBRANCH  22  26
ENDBRANCH  21  22
ENDBRANCH  20  21
ENDBRANCH   2  20
BRANCH   4  28
HETATM   28  O   UNK N   1      36.812  15.880  11.393  0.00  0.00    -0.392 OA
HETATM   29  H   UNK N   1      37.449  16.457  10.942  0.00  0.00     0.210 HD
ENDBRANCH   4  28
TORSDOF 14
ENDMDL
MODEL 8
REMARK VINA RESULT:      -5.3      3.419      7.764
REMARK  14 active torsions:
REMARK  status: ('A' for Active; 'I' for Inactive)
REMARK    1  A    between atoms: C_3  and  C_2 
REMARK    2  A    between atoms: O_17  and  C_2 
REMARK    3  A    between atoms: C_4  and  O_18 
REMARK    4  A    between atoms: C_5  and  O_7 
REMARK    5  A    between atoms: C_6  and  O_8 
REMARK    6  A    between atoms: P_20  and  O_9 
REMARK    7  A    between atoms: P_20  and  O_10 
REMARK    8  A    between atoms: P_21  and  O_12 
REMARK    9  A    between atoms: P_21  and  O_13 
REMARK   10  A    between atoms: P_22  and  O_15 
REMARK   11  A    between atoms: P_20  and  O_17 
REMARK   12  A    between atoms: P_22  and  O_18 
REMARK   13  A    between atoms: P_21  and  O_19 
REMARK   14  A    between atoms: P_22  and  O_19 
ROOT
HETATM    1  C   UNK N   1      33.838  14.644   7.844  0.00  0.00     0.044 C 
HETATM    2  C   UNK N   1      33.590  15.746   6.805  0.00  0.00     0.044 C 
HETATM    3  C   UNK N   1      34.643  15.310   8.963  0.00  0.00     0.165 C 
HETATM    4  C   UNK N   1      34.482  16.902   7.262  0.00  0.00     0.155 C 
HETATM    5  C   UNK N   1      34.350  16.795   8.769  0.00  0.00     0.176 C 
ENDROOT
BRANCH   3   6
HETATM    6  O   UNK N   1      34.241  14.838  10.231  0.00  0.00    -0.289 OA
BRANCH   6   7
HETATM    7  P   UNK N   1      35.666  14.550  11.208  0.00  0.00     0.402 P 
HETATM    8  O   UNK N   1      35.841  13.547  10.036  0.00  0.00    -0.631 OA
BRANCH   7   9
HETATM    9  O   UNK N   1      34.237  14.198  12.129  0.00  0.00    -0.307 OA
HETATM   10  H   UNK N   1      33.521  13.679  12.528  0.00  0.00     0.222 HD
ENDBRANCH   7   9
BRANCH   7  11
HETATM   11  O   UNK N   1      35.844  13.020  12.017  0.00  0.00    -0.195 OA
BRANCH  11  12
HETATM   12  P   UNK N   1      36.126  13.387  13.698  0.00  0.00     0.399 P 
HETATM   13  O   UNK N   1      37.167  12.376  14.249  0.00  0.00    -0.631 OA
BRANCH  12  14
HETATM   14  O   UNK N   1      34.675  13.161  14.622  0.00  0.00    -0.307 OA
HETATM   15  H   UNK N   1      34.337  13.783  15.285  0.00  0.00     0.222 HD
ENDBRANCH  12  14
BRANCH  12  16
HETATM   16  O   UNK N   1      36.757  14.988  13.932  0.00  0.00    -0.307 OA
HETATM   17  H   UNK N   1      37.539  15.285  13.441  0.00  0.00     0.222 HD
ENDBRANCH  12  16
ENDBRANCH  11  12
ENDBRANCH   7  11
ENDBRANCH   6   7
ENDBRANCH   3   6
BRANCH   5  18
HETATM   18  O   UNK N   1      35.259  17.610   9.445  0.00  0.00    -0.390 OA
HETATM   19  H   UNK N   1      35.173  18.575   9.488  0.00  0.00     0.210 HD
ENDBRANCH   5  18
BRANCH   2  20
HETATM   20  C   UNK N   1      33.888  15.253   5.391  0.00  0.00     0.187 C 
BRANCH  20  21
HETATM   21  O   UNK N   1      33.865  16.293   4.451  0.00  0.00    -0.297 OA
BRANCH  21  22
HETATM   22  P   UNK N   1      32.391  16.108   3.543  0.00  0.00     0.390 P 
HETATM   23  O   UNK N   1      33.446  15.849   2.434  0.00  0.00    -0.632 OA
BRANCH  22  24
HETATM   24  O   UNK N   1      31.943  17.261   2.326  0.00  0.00    -0.307 OA
HETATM   25  H   UNK N   1      31.039  17.276   1.971  0.00  0.00     0.222 HD
ENDBRANCH  22  24
BRANCH  22  26
HETATM   26  O   UNK N   1      32.564  17.738   4.116  0.00  0.00    -0.307 OA
HETATM   27  H   UNK N   1      31.783  18.261   4.354  0.00  0.00     0.222 HD
ENDBRANCH  22  26
ENDBRANCH  21  22
ENDBRANCH  20  21
ENDBRANCH   2  20
BRANCH   4  28
HETATM   28  O   UNK N   1      34.053  18.135   6.769  0.00  0.00    -0.392 OA
HETATM   29  H   UNK N   1      34.204  18.972   7.235  0.00  0.00     0.210 HD
ENDBRANCH   4  28
TORSDOF 14
ENDMDL
MODEL 9
REMARK VINA RESULT:      -5.2      2.901      3.518
REMARK  14 active torsions:
REMARK  status: ('A' for Active; 'I' for Inactive)
REMARK    1  A    between atoms: C_3  and  C_2 
REMARK    2  A    between atoms: O_17  and  C_2 
REMARK    3  A    between atoms: C_4  and  O_18 
REMARK    4  A    between atoms: C_5  and  O_7 
REMARK    5  A    between atoms: C_6  and  O_8 
REMARK    6  A    between atoms: P_20  and  O_9 
REMARK    7  A    between atoms: P_20  and  O_10 
REMARK    8  A    between atoms: P_21  and  O_12 
REMARK    9  A    between atoms: P_21  and  O_13 
REMARK   10  A    between atoms: P_22  and  O_15 
REMARK   11  A    between atoms: P_20  and  O_17 
REMARK   12  A    between atoms: P_22  and  O_18 
REMARK   13  A    between atoms: P_21  and  O_19 
REMARK   14  A    between atoms: P_22  and  O_19 
ROOT
HETATM    1  C   UNK N   1      33.941  15.474   8.016  0.00  0.00     0.044 C 
HETATM    2  C   UNK N   1      34.718  15.595   9.334  0.00  0.00     0.044 C 
HETATM    3  C   UNK N   1      33.769  16.908   7.510  0.00  0.00     0.165 C 
HETATM    4  C   UNK N   1      34.716  17.095   9.636  0.00  0.00     0.155 C 
HETATM    5  C   UNK N   1      34.868  17.673   8.242  0.00  0.00     0.176 C 
ENDROOT
BRANCH   3   6
HETATM    6  O   UNK N   1      33.903  16.974   6.107  0.00  0.00    -0.289 OA
BRANCH   6   7
HETATM    7  P   UNK N   1      32.688  15.949   5.370  0.00  0.00     0.402 P 
HETATM    8  O   UNK N   1      33.894  15.810   4.401  0.00  0.00    -0.631 OA
BRANCH   7   9
HETATM    9  O   UNK N   1      32.119  17.588   5.434  0.00  0.00    -0.307 OA
HETATM   10  H   UNK N   1      31.976  18.485   5.776  0.00  0.00     0.222 HD
ENDBRANCH   7   9
BRANCH   7  11
HETATM   11  O   UNK N   1      32.016  16.404   3.831  0.00  0.00    -0.195 OA
BRANCH  11  12
HETATM   12  P   UNK N   1      30.285  16.397   4.034  0.00  0.00     0.399 P 
HETATM   13  O   UNK N   1      29.949  15.600   5.324  0.00  0.00    -0.631 OA
BRANCH  12  14
HETATM   14  O   UNK N   1      29.521  15.560   2.720  0.00  0.00    -0.307 OA
HETATM   15  H   UNK N   1      29.195  15.981   1.909  0.00  0.00     0.222 HD
ENDBRANCH  12  14
BRANCH  12  16
HETATM   16  O   UNK N   1      29.628  17.995   4.206  0.00  0.00    -0.307 OA
HETATM   17  H   UNK N   1      30.145  18.770   3.936  0.00  0.00     0.222 HD
ENDBRANCH  12  16
ENDBRANCH  11  12
ENDBRANCH   7  11
ENDBRANCH   6   7
ENDBRANCH   3   6
BRANCH   5  18
HETATM   18  O   UNK N   1      34.668  19.053   8.211  0.00  0.00    -0.390 OA
HETATM   19  H   UNK N   1      35.110  19.665   8.821  0.00  0.00     0.210 HD
ENDBRANCH   5  18
BRANCH   2  20
HETATM   20  C   UNK N   1      34.084  14.740  10.431  0.00  0.00     0.187 C 
BRANCH  20  21
HETATM   21  O   UNK N   1      34.611  15.030  11.698  0.00  0.00    -0.297 OA
BRANCH  21  22
HETATM   22  P   UNK N   1      35.830  13.828  12.014  0.00  0.00     0.390 P 
HETATM   23  O   UNK N   1      34.844  13.551  13.181  0.00  0.00    -0.632 OA
BRANCH  22  24
HETATM   24  O   UNK N   1      36.858  13.946  13.407  0.00  0.00    -0.307 OA
HETATM   25  H   UNK N   1      36.787  13.300  14.128  0.00  0.00     0.222 HD
ENDBRANCH  22  24
BRANCH  22  26
HETATM   26  O   UNK N   1      36.478  15.429  12.192  0.00  0.00    -0.307 OA
HETATM   27  H   UNK N   1      37.417  15.559  12.401  0.00  0.00     0.222 HD
ENDBRANCH  22  26
ENDBRANCH  21  22
ENDBRANCH  20  21
ENDBRANCH   2  20
BRANCH   4  28
HETATM   28  O   UNK N   1      35.755  17.468  10.490  0.00  0.00    -0.392 OA
HETATM   29  H   UNK N   1      36.047  16.923  11.238  0.00  0.00     0.210 HD
ENDBRANCH   4  28
TORSDOF 14
ENDMDL
