MODEL 1
REMARK VINA RESULT:      -4.8      0.000      0.000
REMARK  7 active torsions:
REMARK  status: ('A' for Active; 'I' for Inactive)
REMARK    1  A    between atoms: C_3  and  C_2 
REMARK    2  A    between atoms: C_4  and  C_2 
REMARK    3  A    between atoms: C_5  and  C_3 
REMARK    4  A    between atoms: O_9  and  C_4 
REMARK    5  A    between atoms: C_6  and  C_5 
REMARK    6  A    between atoms: C_5  and  N_7 
REMARK    7  A    between atoms: O_11  and  C_6 
ROOT
HETATM    1  C   UNK N   1      19.829  17.733   2.188  0.00  0.00     0.177 C 
ENDROOT
BRANCH   1   2
HETATM    2  C   UNK N   1      20.917  18.380   3.082  0.00  0.00     0.024 C 
HETATM    3  C   UNK N   1      21.116  17.599   4.377  0.00  0.00     0.013 C 
BRANCH   2   4
HETATM    4  C   UNK N   1      20.638  19.863   3.382  0.00  0.00     0.116 C 
BRANCH   4   5
HETATM    5  C   UNK N   1      21.466  20.849   2.610  0.00  0.00     0.139 C 
HETATM    6  O   UNK N   1      22.661  20.946   2.832  0.00  0.00    -0.650 OA
BRANCH   5   7
HETATM    7  O   UNK N   1      20.879  21.680   1.728  0.00  0.00    -0.776 OA
HETATM    8  H   UNK N   1      20.710  22.601   1.732  0.00  0.00     0.167 HD
ENDBRANCH   5   7
ENDBRANCH   4   5
ENDBRANCH   2   4
ENDBRANCH   1   2
BRANCH   1   9
HETATM    9  C   UNK N   1      20.244  17.632   0.736  0.00  0.00     0.163 C 
HETATM   10  O   UNK N   1      20.419  16.533   0.231  0.00  0.00    -0.648 OA
BRANCH   9  11
HETATM   11  O   UNK N   1      20.405  18.736  -0.021  0.00  0.00    -0.775 OA
HETATM   12  H   UNK N   1      20.230  19.594   0.314  0.00  0.00     0.167 HD
ENDBRANCH   9  11
ENDBRANCH   1   9
BRANCH   1  13
HETATM   13  N   UNK N   1      18.609  18.524   2.257  0.00  0.00    -0.417 N 
HETATM   14  H   UNK N   1      17.862  18.746   1.599  0.00  0.00     0.150 HD
HETATM   15  H   UNK N   1      18.469  18.954   3.171  0.00  0.00     0.150 HD
ENDBRANCH   1  13
TORSDOF 7
ENDMDL
MODEL 2
REMARK VINA RESULT:      -4.7     10.171     11.542
REMARK  7 active torsions:
REMARK  status: ('A' for Active; 'I' for Inactive)
REMARK    1  A    between atoms: C_3  and  C_2 
REMARK    2  A    between atoms: C_4  and  C_2 
REMARK    3  A    between atoms: C_5  and  C_3 
REMARK    4  A    between atoms: O_9  and  C_4 
REMARK    5  A    between atoms: C_6  and  C_5 
REMARK    6  A    between atoms: C_5  and  N_7 
REMARK    7  A    between atoms: O_11  and  C_6 
ROOT
HETATM    1  C   UNK N   1      23.900  11.776  11.173  0.00  0.00     0.177 C 
ENDROOT
BRANCH   1   2
HETATM    2  C   UNK N   1      22.925  11.950   9.981  0.00  0.00     0.024 C 
HETATM    3  C   UNK N   1      23.468  11.298   8.713  0.00  0.00     0.013 C 
BRANCH   2   4
HETATM    4  C   UNK N   1      22.561  13.422   9.719  0.00  0.00     0.116 C 
BRANCH   4   5
HETATM    5  C   UNK N   1      21.106  13.765   9.859  0.00  0.00     0.139 C 
HETATM    6  O   UNK N   1      20.697  14.847   9.474  0.00  0.00    -0.650 OA
BRANCH   5   7
HETATM    7  O   UNK N   1      20.267  12.914  10.479  0.00  0.00    -0.776 OA
HETATM    8  H   UNK N   1      19.402  12.612  10.283  0.00  0.00     0.167 HD
ENDBRANCH   5   7
ENDBRANCH   4   5
ENDBRANCH   2   4
ENDBRANCH   1   2
BRANCH   1   9
HETATM    9  C   UNK N   1      23.231  11.981  12.516  0.00  0.00     0.163 C 
HETATM   10  O   UNK N   1      22.045  11.719  12.646  0.00  0.00    -0.648 OA
BRANCH   9  11
HETATM   11  O   UNK N   1      23.927  12.429  13.580  0.00  0.00    -0.775 OA
HETATM   12  H   UNK N   1      23.525  12.543  14.419  0.00  0.00     0.167 HD
ENDBRANCH   9  11
ENDBRANCH   1   9
BRANCH   1  13
HETATM   13  N   UNK N   1      24.988  12.736  11.057  0.00  0.00    -0.417 N 
HETATM   14  H   UNK N   1      25.978  12.672  10.822  0.00  0.00     0.150 HD
HETATM   15  H   UNK N   1      24.693  13.692  11.258  0.00  0.00     0.150 HD
ENDBRANCH   1  13
TORSDOF 7
ENDMDL
MODEL 3
REMARK VINA RESULT:      -4.7     14.565     15.913
REMARK  7 active torsions:
REMARK  status: ('A' for Active; 'I' for Inactive)
REMARK    1  A    between atoms: C_3  and  C_2 
REMARK    2  A    between atoms: C_4  and  C_2 
REMARK    3  A    between atoms: C_5  and  C_3 
REMARK    4  A    between atoms: O_9  and  C_4 
REMARK    5  A    between atoms: C_6  and  C_5 
REMARK    6  A    between atoms: C_5  and  N_7 
REMARK    7  A    between atoms: O_11  and  C_6 
ROOT
HETATM    1  C   UNK N   1      33.539  16.494   7.946  0.00  0.00     0.177 C 
ENDROOT
BRANCH   1   2
HETATM    2  C   UNK N   1      34.590  15.467   8.438  0.00  0.00     0.024 C 
HETATM    3  C   UNK N   1      34.282  14.062   7.929  0.00  0.00     0.013 C 
BRANCH   2   4
HETATM    4  C   UNK N   1      34.751  15.465   9.969  0.00  0.00     0.116 C 
BRANCH   4   5
HETATM    5  C   UNK N   1      35.773  16.418  10.516  0.00  0.00     0.139 C 
HETATM    6  O   UNK N   1      35.550  17.616  10.514  0.00  0.00    -0.650 OA
BRANCH   5   7
HETATM    7  O   UNK N   1      36.968  15.960  10.936  0.00  0.00    -0.776 OA
HETATM    8  H   UNK N   1      37.231  15.191  11.401  0.00  0.00     0.167 HD
ENDBRANCH   5   7
ENDBRANCH   4   5
ENDBRANCH   2   4
ENDBRANCH   1   2
BRANCH   1   9
HETATM    9  C   UNK N   1      34.164  17.705   7.286  0.00  0.00     0.163 C 
HETATM   10  O   UNK N   1      34.168  17.796   6.068  0.00  0.00    -0.648 OA
BRANCH   9  11
HETATM   11  O   UNK N   1      34.699  18.700   8.022  0.00  0.00    -0.775 OA
HETATM   12  H   UNK N   1      34.882  18.596   8.935  0.00  0.00     0.167 HD
ENDBRANCH   9  11
ENDBRANCH   1   9
BRANCH   1  13
HETATM   13  N   UNK N   1      32.741  16.953   9.074  0.00  0.00    -0.417 N 
HETATM   14  H   UNK N   1      32.951  17.422   9.955  0.00  0.00     0.150 HD
HETATM   15  H   UNK N   1      31.747  16.761   8.956  0.00  0.00     0.150 HD
ENDBRANCH   1  13
TORSDOF 7
ENDMDL
MODEL 4
REMARK VINA RESULT:      -4.5     15.359     16.750
REMARK  7 active torsions:
REMARK  status: ('A' for Active; 'I' for Inactive)
REMARK    1  A    between atoms: C_3  and  C_2 
REMARK    2  A    between atoms: C_4  and  C_2 
REMARK    3  A    between atoms: C_5  and  C_3 
REMARK    4  A    between atoms: O_9  and  C_4 
REMARK    5  A    between atoms: C_6  and  C_5 
REMARK    6  A    between atoms: C_5  and  N_7 
REMARK    7  A    between atoms: O_11  and  C_6 
ROOT
HETATM    1  C   UNK N   1      34.230  16.974   8.905  0.00  0.00     0.177 C 
ENDROOT
BRANCH   1   2
HETATM    2  C   UNK N   1      34.845  15.633   8.432  0.00  0.00     0.024 C 
HETATM    3  C   UNK N   1      33.887  14.865   7.527  0.00  0.00     0.013 C 
BRANCH   2   4
HETATM    4  C   UNK N   1      35.314  14.746   9.600  0.00  0.00     0.116 C 
BRANCH   4   5
HETATM    5  C   UNK N   1      36.775  14.829   9.932  0.00  0.00     0.139 C 
HETATM    6  O   UNK N   1      37.543  13.980   9.512  0.00  0.00    -0.650 OA
BRANCH   5   7
HETATM    7  O   UNK N   1      37.229  15.793  10.756  0.00  0.00    -0.776 OA
HETATM    8  H   UNK N   1      37.204  16.728  10.721  0.00  0.00     0.167 HD
ENDBRANCH   5   7
ENDBRANCH   4   5
ENDBRANCH   2   4
ENDBRANCH   1   2
BRANCH   1   9
HETATM    9  C   UNK N   1      34.635  18.147   8.037  0.00  0.00     0.163 C 
HETATM   10  O   UNK N   1      34.352  18.145   6.849  0.00  0.00    -0.648 OA
BRANCH   9  11
HETATM   11  O   UNK N   1      35.286  19.206   8.557  0.00  0.00    -0.775 OA
HETATM   12  H   UNK N   1      34.959  20.080   8.465  0.00  0.00     0.167 HD
ENDBRANCH   9  11
ENDBRANCH   1   9
BRANCH   1  13
HETATM   13  N   UNK N   1      34.656  17.251  10.269  0.00  0.00    -0.417 N 
HETATM   14  H   UNK N   1      35.476  17.690  10.688  0.00  0.00     0.150 HD
HETATM   15  H   UNK N   1      33.981  16.933  10.965  0.00  0.00     0.150 HD
ENDBRANCH   1  13
TORSDOF 7
ENDMDL
MODEL 5
REMARK VINA RESULT:      -4.4     14.525     15.822
REMARK  7 active torsions:
REMARK  status: ('A' for Active; 'I' for Inactive)
REMARK    1  A    between atoms: C_3  and  C_2 
REMARK    2  A    between atoms: C_4  and  C_2 
REMARK    3  A    between atoms: C_5  and  C_3 
REMARK    4  A    between atoms: O_9  and  C_4 
REMARK    5  A    between atoms: C_6  and  C_5 
REMARK    6  A    between atoms: C_5  and  N_7 
REMARK    7  A    between atoms: O_11  and  C_6 
ROOT
HETATM    1  C   UNK N   1      33.906  17.301   8.983  0.00  0.00     0.177 C 
ENDROOT
BRANCH   1   2
HETATM    2  C   UNK N   1      33.629  15.946   8.284  0.00  0.00     0.024 C 
HETATM    3  C   UNK N   1      32.341  15.306   8.793  0.00  0.00     0.013 C 
BRANCH   2   4
HETATM    4  C   UNK N   1      34.806  14.962   8.403  0.00  0.00     0.116 C 
BRANCH   4   5
HETATM    5  C   UNK N   1      35.656  14.815   7.175  0.00  0.00     0.139 C 
HETATM    6  O   UNK N   1      36.617  14.064   7.186  0.00  0.00    -0.650 OA
BRANCH   5   7
HETATM    7  O   UNK N   1      35.409  15.569   6.087  0.00  0.00    -0.776 OA
HETATM    8  H   UNK N   1      35.490  16.485   5.911  0.00  0.00     0.167 HD
ENDBRANCH   5   7
ENDBRANCH   4   5
ENDBRANCH   2   4
ENDBRANCH   1   2
BRANCH   1   9
HETATM    9  C   UNK N   1      34.597  18.299   8.078  0.00  0.00     0.163 C 
HETATM   10  O   UNK N   1      34.464  18.211   6.867  0.00  0.00    -0.648 OA
BRANCH   9  11
HETATM   11  O   UNK N   1      35.342  19.301   8.586  0.00  0.00    -0.775 OA
HETATM   12  H   UNK N   1      36.265  19.211   8.719  0.00  0.00     0.167 HD
ENDBRANCH   9  11
ENDBRANCH   1   9
BRANCH   1  13
HETATM   13  N   UNK N   1      34.751  17.084  10.148  0.00  0.00    -0.417 N 
HETATM   14  H   UNK N   1      35.177  16.265  10.581  0.00  0.00     0.150 HD
HETATM   15  H   UNK N   1      34.965  17.949  10.645  0.00  0.00     0.150 HD
ENDBRANCH   1  13
TORSDOF 7
ENDMDL
MODEL 6
REMARK VINA RESULT:      -4.4     14.704     16.142
REMARK  7 active torsions:
REMARK  status: ('A' for Active; 'I' for Inactive)
REMARK    1  A    between atoms: C_3  and  C_2 
REMARK    2  A    between atoms: C_4  and  C_2 
REMARK    3  A    between atoms: C_5  and  C_3 
REMARK    4  A    between atoms: O_9  and  C_4 
REMARK    5  A    between atoms: C_6  and  C_5 
REMARK    6  A    between atoms: C_5  and  N_7 
REMARK    7  A    between atoms: O_11  and  C_6 
ROOT
HETATM    1  C   UNK N   1      34.641  15.448  10.127  0.00  0.00     0.177 C 
ENDROOT
BRANCH   1   2
HETATM    2  C   UNK N   1      33.635  16.057   9.118  0.00  0.00     0.024 C 
HETATM    3  C   UNK N   1      32.325  15.275   9.091  0.00  0.00     0.013 C 
BRANCH   2   4
HETATM    4  C   UNK N   1      34.218  16.185   7.699  0.00  0.00     0.116 C 
BRANCH   4   5
HETATM    5  C   UNK N   1      34.288  17.580   7.149  0.00  0.00     0.139 C 
HETATM    6  O   UNK N   1      34.086  17.778   5.963  0.00  0.00    -0.650 OA
BRANCH   5   7
HETATM    7  O   UNK N   1      34.650  18.604   7.946  0.00  0.00    -0.776 OA
HETATM    8  H   UNK N   1      35.387  18.749   8.505  0.00  0.00     0.167 HD
ENDBRANCH   5   7
ENDBRANCH   4   5
ENDBRANCH   2   4
ENDBRANCH   1   2
BRANCH   1   9
HETATM    9  C   UNK N   1      35.745  16.411  10.512  0.00  0.00     0.163 C 
HETATM   10  O   UNK N   1      35.533  17.614  10.486  0.00  0.00    -0.648 OA
BRANCH   9  11
HETATM   11  O   UNK N   1      36.954  15.964  10.905  0.00  0.00    -0.775 OA
HETATM   12  H   UNK N   1      37.723  16.102  10.388  0.00  0.00     0.167 HD
ENDBRANCH   9  11
ENDBRANCH   1   9
BRANCH   1  13
HETATM   13  N   UNK N   1      35.256  14.263   9.547  0.00  0.00    -0.417 N 
HETATM   14  H   UNK N   1      35.313  13.281   9.818  0.00  0.00     0.150 HD
HETATM   15  H   UNK N   1      35.741  14.459   8.672  0.00  0.00     0.150 HD
ENDBRANCH   1  13
TORSDOF 7
ENDMDL
MODEL 7
REMARK VINA RESULT:      -4.4     14.799     16.249
REMARK  7 active torsions:
REMARK  status: ('A' for Active; 'I' for Inactive)
REMARK    1  A    between atoms: C_3  and  C_2 
REMARK    2  A    between atoms: C_4  and  C_2 
REMARK    3  A    between atoms: C_5  and  C_3 
REMARK    4  A    between atoms: O_9  and  C_4 
REMARK    5  A    between atoms: C_6  and  C_5 
REMARK    6  A    between atoms: C_5  and  N_7 
REMARK    7  A    between atoms: O_11  and  C_6 
ROOT
HETATM    1  C   UNK N   1      34.190  17.194   9.165  0.00  0.00     0.177 C 
ENDROOT
BRANCH   1   2
HETATM    2  C   UNK N   1      34.247  15.747   8.612  0.00  0.00     0.024 C 
HETATM    3  C   UNK N   1      32.852  15.151   8.457  0.00  0.00     0.013 C 
BRANCH   2   4
HETATM    4  C   UNK N   1      35.141  14.821   9.456  0.00  0.00     0.116 C 
BRANCH   4   5
HETATM    5  C   UNK N   1      34.446  14.077  10.559  0.00  0.00     0.139 C 
HETATM    6  O   UNK N   1      34.196  14.642  11.610  0.00  0.00    -0.650 OA
BRANCH   5   7
HETATM    7  O   UNK N   1      34.169  12.767  10.422  0.00  0.00    -0.776 OA
HETATM    8  H   UNK N   1      34.499  12.099   9.854  0.00  0.00     0.167 HD
ENDBRANCH   5   7
ENDBRANCH   4   5
ENDBRANCH   2   4
ENDBRANCH   1   2
BRANCH   1   9
HETATM    9  C   UNK N   1      34.674  18.225   8.167  0.00  0.00     0.163 C 
HETATM   10  O   UNK N   1      34.436  18.074   6.978  0.00  0.00    -0.648 OA
BRANCH   9  11
HETATM   11  O   UNK N   1      35.347  19.322   8.569  0.00  0.00    -0.775 OA
HETATM   12  H   UNK N   1      35.962  19.755   8.011  0.00  0.00     0.167 HD
ENDBRANCH   9  11
ENDBRANCH   1   9
BRANCH   1  13
HETATM   13  N   UNK N   1      35.020  17.293  10.357  0.00  0.00    -0.417 N 
HETATM   14  H   UNK N   1      35.106  17.970  11.115  0.00  0.00     0.150 HD
HETATM   15  H   UNK N   1      35.662  16.507  10.456  0.00  0.00     0.150 HD
ENDBRANCH   1  13
TORSDOF 7
ENDMDL
MODEL 8
REMARK VINA RESULT:      -4.4      2.396      3.472
REMARK  7 active torsions:
REMARK  status: ('A' for Active; 'I' for Inactive)
REMARK    1  A    between atoms: C_3  and  C_2 
REMARK    2  A    between atoms: C_4  and  C_2 
REMARK    3  A    between atoms: C_5  and  C_3 
REMARK    4  A    between atoms: O_9  and  C_4 
REMARK    5  A    between atoms: C_6  and  C_5 
REMARK    6  A    between atoms: C_5  and  N_7 
REMARK    7  A    between atoms: O_11  and  C_6 
ROOT
HETATM    1  C   UNK N   1      20.704  19.307   2.172  0.00  0.00     0.177 C 
ENDROOT
BRANCH   1   2
HETATM    2  C   UNK N   1      21.371  19.316   3.571  0.00  0.00     0.024 C 
HETATM    3  C   UNK N   1      22.888  19.437   3.468  0.00  0.00     0.013 C 
BRANCH   2   4
HETATM    4  C   UNK N   1      20.981  18.096   4.425  0.00  0.00     0.116 C 
BRANCH   4   5
HETATM    5  C   UNK N   1      21.562  18.060   5.808  0.00  0.00     0.139 C 
HETATM    6  O   UNK N   1      22.431  17.250   6.082  0.00  0.00    -0.650 OA
BRANCH   5   7
HETATM    7  O   UNK N   1      21.072  18.866   6.769  0.00  0.00    -0.776 OA
HETATM    8  H   UNK N   1      20.765  19.751   6.767  0.00  0.00     0.167 HD
ENDBRANCH   5   7
ENDBRANCH   4   5
ENDBRANCH   2   4
ENDBRANCH   1   2
BRANCH   1   9
HETATM    9  C   UNK N   1      20.945  20.585   1.396  0.00  0.00     0.163 C 
HETATM   10  O   UNK N   1      21.126  20.535   0.189  0.00  0.00    -0.648 OA
BRANCH   9  11
HETATM   11  O   UNK N   1      20.943  21.784   2.012  0.00  0.00    -0.775 OA
HETATM   12  H   UNK N   1      20.993  21.860   2.945  0.00  0.00     0.167 HD
ENDBRANCH   9  11
ENDBRANCH   1   9
BRANCH   1  13
HETATM   13  N   UNK N   1      19.267  19.130   2.318  0.00  0.00    -0.417 N 
HETATM   14  H   UNK N   1      18.603  19.265   3.080  0.00  0.00     0.150 HD
HETATM   15  H   UNK N   1      18.823  18.791   1.464  0.00  0.00     0.150 HD
ENDBRANCH   1  13
TORSDOF 7
ENDMDL
MODEL 9
REMARK VINA RESULT:      -4.4     12.536     13.779
REMARK  7 active torsions:
REMARK  status: ('A' for Active; 'I' for Inactive)
REMARK    1  A    between atoms: C_3  and  C_2 
REMARK    2  A    between atoms: C_4  and  C_2 
REMARK    3  A    between atoms: C_5  and  C_3 
REMARK    4  A    between atoms: O_9  and  C_4 
REMARK    5  A    between atoms: C_6  and  C_5 
REMARK    6  A    between atoms: C_5  and  N_7 
REMARK    7  A    between atoms: O_11  and  C_6 
ROOT
HETATM    1  C   UNK N   1      31.873  16.594   7.049  0.00  0.00     0.177 C 
ENDROOT
BRANCH   1   2
HETATM    2  C   UNK N   1      32.981  17.540   6.521  0.00  0.00     0.024 C 
HETATM    3  C   UNK N   1      33.102  17.469   5.002  0.00  0.00     0.013 C 
BRANCH   2   4
HETATM    4  C   UNK N   1      34.346  17.289   7.186  0.00  0.00     0.116 C 
BRANCH   4   5
HETATM    5  C   UNK N   1      34.595  18.040   8.461  0.00  0.00     0.139 C 
HETATM    6  O   UNK N   1      35.212  19.091   8.438  0.00  0.00    -0.650 OA
BRANCH   5   7
HETATM    7  O   UNK N   1      34.209  17.517   9.641  0.00  0.00    -0.776 OA
HETATM    8  H   UNK N   1      33.909  16.667   9.897  0.00  0.00     0.167 HD
ENDBRANCH   5   7
ENDBRANCH   4   5
ENDBRANCH   2   4
ENDBRANCH   1   2
BRANCH   1   9
HETATM    9  C   UNK N   1      30.886  17.294   7.961  0.00  0.00     0.163 C 
HETATM   10  O   UNK N   1      29.731  17.449   7.596  0.00  0.00    -0.648 OA
BRANCH   9  11
HETATM   11  O   UNK N   1      31.255  17.731   9.181  0.00  0.00    -0.775 OA
HETATM   12  H   UNK N   1      31.669  17.165   9.804  0.00  0.00     0.167 HD
ENDBRANCH   9  11
ENDBRANCH   1   9
BRANCH   1  13
HETATM   13  N   UNK N   1      32.480  15.500   7.792  0.00  0.00    -0.417 N 
HETATM   14  H   UNK N   1      33.438  15.206   7.979  0.00  0.00     0.150 HD
HETATM   15  H   UNK N   1      31.789  14.885   8.223  0.00  0.00     0.150 HD
ENDBRANCH   1  13
TORSDOF 7
ENDMDL
