MODEL 1
REMARK VINA RESULT:      -5.0      0.000      0.000
REMARK  14 active torsions:
REMARK  status: ('A' for Active; 'I' for Inactive)
REMARK    1  A    between atoms: C_2  and  C_4 
REMARK    2  A    between atoms: C_2  and  C_10 
REMARK    3  A    between atoms: C_4  and  O_5 
REMARK    4  A    between atoms: O_5  and  P_6 
REMARK    5  A    between atoms: P_6  and  O_7 
REMARK    6  A    between atoms: P_6  and  O_8 
REMARK    7  A    between atoms: C_10  and  O_11 
REMARK    8  A    between atoms: C_10  and  C_12 
REMARK       I    between atoms: C_12  and  N_14 
REMARK    9  A    between atoms: N_14  and  C_15 
REMARK   10  A    between atoms: C_15  and  C_16 
REMARK   11  A    between atoms: C_16  and  C_17 
REMARK       I    between atoms: C_17  and  N_19 
REMARK   12  A    between atoms: N_19  and  C_20 
REMARK   13  A    between atoms: C_20  and  C_21 
REMARK   14  A    between atoms: C_21  and  S_22 
ROOT
HETATM    1  C   UNK N   1      36.134  15.227   9.700  0.00  0.00     0.219 C 
ENDROOT
BRANCH   1   2
HETATM    2  C   UNK N   1      35.666  13.830   9.234  0.00  0.00     0.009 C 
HETATM    3  C   UNK N   1      34.485  13.989   8.290  0.00  0.00     0.020 C 
HETATM    4  C   UNK N   1      36.790  13.111   8.498  0.00  0.00     0.020 C 
BRANCH   2   5
HETATM    5  C   UNK N   1      35.218  13.050  10.470  0.00  0.00     0.192 C 
BRANCH   5   6
HETATM    6  O   UNK N   1      36.239  12.466  11.251  0.00  0.00    -0.296 OA
BRANCH   6   7
HETATM    7  P   UNK N   1      35.838  12.426  12.972  0.00  0.00     0.390 P 
HETATM    8  O   UNK N   1      36.889  13.559  12.816  0.00  0.00    -0.632 OA
BRANCH   7   9
HETATM    9  O   UNK N   1      35.306  13.807  13.878  0.00  0.00    -0.307 OA
HETATM   10  H   UNK N   1      35.556  14.045  14.785  0.00  0.00     0.222 HD
ENDBRANCH   7   9
BRANCH   7  11
HETATM   11  O   UNK N   1      34.300  13.014  12.401  0.00  0.00    -0.307 OA
HETATM   12  H   UNK N   1      33.523  13.555  12.194  0.00  0.00     0.222 HD
ENDBRANCH   7  11
ENDBRANCH   6   7
ENDBRANCH   5   6
ENDBRANCH   2   5
ENDBRANCH   1   2
BRANCH   1  13
HETATM   13  O   UNK N   1      37.344  15.145  10.393  0.00  0.00    -0.385 OA
HETATM   14  H   UNK N   1      38.247  15.341  10.095  0.00  0.00     0.210 HD
ENDBRANCH   1  13
BRANCH   1  15
HETATM   15  C   UNK N   1      35.053  16.011  10.451  0.00  0.00     0.247 C 
HETATM   16  O   UNK N   1      34.822  15.714  11.608  0.00  0.00    -0.271 OA
HETATM   17  N   UNK N   1      34.334  17.023   9.892  0.00  0.00    -0.358 N 
HETATM   18  H   UNK N   1      33.643  17.447  10.450  0.00  0.00     0.162 HD
BRANCH  17  19
HETATM   19  C   UNK N   1      34.502  17.525   8.552  0.00  0.00     0.132 C 
BRANCH  19  20
HETATM   20  C   UNK N   1      33.287  18.341   8.124  0.00  0.00     0.122 C 
BRANCH  20  21
HETATM   21  C   UNK N   1      32.016  17.588   8.368  0.00  0.00     0.219 C 
HETATM   22  O   UNK N   1      31.886  16.464   7.906  0.00  0.00    -0.274 OA
HETATM   23  N   UNK N   1      31.012  18.170   9.066  0.00  0.00    -0.360 N 
HETATM   24  H   UNK N   1      31.149  19.073   9.435  0.00  0.00     0.162 HD
BRANCH  23  25
HETATM   25  C   UNK N   1      29.749  17.510   9.287  0.00  0.00     0.132 C 
BRANCH  25  26
HETATM   26  C   UNK N   1      28.652  18.207   8.507  0.00  0.00     0.090 C 
BRANCH  26  27
HETATM   27  S   UNK N   1      28.039  17.126   7.183  0.00  0.00    -0.181 SA
HETATM   28  H   UNK N   1      27.877  16.779   5.878  0.00  0.00     0.101 HD
ENDBRANCH  26  27
ENDBRANCH  25  26
ENDBRANCH  23  25
ENDBRANCH  20  21
ENDBRANCH  19  20
ENDBRANCH  17  19
ENDBRANCH   1  15
TORSDOF 14
ENDMDL
MODEL 2
REMARK VINA RESULT:      -4.9      4.797      7.171
REMARK  14 active torsions:
REMARK  status: ('A' for Active; 'I' for Inactive)
REMARK    1  A    between atoms: C_2  and  C_4 
REMARK    2  A    between atoms: C_2  and  C_10 
REMARK    3  A    between atoms: C_4  and  O_5 
REMARK    4  A    between atoms: O_5  and  P_6 
REMARK    5  A    between atoms: P_6  and  O_7 
REMARK    6  A    between atoms: P_6  and  O_8 
REMARK    7  A    between atoms: C_10  and  O_11 
REMARK    8  A    between atoms: C_10  and  C_12 
REMARK       I    between atoms: C_12  and  N_14 
REMARK    9  A    between atoms: N_14  and  C_15 
REMARK   10  A    between atoms: C_15  and  C_16 
REMARK   11  A    between atoms: C_16  and  C_17 
REMARK       I    between atoms: C_17  and  N_19 
REMARK   12  A    between atoms: N_19  and  C_20 
REMARK   13  A    between atoms: C_20  and  C_21 
REMARK   14  A    between atoms: C_21  and  S_22 
ROOT
HETATM    1  C   UNK N   1      34.418  14.437  11.119  0.00  0.00     0.219 C 
ENDROOT
BRANCH   1   2
HETATM    2  C   UNK N   1      34.781  13.803   9.758  0.00  0.00     0.009 C 
HETATM    3  C   UNK N   1      36.240  14.094   9.445  0.00  0.00     0.020 C 
HETATM    4  C   UNK N   1      34.581  12.292   9.805  0.00  0.00     0.020 C 
BRANCH   2   5
HETATM    5  C   UNK N   1      33.901  14.451   8.689  0.00  0.00     0.192 C 
BRANCH   5   6
HETATM    6  O   UNK N   1      34.357  15.675   8.155  0.00  0.00    -0.296 OA
BRANCH   6   7
HETATM    7  P   UNK N   1      33.060  16.863   7.975  0.00  0.00     0.390 P 
HETATM    8  O   UNK N   1      32.350  15.513   8.266  0.00  0.00    -0.632 OA
BRANCH   7   9
HETATM    9  O   UNK N   1      31.818  17.131   9.156  0.00  0.00    -0.307 OA
HETATM   10  H   UNK N   1      30.950  16.700   9.203  0.00  0.00     0.222 HD
ENDBRANCH   7   9
BRANCH   7  11
HETATM   11  O   UNK N   1      33.717  17.477   9.467  0.00  0.00    -0.307 OA
HETATM   12  H   UNK N   1      34.058  18.041  10.179  0.00  0.00     0.222 HD
ENDBRANCH   7  11
ENDBRANCH   6   7
ENDBRANCH   5   6
ENDBRANCH   2   5
ENDBRANCH   1   2
BRANCH   1  13
HETATM   13  O   UNK N   1      33.157  15.036  11.072  0.00  0.00    -0.385 OA
HETATM   14  H   UNK N   1      32.889  15.942  11.297  0.00  0.00     0.210 HD
ENDBRANCH   1  13
BRANCH   1  15
HETATM   15  C   UNK N   1      35.511  15.359  11.671  0.00  0.00     0.247 C 
HETATM   16  O   UNK N   1      35.565  16.503  11.259  0.00  0.00    -0.271 OA
HETATM   17  N   UNK N   1      36.426  14.966  12.599  0.00  0.00    -0.358 N 
HETATM   18  H   UNK N   1      37.105  15.626  12.870  0.00  0.00     0.162 HD
BRANCH  17  19
HETATM   19  C   UNK N   1      36.484  13.666  13.217  0.00  0.00     0.132 C 
BRANCH  19  20
HETATM   20  C   UNK N   1      36.199  13.765  14.711  0.00  0.00     0.122 C 
BRANCH  20  21
HETATM   21  C   UNK N   1      35.180  12.752  15.136  0.00  0.00     0.219 C 
HETATM   22  O   UNK N   1      34.161  13.125  15.697  0.00  0.00    -0.274 OA
HETATM   23  N   UNK N   1      35.413  11.434  14.929  0.00  0.00    -0.360 N 
HETATM   24  H   UNK N   1      36.240  11.164  14.465  0.00  0.00     0.162 HD
BRANCH  23  25
HETATM   25  C   UNK N   1      34.490  10.415  15.362  0.00  0.00     0.132 C 
BRANCH  25  26
HETATM   26  C   UNK N   1      35.160   9.497  16.367  0.00  0.00     0.090 C 
BRANCH  26  27
HETATM   27  S   UNK N   1      35.105  10.234  18.025  0.00  0.00    -0.181 SA
HETATM   28  H   UNK N   1      35.649  10.547  19.232  0.00  0.00     0.101 HD
ENDBRANCH  26  27
ENDBRANCH  25  26
ENDBRANCH  23  25
ENDBRANCH  20  21
ENDBRANCH  19  20
ENDBRANCH  17  19
ENDBRANCH   1  15
TORSDOF 14
ENDMDL
MODEL 3
REMARK VINA RESULT:      -4.9      1.952      2.063
REMARK  14 active torsions:
REMARK  status: ('A' for Active; 'I' for Inactive)
REMARK    1  A    between atoms: C_2  and  C_4 
REMARK    2  A    between atoms: C_2  and  C_10 
REMARK    3  A    between atoms: C_4  and  O_5 
REMARK    4  A    between atoms: O_5  and  P_6 
REMARK    5  A    between atoms: P_6  and  O_7 
REMARK    6  A    between atoms: P_6  and  O_8 
REMARK    7  A    between atoms: C_10  and  O_11 
REMARK    8  A    between atoms: C_10  and  C_12 
REMARK       I    between atoms: C_12  and  N_14 
REMARK    9  A    between atoms: N_14  and  C_15 
REMARK   10  A    between atoms: C_15  and  C_16 
REMARK   11  A    between atoms: C_16  and  C_17 
REMARK       I    between atoms: C_17  and  N_19 
REMARK   12  A    between atoms: N_19  and  C_20 
REMARK   13  A    between atoms: C_20  and  C_21 
REMARK   14  A    between atoms: C_21  and  S_22 
ROOT
HETATM    1  C   UNK N   1      36.224  15.329   9.770  0.00  0.00     0.219 C 
ENDROOT
BRANCH   1   2
HETATM    2  C   UNK N   1      35.732  13.964   9.235  0.00  0.00     0.009 C 
HETATM    3  C   UNK N   1      34.570  14.191   8.282  0.00  0.00     0.020 C 
HETATM    4  C   UNK N   1      36.852  13.253   8.485  0.00  0.00     0.020 C 
BRANCH   2   5
HETATM    5  C   UNK N   1      35.248  13.141  10.429  0.00  0.00     0.192 C 
BRANCH   5   6
HETATM    6  O   UNK N   1      36.246  12.534  11.222  0.00  0.00    -0.296 OA
BRANCH   6   7
HETATM    7  P   UNK N   1      35.788  12.429  12.926  0.00  0.00     0.390 P 
HETATM    8  O   UNK N   1      36.861  13.548  12.853  0.00  0.00    -0.632 OA
BRANCH   7   9
HETATM    9  O   UNK N   1      35.249  13.779  13.873  0.00  0.00    -0.307 OA
HETATM   10  H   UNK N   1      34.486  14.351  13.696  0.00  0.00     0.222 HD
ENDBRANCH   7   9
BRANCH   7  11
HETATM   11  O   UNK N   1      34.279  13.067  12.330  0.00  0.00    -0.307 OA
HETATM   12  H   UNK N   1      33.533  13.343  11.776  0.00  0.00     0.222 HD
ENDBRANCH   7  11
ENDBRANCH   6   7
ENDBRANCH   5   6
ENDBRANCH   2   5
ENDBRANCH   1   2
BRANCH   1  13
HETATM   13  O   UNK N   1      37.410  15.186  10.493  0.00  0.00    -0.385 OA
HETATM   14  H   UNK N   1      38.091  15.843  10.708  0.00  0.00     0.210 HD
ENDBRANCH   1  13
BRANCH   1  15
HETATM   15  C   UNK N   1      35.142  16.112  10.522  0.00  0.00     0.247 C 
HETATM   16  O   UNK N   1      34.857  15.764  11.653  0.00  0.00    -0.271 OA
HETATM   17  N   UNK N   1      34.480  17.177   9.991  0.00  0.00    -0.358 N 
HETATM   18  H   UNK N   1      33.783  17.596  10.545  0.00  0.00     0.162 HD
BRANCH  17  19
HETATM   19  C   UNK N   1      34.716  17.740   8.686  0.00  0.00     0.132 C 
BRANCH  19  20
HETATM   20  C   UNK N   1      33.409  18.202   8.052  0.00  0.00     0.122 C 
BRANCH  20  21
HETATM   21  C   UNK N   1      33.229  17.610   6.689  0.00  0.00     0.219 C 
HETATM   22  O   UNK N   1      34.096  17.774   5.844  0.00  0.00    -0.274 OA
HETATM   23  N   UNK N   1      32.095  16.930   6.394  0.00  0.00    -0.360 N 
HETATM   24  H   UNK N   1      31.418  16.805   7.098  0.00  0.00     0.162 HD
BRANCH  23  25
HETATM   25  C   UNK N   1      31.848  16.382   5.083  0.00  0.00     0.132 C 
BRANCH  25  26
HETATM   26  C   UNK N   1      30.810  17.215   4.356  0.00  0.00     0.090 C 
BRANCH  26  27
HETATM   27  S   UNK N   1      30.044  16.244   3.028  0.00  0.00    -0.181 SA
HETATM   28  H   UNK N   1      29.903  15.863   1.730  0.00  0.00     0.101 HD
ENDBRANCH  26  27
ENDBRANCH  25  26
ENDBRANCH  23  25
ENDBRANCH  20  21
ENDBRANCH  19  20
ENDBRANCH  17  19
ENDBRANCH   1  15
TORSDOF 14
ENDMDL
MODEL 4
REMARK VINA RESULT:      -4.8      2.597      3.918
REMARK  14 active torsions:
REMARK  status: ('A' for Active; 'I' for Inactive)
REMARK    1  A    between atoms: C_2  and  C_4 
REMARK    2  A    between atoms: C_2  and  C_10 
REMARK    3  A    between atoms: C_4  and  O_5 
REMARK    4  A    between atoms: O_5  and  P_6 
REMARK    5  A    between atoms: P_6  and  O_7 
REMARK    6  A    between atoms: P_6  and  O_8 
REMARK    7  A    between atoms: C_10  and  O_11 
REMARK    8  A    between atoms: C_10  and  C_12 
REMARK       I    between atoms: C_12  and  N_14 
REMARK    9  A    between atoms: N_14  and  C_15 
REMARK   10  A    between atoms: C_15  and  C_16 
REMARK   11  A    between atoms: C_16  and  C_17 
REMARK       I    between atoms: C_17  and  N_19 
REMARK   12  A    between atoms: N_19  and  C_20 
REMARK   13  A    between atoms: C_20  and  C_21 
REMARK   14  A    between atoms: C_21  and  S_22 
ROOT
HETATM    1  C   UNK N   1      33.440  17.184   6.617  0.00  0.00     0.219 C 
ENDROOT
BRANCH   1   2
HETATM    2  C   UNK N   1      34.023  15.773   6.855  0.00  0.00     0.009 C 
HETATM    3  C   UNK N   1      32.882  14.778   6.992  0.00  0.00     0.020 C 
HETATM    4  C   UNK N   1      34.901  15.356   5.681  0.00  0.00     0.020 C 
BRANCH   2   5
HETATM    5  C   UNK N   1      34.816  15.808   8.162  0.00  0.00     0.192 C 
BRANCH   5   6
HETATM    6  O   UNK N   1      34.129  15.405   9.327  0.00  0.00    -0.296 OA
BRANCH   6   7
HETATM    7  P   UNK N   1      35.154  15.442  10.767  0.00  0.00     0.390 P 
HETATM    8  O   UNK N   1      36.070  14.942   9.617  0.00  0.00    -0.632 OA
BRANCH   7   9
HETATM    9  O   UNK N   1      36.669  16.281  10.859  0.00  0.00    -0.307 OA
HETATM   10  H   UNK N   1      36.825  17.228  10.715  0.00  0.00     0.222 HD
ENDBRANCH   7   9
BRANCH   7  11
HETATM   11  O   UNK N   1      34.944  17.164  10.600  0.00  0.00    -0.307 OA
HETATM   12  H   UNK N   1      34.581  18.058  10.501  0.00  0.00     0.222 HD
ENDBRANCH   7  11
ENDBRANCH   6   7
ENDBRANCH   5   6
ENDBRANCH   2   5
ENDBRANCH   1   2
BRANCH   1  13
HETATM   13  O   UNK N   1      34.002  17.774   5.483  0.00  0.00    -0.385 OA
HETATM   14  H   UNK N   1      34.734  18.407   5.408  0.00  0.00     0.210 HD
ENDBRANCH   1  13
BRANCH   1  15
HETATM   15  C   UNK N   1      33.491  18.080   7.860  0.00  0.00     0.247 C 
HETATM   16  O   UNK N   1      34.481  18.766   8.037  0.00  0.00    -0.271 OA
HETATM   17  N   UNK N   1      32.488  18.149   8.778  0.00  0.00    -0.358 N 
HETATM   18  H   UNK N   1      32.629  18.735   9.556  0.00  0.00     0.162 HD
BRANCH  17  19
HETATM   19  C   UNK N   1      31.239  17.436   8.704  0.00  0.00     0.132 C 
BRANCH  19  20
HETATM   20  C   UNK N   1      30.082  18.325   9.145  0.00  0.00     0.122 C 
BRANCH  20  21
HETATM   21  C   UNK N   1      29.038  18.426   8.077  0.00  0.00     0.219 C 
HETATM   22  O   UNK N   1      28.030  19.085   8.282  0.00  0.00    -0.274 OA
HETATM   23  N   UNK N   1      29.202  17.758   6.910  0.00  0.00    -0.360 N 
HETATM   24  H   UNK N   1      30.029  17.243   6.768  0.00  0.00     0.162 HD
BRANCH  23  25
HETATM   25  C   UNK N   1      28.206  17.780   5.868  0.00  0.00     0.132 C 
BRANCH  25  26
HETATM   26  C   UNK N   1      28.556  16.773   4.789  0.00  0.00     0.090 C 
BRANCH  26  27
HETATM   27  S   UNK N   1      30.326  16.862   4.397  0.00  0.00    -0.181 SA
HETATM   28  H   UNK N   1      31.390  17.329   3.689  0.00  0.00     0.101 HD
ENDBRANCH  26  27
ENDBRANCH  25  26
ENDBRANCH  23  25
ENDBRANCH  20  21
ENDBRANCH  19  20
ENDBRANCH  17  19
ENDBRANCH   1  15
TORSDOF 14
ENDMDL
MODEL 5
REMARK VINA RESULT:      -4.7     16.369     18.570
REMARK  14 active torsions:
REMARK  status: ('A' for Active; 'I' for Inactive)
REMARK    1  A    between atoms: C_2  and  C_4 
REMARK    2  A    between atoms: C_2  and  C_10 
REMARK    3  A    between atoms: C_4  and  O_5 
REMARK    4  A    between atoms: O_5  and  P_6 
REMARK    5  A    between atoms: P_6  and  O_7 
REMARK    6  A    between atoms: P_6  and  O_8 
REMARK    7  A    between atoms: C_10  and  O_11 
REMARK    8  A    between atoms: C_10  and  C_12 
REMARK       I    between atoms: C_12  and  N_14 
REMARK    9  A    between atoms: N_14  and  C_15 
REMARK   10  A    between atoms: C_15  and  C_16 
REMARK   11  A    between atoms: C_16  and  C_17 
REMARK       I    between atoms: C_17  and  N_19 
REMARK   12  A    between atoms: N_19  and  C_20 
REMARK   13  A    between atoms: C_20  and  C_21 
REMARK   14  A    between atoms: C_21  and  S_22 
ROOT
HETATM    1  C   UNK N   1      26.944  24.884  -4.129  0.00  0.00     0.219 C 
ENDROOT
BRANCH   1   2
HETATM    2  C   UNK N   1      28.269  24.414  -4.769  0.00  0.00     0.009 C 
HETATM    3  C   UNK N   1      28.050  23.068  -5.441  0.00  0.00     0.020 C 
HETATM    4  C   UNK N   1      28.738  25.417  -5.818  0.00  0.00     0.020 C 
BRANCH   2   5
HETATM    5  C   UNK N   1      29.298  24.254  -3.650  0.00  0.00     0.192 C 
BRANCH   5   6
HETATM    6  O   UNK N   1      29.565  22.934  -3.224  0.00  0.00    -0.296 OA
BRANCH   6   7
HETATM    7  P   UNK N   1      31.294  22.566  -3.195  0.00  0.00     0.390 P 
HETATM    8  O   UNK N   1      30.915  22.897  -1.726  0.00  0.00    -0.632 OA
BRANCH   7   9
HETATM    9  O   UNK N   1      32.017  21.382  -2.154  0.00  0.00    -0.307 OA
HETATM   10  H   UNK N   1      32.505  21.544  -1.332  0.00  0.00     0.222 HD
ENDBRANCH   7   9
BRANCH   7  11
HETATM   11  O   UNK N   1      30.731  20.959  -3.565  0.00  0.00    -0.307 OA
HETATM   12  H   UNK N   1      30.667  20.016  -3.781  0.00  0.00     0.222 HD
ENDBRANCH   7  11
ENDBRANCH   6   7
ENDBRANCH   5   6
ENDBRANCH   2   5
ENDBRANCH   1   2
BRANCH   1  13
HETATM   13  O   UNK N   1      26.567  24.040  -3.082  0.00  0.00    -0.385 OA
HETATM   14  H   UNK N   1      27.114  23.494  -2.495  0.00  0.00     0.210 HD
ENDBRANCH   1  13
BRANCH   1  15
HETATM   15  C   UNK N   1      25.827  25.124  -5.151  0.00  0.00     0.247 C 
HETATM   16  O   UNK N   1      25.179  24.169  -5.535  0.00  0.00    -0.271 OA
HETATM   17  N   UNK N   1      25.521  26.352  -5.654  0.00  0.00    -0.358 N 
HETATM   18  H   UNK N   1      24.803  26.398  -6.326  0.00  0.00     0.162 HD
BRANCH  17  19
HETATM   19  C   UNK N   1      26.161  27.589  -5.283  0.00  0.00     0.132 C 
BRANCH  19  20
HETATM   20  C   UNK N   1      25.486  28.201  -4.061  0.00  0.00     0.122 C 
BRANCH  20  21
HETATM   21  C   UNK N   1      26.356  29.241  -3.426  0.00  0.00     0.219 C 
HETATM   22  O   UNK N   1      26.229  30.412  -3.755  0.00  0.00    -0.274 OA
HETATM   23  N   UNK N   1      27.296  28.874  -2.523  0.00  0.00    -0.360 N 
HETATM   24  H   UNK N   1      27.368  27.925  -2.270  0.00  0.00     0.162 HD
BRANCH  23  25
HETATM   25  C   UNK N   1      28.192  29.829  -1.919  0.00  0.00     0.132 C 
BRANCH  25  26
HETATM   26  C   UNK N   1      29.594  29.648  -2.468  0.00  0.00     0.090 C 
BRANCH  26  27
HETATM   27  S   UNK N   1      29.697  28.118  -3.439  0.00  0.00    -0.181 SA
HETATM   28  H   UNK N   1      30.260  27.315  -4.382  0.00  0.00     0.101 HD
ENDBRANCH  26  27
ENDBRANCH  25  26
ENDBRANCH  23  25
ENDBRANCH  20  21
ENDBRANCH  19  20
ENDBRANCH  17  19
ENDBRANCH   1  15
TORSDOF 14
ENDMDL
MODEL 6
REMARK VINA RESULT:      -4.7      3.147      4.068
REMARK  14 active torsions:
REMARK  status: ('A' for Active; 'I' for Inactive)
REMARK    1  A    between atoms: C_2  and  C_4 
REMARK    2  A    between atoms: C_2  and  C_10 
REMARK    3  A    between atoms: C_4  and  O_5 
REMARK    4  A    between atoms: O_5  and  P_6 
REMARK    5  A    between atoms: P_6  and  O_7 
REMARK    6  A    between atoms: P_6  and  O_8 
REMARK    7  A    between atoms: C_10  and  O_11 
REMARK    8  A    between atoms: C_10  and  C_12 
REMARK       I    between atoms: C_12  and  N_14 
REMARK    9  A    between atoms: N_14  and  C_15 
REMARK   10  A    between atoms: C_15  and  C_16 
REMARK   11  A    between atoms: C_16  and  C_17 
REMARK       I    between atoms: C_17  and  N_19 
REMARK   12  A    between atoms: N_19  and  C_20 
REMARK   13  A    between atoms: C_20  and  C_21 
REMARK   14  A    between atoms: C_21  and  S_22 
ROOT
HETATM    1  C   UNK N   1      34.088  15.927   7.205  0.00  0.00     0.219 C 
ENDROOT
BRANCH   1   2
HETATM    2  C   UNK N   1      33.022  15.803   8.318  0.00  0.00     0.009 C 
HETATM    3  C   UNK N   1      31.857  16.725   7.998  0.00  0.00     0.020 C 
HETATM    4  C   UNK N   1      32.508  14.370   8.404  0.00  0.00     0.020 C 
BRANCH   2   5
HETATM    5  C   UNK N   1      33.665  16.246   9.633  0.00  0.00     0.192 C 
BRANCH   5   6
HETATM    6  O   UNK N   1      34.121  15.220  10.489  0.00  0.00    -0.296 OA
BRANCH   6   7
HETATM    7  P   UNK N   1      35.579  15.675  11.378  0.00  0.00     0.390 P 
HETATM    8  O   UNK N   1      35.996  14.477  10.482  0.00  0.00    -0.632 OA
BRANCH   7   9
HETATM    9  O   UNK N   1      37.099  16.044  10.627  0.00  0.00    -0.307 OA
HETATM   10  H   UNK N   1      37.353  16.874  10.194  0.00  0.00     0.222 HD
ENDBRANCH   7   9
BRANCH   7  11
HETATM   11  O   UNK N   1      35.472  17.102  10.382  0.00  0.00    -0.307 OA
HETATM   12  H   UNK N   1      35.165  17.867   9.872  0.00  0.00     0.222 HD
ENDBRANCH   7  11
ENDBRANCH   6   7
ENDBRANCH   5   6
ENDBRANCH   2   5
ENDBRANCH   1   2
BRANCH   1  13
HETATM   13  O   UNK N   1      35.334  15.485   7.654  0.00  0.00    -0.385 OA
HETATM   14  H   UNK N   1      35.558  14.745   8.242  0.00  0.00     0.210 HD
ENDBRANCH   1  13
BRANCH   1  15
HETATM   15  C   UNK N   1      34.130  17.314   6.556  0.00  0.00     0.247 C 
HETATM   16  O   UNK N   1      34.637  18.229   7.179  0.00  0.00    -0.271 OA
HETATM   17  N   UNK N   1      33.627  17.580   5.319  0.00  0.00    -0.358 N 
HETATM   18  H   UNK N   1      33.679  18.510   5.002  0.00  0.00     0.162 HD
BRANCH  17  19
HETATM   19  C   UNK N   1      33.028  16.612   4.436  0.00  0.00     0.132 C 
BRANCH  19  20
HETATM   20  C   UNK N   1      31.838  17.217   3.699  0.00  0.00     0.122 C 
BRANCH  20  21
HETATM   21  C   UNK N   1      30.561  16.972   4.441  0.00  0.00     0.219 C 
HETATM   22  O   UNK N   1      30.331  15.860   4.891  0.00  0.00    -0.274 OA
HETATM   23  N   UNK N   1      29.657  17.973   4.575  0.00  0.00    -0.360 N 
HETATM   24  H   UNK N   1      29.874  18.862   4.210  0.00  0.00     0.162 HD
BRANCH  23  25
HETATM   25  C   UNK N   1      28.391  17.778   5.235  0.00  0.00     0.132 C 
BRANCH  25  26
HETATM   26  C   UNK N   1      27.724  19.117   5.491  0.00  0.00     0.090 C 
BRANCH  26  27
HETATM   27  S   UNK N   1      27.211  19.873   3.923  0.00  0.00    -0.181 SA
HETATM   28  H   UNK N   1      26.535  20.793   3.183  0.00  0.00     0.101 HD
ENDBRANCH  26  27
ENDBRANCH  25  26
ENDBRANCH  23  25
ENDBRANCH  20  21
ENDBRANCH  19  20
ENDBRANCH  17  19
ENDBRANCH   1  15
TORSDOF 14
ENDMDL
MODEL 7
REMARK VINA RESULT:      -4.6     16.424     19.924
REMARK  14 active torsions:
REMARK  status: ('A' for Active; 'I' for Inactive)
REMARK    1  A    between atoms: C_2  and  C_4 
REMARK    2  A    between atoms: C_2  and  C_10 
REMARK    3  A    between atoms: C_4  and  O_5 
REMARK    4  A    between atoms: O_5  and  P_6 
REMARK    5  A    between atoms: P_6  and  O_7 
REMARK    6  A    between atoms: P_6  and  O_8 
REMARK    7  A    between atoms: C_10  and  O_11 
REMARK    8  A    between atoms: C_10  and  C_12 
REMARK       I    between atoms: C_12  and  N_14 
REMARK    9  A    between atoms: N_14  and  C_15 
REMARK   10  A    between atoms: C_15  and  C_16 
REMARK   11  A    between atoms: C_16  and  C_17 
REMARK       I    between atoms: C_17  and  N_19 
REMARK   12  A    between atoms: N_19  and  C_20 
REMARK   13  A    between atoms: C_20  and  C_21 
REMARK   14  A    between atoms: C_21  and  S_22 
ROOT
HETATM    1  C   UNK N   1      26.905  25.912  -4.883  0.00  0.00     0.219 C 
ENDROOT
BRANCH   1   2
HETATM    2  C   UNK N   1      26.154  26.535  -6.082  0.00  0.00     0.009 C 
HETATM    3  C   UNK N   1      24.770  26.974  -5.632  0.00  0.00     0.020 C 
HETATM    4  C   UNK N   1      26.909  27.750  -6.609  0.00  0.00     0.020 C 
BRANCH   2   5
HETATM    5  C   UNK N   1      26.012  25.456  -7.156  0.00  0.00     0.192 C 
BRANCH   5   6
HETATM    6  O   UNK N   1      25.285  24.300  -6.797  0.00  0.00    -0.296 OA
BRANCH   6   7
HETATM    7  P   UNK N   1      25.687  22.904  -7.804  0.00  0.00     0.390 P 
HETATM    8  O   UNK N   1      24.875  22.335  -6.609  0.00  0.00    -0.632 OA
BRANCH   7   9
HETATM    9  O   UNK N   1      24.518  21.777  -8.413  0.00  0.00    -0.307 OA
HETATM   10  H   UNK N   1      23.618  21.630  -8.083  0.00  0.00     0.222 HD
ENDBRANCH   7   9
BRANCH   7  11
HETATM   11  O   UNK N   1      24.580  23.667  -8.914  0.00  0.00    -0.307 OA
HETATM   12  H   UNK N   1      24.180  24.172  -9.638  0.00  0.00     0.222 HD
ENDBRANCH   7  11
ENDBRANCH   6   7
ENDBRANCH   5   6
ENDBRANCH   2   5
ENDBRANCH   1   2
BRANCH   1  13
HETATM   13  O   UNK N   1      26.101  24.986  -4.215  0.00  0.00    -0.385 OA
HETATM   14  H   UNK N   1      25.799  24.107  -4.495  0.00  0.00     0.210 HD
ENDBRANCH   1  13
BRANCH   1  15
HETATM   15  C   UNK N   1      27.536  26.955  -3.954  0.00  0.00     0.247 C 
HETATM   16  O   UNK N   1      26.799  27.646  -3.276  0.00  0.00    -0.271 OA
HETATM   17  N   UNK N   1      28.879  27.151  -3.848  0.00  0.00    -0.358 N 
HETATM   18  H   UNK N   1      29.184  27.864  -3.242  0.00  0.00     0.162 HD
BRANCH  17  19
HETATM   19  C   UNK N   1      29.890  26.400  -4.549  0.00  0.00     0.132 C 
BRANCH  19  20
HETATM   20  C   UNK N   1      30.789  25.658  -3.566  0.00  0.00     0.122 C 
BRANCH  20  21
HETATM   21  C   UNK N   1      30.301  24.262  -3.333  0.00  0.00     0.219 C 
HETATM   22  O   UNK N   1      29.110  24.067  -3.138  0.00  0.00    -0.274 OA
HETATM   23  N   UNK N   1      31.184  23.235  -3.305  0.00  0.00    -0.360 N 
HETATM   24  H   UNK N   1      32.136  23.421  -3.475  0.00  0.00     0.162 HD
BRANCH  23  25
HETATM   25  C   UNK N   1      30.775  21.879  -3.035  0.00  0.00     0.132 C 
BRANCH  25  26
HETATM   26  C   UNK N   1      31.250  20.960  -4.144  0.00  0.00     0.090 C 
BRANCH  26  27
HETATM   27  S   UNK N   1      30.246  21.205  -5.637  0.00  0.00    -0.181 SA
HETATM   28  H   UNK N   1      29.101  21.547  -6.286  0.00  0.00     0.101 HD
ENDBRANCH  26  27
ENDBRANCH  25  26
ENDBRANCH  23  25
ENDBRANCH  20  21
ENDBRANCH  19  20
ENDBRANCH  17  19
ENDBRANCH   1  15
TORSDOF 14
ENDMDL
MODEL 8
REMARK VINA RESULT:      -4.6      4.362      7.285
REMARK  14 active torsions:
REMARK  status: ('A' for Active; 'I' for Inactive)
REMARK    1  A    between atoms: C_2  and  C_4 
REMARK    2  A    between atoms: C_2  and  C_10 
REMARK    3  A    between atoms: C_4  and  O_5 
REMARK    4  A    between atoms: O_5  and  P_6 
REMARK    5  A    between atoms: P_6  and  O_7 
REMARK    6  A    between atoms: P_6  and  O_8 
REMARK    7  A    between atoms: C_10  and  O_11 
REMARK    8  A    between atoms: C_10  and  C_12 
REMARK       I    between atoms: C_12  and  N_14 
REMARK    9  A    between atoms: N_14  and  C_15 
REMARK   10  A    between atoms: C_15  and  C_16 
REMARK   11  A    between atoms: C_16  and  C_17 
REMARK       I    between atoms: C_17  and  N_19 
REMARK   12  A    between atoms: N_19  and  C_20 
REMARK   13  A    between atoms: C_20  and  C_21 
REMARK   14  A    between atoms: C_21  and  S_22 
ROOT
HETATM    1  C   UNK N   1      31.992  17.378   5.088  0.00  0.00     0.219 C 
ENDROOT
BRANCH   1   2
HETATM    2  C   UNK N   1      30.810  16.485   5.529  0.00  0.00     0.009 C 
HETATM    3  C   UNK N   1      30.252  15.759   4.316  0.00  0.00     0.020 C 
HETATM    4  C   UNK N   1      31.277  15.452   6.549  0.00  0.00     0.020 C 
BRANCH   2   5
HETATM    5  C   UNK N   1      29.727  17.395   6.110  0.00  0.00     0.192 C 
BRANCH   5   6
HETATM    6  O   UNK N   1      29.840  17.713   7.481  0.00  0.00    -0.296 OA
BRANCH   6   7
HETATM    7  P   UNK N   1      28.442  18.610   8.087  0.00  0.00     0.390 P 
HETATM    8  O   UNK N   1      27.929  17.168   7.826  0.00  0.00    -0.632 OA
BRANCH   7   9
HETATM    9  O   UNK N   1      27.479  18.109   9.440  0.00  0.00    -0.307 OA
HETATM   10  H   UNK N   1      27.792  17.875  10.327  0.00  0.00     0.222 HD
ENDBRANCH   7   9
BRANCH   7  11
HETATM   11  O   UNK N   1      29.365  18.612   9.565  0.00  0.00    -0.307 OA
HETATM   12  H   UNK N   1      29.683  18.752  10.470  0.00  0.00     0.222 HD
ENDBRANCH   7  11
ENDBRANCH   6   7
ENDBRANCH   5   6
ENDBRANCH   2   5
ENDBRANCH   1   2
BRANCH   1  13
HETATM   13  O   UNK N   1      31.823  17.819   3.774  0.00  0.00    -0.385 OA
HETATM   14  H   UNK N   1      32.467  18.206   3.159  0.00  0.00     0.210 HD
ENDBRANCH   1  13
BRANCH   1  15
HETATM   15  C   UNK N   1      33.363  16.744   5.348  0.00  0.00     0.247 C 
HETATM   16  O   UNK N   1      33.788  15.936   4.544  0.00  0.00    -0.271 OA
HETATM   17  N   UNK N   1      34.131  17.036   6.433  0.00  0.00    -0.358 N 
HETATM   18  H   UNK N   1      34.985  16.555   6.523  0.00  0.00     0.162 HD
BRANCH  17  19
HETATM   19  C   UNK N   1      33.798  17.991   7.459  0.00  0.00     0.132 C 
BRANCH  19  20
HETATM   20  C   UNK N   1      33.493  17.285   8.776  0.00  0.00     0.122 C 
BRANCH  20  21
HETATM   21  C   UNK N   1      34.752  16.910   9.494  0.00  0.00     0.219 C 
HETATM   22  O   UNK N   1      35.456  17.788   9.969  0.00  0.00    -0.274 OA
HETATM   23  N   UNK N   1      35.117  15.609   9.579  0.00  0.00    -0.360 N 
HETATM   24  H   UNK N   1      34.525  14.922   9.195  0.00  0.00     0.162 HD
BRANCH  23  25
HETATM   25  C   UNK N   1      36.343  15.196  10.216  0.00  0.00     0.132 C 
BRANCH  25  26
HETATM   26  C   UNK N   1      36.202  13.787  10.759  0.00  0.00     0.090 C 
BRANCH  26  27
HETATM   27  S   UNK N   1      35.506  13.826  12.435  0.00  0.00    -0.181 SA
HETATM   28  H   UNK N   1      34.543  13.550  13.355  0.00  0.00     0.101 HD
ENDBRANCH  26  27
ENDBRANCH  25  26
ENDBRANCH  23  25
ENDBRANCH  20  21
ENDBRANCH  19  20
ENDBRANCH  17  19
ENDBRANCH   1  15
TORSDOF 14
ENDMDL
MODEL 9
REMARK VINA RESULT:      -4.5      4.302      6.424
REMARK  14 active torsions:
REMARK  status: ('A' for Active; 'I' for Inactive)
REMARK    1  A    between atoms: C_2  and  C_4 
REMARK    2  A    between atoms: C_2  and  C_10 
REMARK    3  A    between atoms: C_4  and  O_5 
REMARK    4  A    between atoms: O_5  and  P_6 
REMARK    5  A    between atoms: P_6  and  O_7 
REMARK    6  A    between atoms: P_6  and  O_8 
REMARK    7  A    between atoms: C_10  and  O_11 
REMARK    8  A    between atoms: C_10  and  C_12 
REMARK       I    between atoms: C_12  and  N_14 
REMARK    9  A    between atoms: N_14  and  C_15 
REMARK   10  A    between atoms: C_15  and  C_16 
REMARK   11  A    between atoms: C_16  and  C_17 
REMARK       I    between atoms: C_17  and  N_19 
REMARK   12  A    between atoms: N_19  and  C_20 
REMARK   13  A    between atoms: C_20  and  C_21 
REMARK   14  A    between atoms: C_21  and  S_22 
ROOT
HETATM    1  C   UNK N   1      34.913  14.219  11.303  0.00  0.00     0.219 C 
ENDROOT
BRANCH   1   2
HETATM    2  C   UNK N   1      35.483  14.300   9.869  0.00  0.00     0.009 C 
HETATM    3  C   UNK N   1      36.930  13.834   9.879  0.00  0.00     0.020 C 
HETATM    4  C   UNK N   1      34.685  13.405   8.928  0.00  0.00     0.020 C 
BRANCH   2   5
HETATM    5  C   UNK N   1      35.432  15.763   9.426  0.00  0.00     0.192 C 
BRANCH   5   6
HETATM    6  O   UNK N   1      34.509  16.080   8.407  0.00  0.00    -0.296 OA
BRANCH   6   7
HETATM    7  P   UNK N   1      33.966  17.761   8.482  0.00  0.00     0.390 P 
HETATM    8  O   UNK N   1      35.115  17.649   9.520  0.00  0.00    -0.632 OA
BRANCH   7   9
HETATM    9  O   UNK N   1      35.016  19.130   8.299  0.00  0.00    -0.307 OA
HETATM   10  H   UNK N   1      35.526  19.574   8.995  0.00  0.00     0.222 HD
ENDBRANCH   7   9
BRANCH   7  11
HETATM   11  O   UNK N   1      34.664  17.825   6.886  0.00  0.00    -0.307 OA
HETATM   12  H   UNK N   1      35.099  18.101   6.064  0.00  0.00     0.222 HD
ENDBRANCH   7  11
ENDBRANCH   6   7
ENDBRANCH   5   6
ENDBRANCH   2   5
ENDBRANCH   1   2
BRANCH   1  13
HETATM   13  O   UNK N   1      33.663  14.838  11.380  0.00  0.00    -0.385 OA
HETATM   14  H   UNK N   1      33.417  15.765  11.231  0.00  0.00     0.210 HD
ENDBRANCH   1  13
BRANCH   1  15
HETATM   15  C   UNK N   1      35.898  14.697  12.376  0.00  0.00     0.247 C 
HETATM   16  O   UNK N   1      36.139  15.887  12.450  0.00  0.00    -0.271 OA
HETATM   17  N   UNK N   1      36.519  13.859  13.251  0.00  0.00    -0.358 N 
HETATM   18  H   UNK N   1      37.155  14.261  13.886  0.00  0.00     0.162 HD
BRANCH  17  19
HETATM   19  C   UNK N   1      36.322  12.434  13.325  0.00  0.00     0.132 C 
BRANCH  19  20
HETATM   20  C   UNK N   1      35.185  12.095  14.282  0.00  0.00     0.122 C 
BRANCH  20  21
HETATM   21  C   UNK N   1      34.196  11.170  13.643  0.00  0.00     0.219 C 
HETATM   22  O   UNK N   1      33.286  10.706  14.314  0.00  0.00    -0.274 OA
HETATM   23  N   UNK N   1      34.337  10.830  12.340  0.00  0.00    -0.360 N 
HETATM   24  H   UNK N   1      35.074  11.227  11.821  0.00  0.00     0.162 HD
BRANCH  23  25
HETATM   25  C   UNK N   1      33.443   9.905  11.687  0.00  0.00     0.132 C 
BRANCH  25  26
HETATM   26  C   UNK N   1      33.357  10.219  10.206  0.00  0.00     0.090 C 
BRANCH  26  27
HETATM   27  S   UNK N   1      32.191   9.092   9.391  0.00  0.00    -0.181 SA
HETATM   28  H   UNK N   1      31.767   7.861   8.998  0.00  0.00     0.101 HD
ENDBRANCH  26  27
ENDBRANCH  25  26
ENDBRANCH  23  25
ENDBRANCH  20  21
ENDBRANCH  19  20
ENDBRANCH  17  19
ENDBRANCH   1  15
TORSDOF 14
ENDMDL
