REMARK  12 active torsions:
REMARK  status: ('A' for Active; 'I' for Inactive)
REMARK    1  A    between atoms: C_2  and  C_1 
REMARK    2  A    between atoms: O_13  and  C_1 
REMARK    3  A    between atoms: C_3  and  C_2 
REMARK    4  A    between atoms: C_2  and  O_6 
REMARK    5  A    between atoms: C_4  and  C_3 
REMARK    6  A    between atoms: C_3  and  O_7 
REMARK    7  A    between atoms: N_5  and  C_4 
REMARK    8  A    between atoms: C_4  and  O_8 
REMARK    9  A    between atoms: O_9  and  N_5 
REMARK   10  A    between atoms: P_14  and  O_10 
REMARK   11  A    between atoms: P_14  and  O_11 
REMARK   12  A    between atoms: P_14  and  O_13 
ROOT
HETATM    1  C   UNK N   1       0.523   1.118   0.754  0.00  0.00     0.175 C 
ENDROOT
BRANCH   1   2
HETATM    2  C   UNK N   1      -0.812   0.379   0.824  0.00  0.00     0.215 C 
BRANCH   2   3
HETATM    3  O   UNK N   1      -1.610   0.584  -0.306  0.00  0.00    -0.294 OA
BRANCH   3   4
HETATM    4  P   UNK N   1      -3.221   0.255   0.268  0.00  0.00     0.390 P 
HETATM    5  O   UNK N   1      -2.948  -0.982  -0.630  0.00  0.00    -0.632 OA
BRANCH   4   6
HETATM    6  O   UNK N   1      -4.587   0.249  -0.803  0.00  0.00    -0.307 OA
HETATM    7  H   UNK N   1      -4.972   0.909  -1.401  0.00  0.00     0.222 HD
ENDBRANCH   4   6
BRANCH   4   8
HETATM    8  O   UNK N   1      -3.234   1.685  -0.716  0.00  0.00    -0.307 OA
HETATM    9  H   UNK N   1      -2.546   2.091  -1.266  0.00  0.00     0.222 HD
ENDBRANCH   4   8
ENDBRANCH   3   4
ENDBRANCH   2   3
ENDBRANCH   1   2
BRANCH   1  10
HETATM   10  C   UNK N   1       1.454   0.573  -0.353  0.00  0.00     0.199 C 
BRANCH  10  11
HETATM   11  C   UNK N   1       2.883   1.144  -0.258  0.00  0.00     0.270 C 
BRANCH  11  12
HETATM   12  N   UNK N   1       3.485   0.783   1.026  0.00  0.00    -0.273 N 
HETATM   13  H   UNK N   1       3.015   0.298   1.791  0.00  0.00     0.190 HD
BRANCH  12  14
HETATM   14  O   UNK N   1       4.772   1.202   1.027  0.00  0.00    -0.292 OA
HETATM   15  H   UNK N   1       5.493   0.554   1.028  0.00  0.00     0.244 HD
ENDBRANCH  12  14
ENDBRANCH  11  12
BRANCH  11  16
HETATM   16  O   UNK N   1       2.869   2.536  -0.399  0.00  0.00    -0.372 OA
HETATM   17  H   UNK N   1       3.699   3.027  -0.497  0.00  0.00     0.212 HD
ENDBRANCH  11  16
ENDBRANCH  10  11
BRANCH  10  18
HETATM   18  O   UNK N   1       1.532  -0.821  -0.255  0.00  0.00    -0.388 OA
HETATM   19  H   UNK N   1       0.722  -1.351  -0.187  0.00  0.00     0.210 HD
ENDBRANCH  10  18
ENDBRANCH   1  10
BRANCH   1  20
HETATM   20  O   UNK N   1       0.295   2.485   0.580  0.00  0.00    -0.391 OA
HETATM   21  H   UNK N   1       1.038   3.097   0.459  0.00  0.00     0.210 HD
ENDBRANCH   1  20
TORSDOF 12
