MODEL 1
REMARK VINA RESULT:      -5.8      0.000      0.000
REMARK  7 active torsions:
REMARK  status: ('A' for Active; 'I' for Inactive)
REMARK    1  A    between atoms: C_2  and  O_7 
REMARK    2  A    between atoms: C_5  and  C_3 
REMARK    3  A    between atoms: C_4  and  O_15 
REMARK    4  A    between atoms: O_9  and  C_5 
REMARK    5  A    between atoms: C_6  and  O_10 
REMARK    6  A    between atoms: S_16  and  O_11 
REMARK    7  A    between atoms: S_16  and  O_15 
ROOT
HETATM    1  C   UNK N   1      33.484  16.310   9.085  0.00  0.00     0.051 C 
HETATM    2  C   UNK N   1      33.333  15.195  10.096  0.00  0.00     0.179 C 
HETATM    3  C   UNK N   1      34.565  17.118   9.096  0.00  0.00     0.144 C 
HETATM    4  C   UNK N   1      34.667  14.873  10.804  0.00  0.00     0.231 C 
HETATM    5  C   UNK N   1      35.345  16.197  11.176  0.00  0.00     0.296 C 
HETATM    6  O   UNK N   1      35.536  16.953  10.033  0.00  0.00    -0.311 OA
ENDROOT
BRANCH   4   7
HETATM    7  O   UNK N   1      34.413  14.120  11.980  0.00  0.00    -0.250 OA
BRANCH   7   8
HETATM    8  S   UNK N   1      35.626  12.902  12.201  0.00  0.00     0.241 S 
HETATM    9  O   UNK N   1      34.668  12.373  11.124  0.00  0.00    -0.579 OA
HETATM   10  O   UNK N   1      34.794  12.916  13.494  0.00  0.00    -0.579 OA
BRANCH   8  11
HETATM   11  O   UNK N   1      35.227  11.286  12.626  0.00  0.00    -0.274 OA
HETATM   12  H   UNK N   1      34.497  11.073  13.228  0.00  0.00     0.234 HD
ENDBRANCH   8  11
ENDBRANCH   7   8
ENDBRANCH   4   7
BRANCH   2  13
HETATM   13  O   UNK N   1      32.843  14.049   9.467  0.00  0.00    -0.389 OA
HETATM   14  H   UNK N   1      31.968  13.632   9.473  0.00  0.00     0.210 HD
ENDBRANCH   2  13
BRANCH   5  15
HETATM   15  O   UNK N   1      36.579  15.977  11.786  0.00  0.00    -0.368 OA
HETATM   16  H   UNK N   1      36.704  15.240  12.404  0.00  0.00     0.212 HD
ENDBRANCH   5  15
BRANCH   3  17
HETATM   17  C   UNK N   1      34.704  18.193   8.094  0.00  0.00     0.200 C 
HETATM   18  O   UNK N   1      35.119  19.290   8.436  0.00  0.00    -0.645 OA
BRANCH  17  19
HETATM   19  O   UNK N   1      34.355  17.985   6.810  0.00  0.00    -0.771 OA
HETATM   20  H   UNK N   1      33.452  17.935   6.567  0.00  0.00     0.167 HD
ENDBRANCH  17  19
ENDBRANCH   3  17
TORSDOF 7
ENDMDL
MODEL 2
REMARK VINA RESULT:      -5.6     11.876     14.979
REMARK  7 active torsions:
REMARK  status: ('A' for Active; 'I' for Inactive)
REMARK    1  A    between atoms: C_2  and  O_7 
REMARK    2  A    between atoms: C_5  and  C_3 
REMARK    3  A    between atoms: C_4  and  O_15 
REMARK    4  A    between atoms: O_9  and  C_5 
REMARK    5  A    between atoms: C_6  and  O_10 
REMARK    6  A    between atoms: S_16  and  O_11 
REMARK    7  A    between atoms: S_16  and  O_15 
ROOT
HETATM    1  C   UNK N   1      43.499  21.180   4.118  0.00  0.00     0.051 C 
HETATM    2  C   UNK N   1      44.371  22.411   3.994  0.00  0.00     0.179 C 
HETATM    3  C   UNK N   1      42.435  20.996   3.311  0.00  0.00     0.144 C 
HETATM    4  C   UNK N   1      44.143  23.147   2.656  0.00  0.00     0.231 C 
HETATM    5  C   UNK N   1      42.633  23.212   2.395  0.00  0.00     0.296 C 
HETATM    6  O   UNK N   1      42.114  21.929   2.375  0.00  0.00    -0.311 OA
ENDROOT
BRANCH   4   7
HETATM    7  O   UNK N   1      44.669  24.462   2.739  0.00  0.00    -0.250 OA
BRANCH   7   8
HETATM    8  S   UNK N   1      45.743  24.777   1.416  0.00  0.00     0.241 S 
HETATM    9  O   UNK N   1      46.531  25.081   2.698  0.00  0.00    -0.579 OA
HETATM   10  O   UNK N   1      44.659  25.865   1.354  0.00  0.00    -0.579 OA
BRANCH   8  11
HETATM   11  O   UNK N   1      46.498  26.304   1.198  0.00  0.00    -0.274 OA
HETATM   12  H   UNK N   1      46.059  27.039   0.740  0.00  0.00     0.234 HD
ENDBRANCH   8  11
ENDBRANCH   7   8
ENDBRANCH   4   7
BRANCH   2  13
HETATM   13  O   UNK N   1      45.715  22.053   4.114  0.00  0.00    -0.389 OA
HETATM   14  H   UNK N   1      46.533  22.531   3.906  0.00  0.00     0.210 HD
ENDBRANCH   2  13
BRANCH   5  15
HETATM   15  O   UNK N   1      42.359  23.832   1.177  0.00  0.00    -0.368 OA
HETATM   16  H   UNK N   1      43.026  24.382   0.737  0.00  0.00     0.212 HD
ENDBRANCH   5  15
BRANCH   3  17
HETATM   17  C   UNK N   1      41.602  19.784   3.435  0.00  0.00     0.200 C 
HETATM   18  O   UNK N   1      41.980  18.735   2.935  0.00  0.00    -0.645 OA
BRANCH  17  19
HETATM   19  O   UNK N   1      40.418  19.827   4.076  0.00  0.00    -0.771 OA
HETATM   20  H   UNK N   1      39.634  20.031   3.606  0.00  0.00     0.167 HD
ENDBRANCH  17  19
ENDBRANCH   3  17
TORSDOF 7
ENDMDL
MODEL 3
REMARK VINA RESULT:      -5.5      2.407      4.013
REMARK  7 active torsions:
REMARK  status: ('A' for Active; 'I' for Inactive)
REMARK    1  A    between atoms: C_2  and  O_7 
REMARK    2  A    between atoms: C_5  and  C_3 
REMARK    3  A    between atoms: C_4  and  O_15 
REMARK    4  A    between atoms: O_9  and  C_5 
REMARK    5  A    between atoms: C_6  and  O_10 
REMARK    6  A    between atoms: S_16  and  O_11 
REMARK    7  A    between atoms: S_16  and  O_15 
ROOT
HETATM    1  C   UNK N   1      32.556  16.055   6.347  0.00  0.00     0.051 C 
HETATM    2  C   UNK N   1      32.942  15.813   7.791  0.00  0.00     0.179 C 
HETATM    3  C   UNK N   1      33.036  17.116   5.667  0.00  0.00     0.144 C 
HETATM    4  C   UNK N   1      34.182  16.637   8.202  0.00  0.00     0.231 C 
HETATM    5  C   UNK N   1      34.019  18.058   7.650  0.00  0.00     0.296 C 
HETATM    6  O   UNK N   1      33.868  18.003   6.275  0.00  0.00    -0.311 OA
ENDROOT
BRANCH   4   7
HETATM    7  O   UNK N   1      34.275  16.684   9.617  0.00  0.00    -0.250 OA
BRANCH   7   8
HETATM    8  S   UNK N   1      35.641  15.772  10.172  0.00  0.00     0.241 S 
HETATM    9  O   UNK N   1      34.467  15.398  11.088  0.00  0.00    -0.579 OA
HETATM   10  O   UNK N   1      35.946  17.242  10.503  0.00  0.00    -0.579 OA
BRANCH   8  11
HETATM   11  O   UNK N   1      36.208  15.872  11.790  0.00  0.00    -0.274 OA
HETATM   12  H   UNK N   1      36.968  15.360  12.106  0.00  0.00     0.234 HD
ENDBRANCH   8  11
ENDBRANCH   7   8
ENDBRANCH   4   7
BRANCH   2  13
HETATM   13  O   UNK N   1      33.189  14.455   7.994  0.00  0.00    -0.389 OA
HETATM   14  H   UNK N   1      33.818  13.842   7.582  0.00  0.00     0.210 HD
ENDBRANCH   2  13
BRANCH   5  15
HETATM   15  O   UNK N   1      35.128  18.846   7.953  0.00  0.00    -0.368 OA
HETATM   16  H   UNK N   1      35.919  18.458   8.359  0.00  0.00     0.212 HD
ENDBRANCH   5  15
BRANCH   3  17
HETATM   17  C   UNK N   1      32.661  17.330   4.256  0.00  0.00     0.200 C 
HETATM   18  O   UNK N   1      33.282  16.763   3.370  0.00  0.00    -0.645 OA
BRANCH  17  19
HETATM   19  O   UNK N   1      31.654  18.164   3.931  0.00  0.00    -0.771 OA
HETATM   20  H   UNK N   1      31.768  19.092   3.998  0.00  0.00     0.167 HD
ENDBRANCH  17  19
ENDBRANCH   3  17
TORSDOF 7
ENDMDL
MODEL 4
REMARK VINA RESULT:      -5.5     13.731     15.344
REMARK  7 active torsions:
REMARK  status: ('A' for Active; 'I' for Inactive)
REMARK    1  A    between atoms: C_2  and  O_7 
REMARK    2  A    between atoms: C_5  and  C_3 
REMARK    3  A    between atoms: C_4  and  O_15 
REMARK    4  A    between atoms: O_9  and  C_5 
REMARK    5  A    between atoms: C_6  and  O_10 
REMARK    6  A    between atoms: S_16  and  O_11 
REMARK    7  A    between atoms: S_16  and  O_15 
ROOT
HETATM    1  C   UNK N   1      22.332  19.042   3.899  0.00  0.00     0.051 C 
HETATM    2  C   UNK N   1      22.282  17.887   4.876  0.00  0.00     0.179 C 
HETATM    3  C   UNK N   1      21.290  19.311   3.085  0.00  0.00     0.144 C 
HETATM    4  C   UNK N   1      20.841  17.375   5.089  0.00  0.00     0.231 C 
HETATM    5  C   UNK N   1      20.153  17.289   3.721  0.00  0.00     0.296 C 
HETATM    6  O   UNK N   1      20.175  18.533   3.117  0.00  0.00    -0.311 OA
ENDROOT
BRANCH   4   7
HETATM    7  O   UNK N   1      20.876  16.088   5.686  0.00  0.00    -0.250 OA
BRANCH   7   8
HETATM    8  S   UNK N   1      20.026  16.089   7.197  0.00  0.00     0.241 S 
HETATM    9  O   UNK N   1      21.470  15.670   7.510  0.00  0.00    -0.579 OA
HETATM   10  O   UNK N   1      19.446  14.923   6.382  0.00  0.00    -0.579 OA
BRANCH   8  11
HETATM   11  O   UNK N   1      19.945  14.697   8.198  0.00  0.00    -0.274 OA
HETATM   12  H   UNK N   1      19.136  14.443   8.669  0.00  0.00     0.234 HD
ENDBRANCH   8  11
ENDBRANCH   7   8
ENDBRANCH   4   7
BRANCH   2  13
HETATM   13  O   UNK N   1      22.831  18.278   6.098  0.00  0.00    -0.389 OA
HETATM   14  H   UNK N   1      22.706  17.943   7.000  0.00  0.00     0.210 HD
ENDBRANCH   2  13
BRANCH   5  15
HETATM   15  O   UNK N   1      18.831  16.868   3.848  0.00  0.00    -0.368 OA
HETATM   16  H   UNK N   1      18.389  16.389   3.129  0.00  0.00     0.212 HD
ENDBRANCH   5  15
BRANCH   3  17
HETATM   17  C   UNK N   1      21.349  20.449   2.147  0.00  0.00     0.200 C 
HETATM   18  O   UNK N   1      21.187  20.257   0.951  0.00  0.00    -0.645 OA
BRANCH  17  19
HETATM   19  O   UNK N   1      21.605  21.694   2.592  0.00  0.00    -0.771 OA
HETATM   20  H   UNK N   1      21.959  21.827   3.449  0.00  0.00     0.167 HD
ENDBRANCH  17  19
ENDBRANCH   3  17
TORSDOF 7
ENDMDL
MODEL 5
REMARK VINA RESULT:      -5.4      2.638      5.575
REMARK  7 active torsions:
REMARK  status: ('A' for Active; 'I' for Inactive)
REMARK    1  A    between atoms: C_2  and  O_7 
REMARK    2  A    between atoms: C_5  and  C_3 
REMARK    3  A    between atoms: C_4  and  O_15 
REMARK    4  A    between atoms: O_9  and  C_5 
REMARK    5  A    between atoms: C_6  and  O_10 
REMARK    6  A    between atoms: S_16  and  O_11 
REMARK    7  A    between atoms: S_16  and  O_15 
ROOT
HETATM    1  C   UNK N   1      33.985  15.554   9.843  0.00  0.00     0.051 C 
HETATM    2  C   UNK N   1      32.990  16.087   8.834  0.00  0.00     0.179 C 
HETATM    3  C   UNK N   1      35.081  16.263  10.181  0.00  0.00     0.144 C 
HETATM    4  C   UNK N   1      33.171  17.601   8.591  0.00  0.00     0.231 C 
HETATM    5  C   UNK N   1      34.671  17.892   8.459  0.00  0.00     0.296 C 
HETATM    6  O   UNK N   1      35.323  17.471   9.604  0.00  0.00    -0.311 OA
ENDROOT
BRANCH   4   7
HETATM    7  O   UNK N   1      32.506  17.975   7.395  0.00  0.00    -0.250 OA
BRANCH   7   8
HETATM    8  S   UNK N   1      32.776  16.799   6.150  0.00  0.00     0.241 S 
HETATM    9  O   UNK N   1      33.585  18.044   5.756  0.00  0.00    -0.579 OA
HETATM   10  O   UNK N   1      31.306  17.228   6.020  0.00  0.00    -0.579 OA
BRANCH   8  11
HETATM   11  O   UNK N   1      32.435  17.125   4.499  0.00  0.00    -0.274 OA
HETATM   12  H   UNK N   1      32.697  16.521   3.786  0.00  0.00     0.234 HD
ENDBRANCH   8  11
ENDBRANCH   7   8
ENDBRANCH   4   7
BRANCH   2  13
HETATM   13  O   UNK N   1      31.690  15.829   9.270  0.00  0.00    -0.389 OA
HETATM   14  H   UNK N   1      31.331  15.616  10.145  0.00  0.00     0.210 HD
ENDBRANCH   2  13
BRANCH   5  15
HETATM   15  O   UNK N   1      34.906  19.253   8.277  0.00  0.00    -0.368 OA
HETATM   16  H   UNK N   1      34.846  19.656   7.397  0.00  0.00     0.212 HD
ENDBRANCH   5  15
BRANCH   3  17
HETATM   17  C   UNK N   1      36.034  15.735  11.176  0.00  0.00     0.200 C 
HETATM   18  O   UNK N   1      35.623  15.319  12.249  0.00  0.00    -0.645 OA
BRANCH  17  19
HETATM   19  O   UNK N   1      37.358  15.728  10.924  0.00  0.00    -0.771 OA
HETATM   20  H   UNK N   1      37.873  16.494  11.083  0.00  0.00     0.167 HD
ENDBRANCH  17  19
ENDBRANCH   3  17
TORSDOF 7
ENDMDL
MODEL 6
REMARK VINA RESULT:      -5.3      2.295      5.402
REMARK  7 active torsions:
REMARK  status: ('A' for Active; 'I' for Inactive)
REMARK    1  A    between atoms: C_2  and  O_7 
REMARK    2  A    between atoms: C_5  and  C_3 
REMARK    3  A    between atoms: C_4  and  O_15 
REMARK    4  A    between atoms: O_9  and  C_5 
REMARK    5  A    between atoms: C_6  and  O_10 
REMARK    6  A    between atoms: S_16  and  O_11 
REMARK    7  A    between atoms: S_16  and  O_15 
ROOT
HETATM    1  C   UNK N   1      34.831  13.741  11.163  0.00  0.00     0.051 C 
HETATM    2  C   UNK N   1      34.477  14.179   9.758  0.00  0.00     0.179 C 
HETATM    3  C   UNK N   1      35.395  14.598  12.038  0.00  0.00     0.144 C 
HETATM    4  C   UNK N   1      34.460  15.718   9.621  0.00  0.00     0.231 C 
HETATM    5  C   UNK N   1      35.692  16.278  10.342  0.00  0.00     0.296 C 
HETATM    6  O   UNK N   1      35.672  15.877  11.666  0.00  0.00    -0.311 OA
ENDROOT
BRANCH   4   7
HETATM    7  O   UNK N   1      34.508  16.075   8.249  0.00  0.00    -0.250 OA
BRANCH   7   8
HETATM    8  S   UNK N   1      33.248  17.202   7.864  0.00  0.00     0.241 S 
HETATM    9  O   UNK N   1      32.940  15.919   7.077  0.00  0.00    -0.579 OA
HETATM   10  O   UNK N   1      34.529  17.759   7.223  0.00  0.00    -0.579 OA
BRANCH   8  11
HETATM   11  O   UNK N   1      32.905  17.668   6.248  0.00  0.00    -0.274 OA
HETATM   12  H   UNK N   1      32.428  18.486   6.034  0.00  0.00     0.234 HD
ENDBRANCH   8  11
ENDBRANCH   7   8
ENDBRANCH   4   7
BRANCH   2  13
HETATM   13  O   UNK N   1      33.232  13.659   9.399  0.00  0.00    -0.389 OA
HETATM   14  H   UNK N   1      32.529  14.001   8.826  0.00  0.00     0.210 HD
ENDBRANCH   2  13
BRANCH   5  15
HETATM   15  O   UNK N   1      35.715  17.671  10.290  0.00  0.00    -0.368 OA
HETATM   16  H   UNK N   1      36.398  18.175  10.760  0.00  0.00     0.212 HD
ENDBRANCH   5  15
BRANCH   3  17
HETATM   17  C   UNK N   1      35.722  14.159  13.408  0.00  0.00     0.200 C 
HETATM   18  O   UNK N   1      34.937  13.452  14.022  0.00  0.00    -0.645 OA
BRANCH  17  19
HETATM   19  O   UNK N   1      36.868  14.548  14.000  0.00  0.00    -0.771 OA
HETATM   20  H   UNK N   1      37.277  14.004  14.644  0.00  0.00     0.167 HD
ENDBRANCH  17  19
ENDBRANCH   3  17
TORSDOF 7
ENDMDL
MODEL 7
REMARK VINA RESULT:      -5.3      4.510      6.589
REMARK  7 active torsions:
REMARK  status: ('A' for Active; 'I' for Inactive)
REMARK    1  A    between atoms: C_2  and  O_7 
REMARK    2  A    between atoms: C_5  and  C_3 
REMARK    3  A    between atoms: C_4  and  O_15 
REMARK    4  A    between atoms: O_9  and  C_5 
REMARK    5  A    between atoms: C_6  and  O_10 
REMARK    6  A    between atoms: S_16  and  O_11 
REMARK    7  A    between atoms: S_16  and  O_15 
ROOT
HETATM    1  C   UNK N   1      30.600  18.044   8.915  0.00  0.00     0.051 C 
HETATM    2  C   UNK N   1      31.945  17.847   8.250  0.00  0.00     0.179 C 
HETATM    3  C   UNK N   1      29.458  17.674   8.301  0.00  0.00     0.144 C 
HETATM    4  C   UNK N   1      31.862  16.862   7.062  0.00  0.00     0.231 C 
HETATM    5  C   UNK N   1      30.611  17.203   6.243  0.00  0.00     0.296 C 
HETATM    6  O   UNK N   1      29.494  17.128   7.056  0.00  0.00    -0.311 OA
ENDROOT
BRANCH   4   7
HETATM    7  O   UNK N   1      33.016  16.998   6.249  0.00  0.00    -0.250 OA
BRANCH   7   8
HETATM    8  S   UNK N   1      34.004  15.577   6.344  0.00  0.00     0.241 S 
HETATM    9  O   UNK N   1      34.814  16.715   6.984  0.00  0.00    -0.579 OA
HETATM   10  O   UNK N   1      33.924  15.942   4.853  0.00  0.00    -0.579 OA
BRANCH   8  11
HETATM   11  O   UNK N   1      35.583  15.518   5.671  0.00  0.00    -0.274 OA
HETATM   12  H   UNK N   1      35.957  14.704   5.298  0.00  0.00     0.234 HD
ENDBRANCH   8  11
ENDBRANCH   7   8
ENDBRANCH   4   7
BRANCH   2  13
HETATM   13  O   UNK N   1      32.872  17.383   9.184  0.00  0.00    -0.389 OA
HETATM   14  H   UNK N   1      33.582  17.831   9.669  0.00  0.00     0.210 HD
ENDBRANCH   2  13
BRANCH   5  15
HETATM   15  O   UNK N   1      30.455  16.323   5.174  0.00  0.00    -0.368 OA
HETATM   16  H   UNK N   1      29.573  16.102   4.835  0.00  0.00     0.212 HD
ENDBRANCH   5  15
BRANCH   3  17
HETATM   17  C   UNK N   1      28.155  17.861   8.969  0.00  0.00     0.200 C 
HETATM   18  O   UNK N   1      27.708  16.977   9.683  0.00  0.00    -0.645 OA
BRANCH  17  19
HETATM   19  O   UNK N   1      27.442  18.988   8.780  0.00  0.00    -0.771 OA
HETATM   20  H   UNK N   1      27.174  19.506   9.513  0.00  0.00     0.167 HD
ENDBRANCH  17  19
ENDBRANCH   3  17
TORSDOF 7
ENDMDL
MODEL 8
REMARK VINA RESULT:      -5.3      2.204      5.775
REMARK  7 active torsions:
REMARK  status: ('A' for Active; 'I' for Inactive)
REMARK    1  A    between atoms: C_2  and  O_7 
REMARK    2  A    between atoms: C_5  and  C_3 
REMARK    3  A    between atoms: C_4  and  O_15 
REMARK    4  A    between atoms: O_9  and  C_5 
REMARK    5  A    between atoms: C_6  and  O_10 
REMARK    6  A    between atoms: S_16  and  O_11 
REMARK    7  A    between atoms: S_16  and  O_15 
ROOT
HETATM    1  C   UNK N   1      35.417  15.940  11.692  0.00  0.00     0.051 C 
HETATM    2  C   UNK N   1      34.899  16.771  10.538  0.00  0.00     0.179 C 
HETATM    3  C   UNK N   1      35.239  14.603  11.721  0.00  0.00     0.144 C 
HETATM    4  C   UNK N   1      34.549  15.901   9.311  0.00  0.00     0.231 C 
HETATM    5  C   UNK N   1      33.791  14.661   9.801  0.00  0.00     0.296 C 
HETATM    6  O   UNK N   1      34.572  13.976  10.715  0.00  0.00    -0.311 OA
ENDROOT
BRANCH   4   7
HETATM    7  O   UNK N   1      33.729  16.640   8.420  0.00  0.00    -0.250 OA
BRANCH   7   8
HETATM    8  S   UNK N   1      34.414  16.660   6.828  0.00  0.00     0.241 S 
HETATM    9  O   UNK N   1      34.656  18.055   7.424  0.00  0.00    -0.579 OA
HETATM   10  O   UNK N   1      32.891  16.573   6.637  0.00  0.00    -0.579 OA
BRANCH   8  11
HETATM   11  O   UNK N   1      33.935  17.808   5.644  0.00  0.00    -0.274 OA
HETATM   12  H   UNK N   1      34.574  18.262   5.073  0.00  0.00     0.234 HD
ENDBRANCH   8  11
ENDBRANCH   7   8
ENDBRANCH   4   7
BRANCH   2  13
HETATM   13  O   UNK N   1      35.848  17.731  10.183  0.00  0.00    -0.389 OA
HETATM   14  H   UNK N   1      36.550  17.730   9.514  0.00  0.00     0.210 HD
ENDBRANCH   2  13
BRANCH   5  15
HETATM   15  O   UNK N   1      33.480  13.811   8.742  0.00  0.00    -0.368 OA
HETATM   16  H   UNK N   1      33.403  12.853   8.878  0.00  0.00     0.212 HD
ENDBRANCH   5  15
BRANCH   3  17
HETATM   17  C   UNK N   1      35.762  13.804  12.846  0.00  0.00     0.200 C 
HETATM   18  O   UNK N   1      34.995  13.384  13.699  0.00  0.00    -0.645 OA
BRANCH  17  19
HETATM   19  O   UNK N   1      37.081  13.554  12.957  0.00  0.00    -0.771 OA
HETATM   20  H   UNK N   1      37.409  12.685  12.839  0.00  0.00     0.167 HD
ENDBRANCH  17  19
ENDBRANCH   3  17
TORSDOF 7
ENDMDL
MODEL 9
REMARK VINA RESULT:      -5.3      2.827      4.454
REMARK  7 active torsions:
REMARK  status: ('A' for Active; 'I' for Inactive)
REMARK    1  A    between atoms: C_2  and  O_7 
REMARK    2  A    between atoms: C_5  and  C_3 
REMARK    3  A    between atoms: C_4  and  O_15 
REMARK    4  A    between atoms: O_9  and  C_5 
REMARK    5  A    between atoms: C_6  and  O_10 
REMARK    6  A    between atoms: S_16  and  O_11 
REMARK    7  A    between atoms: S_16  and  O_15 
ROOT
HETATM    1  C   UNK N   1      32.192  17.458   6.905  0.00  0.00     0.051 C 
HETATM    2  C   UNK N   1      33.565  16.987   7.335  0.00  0.00     0.179 C 
HETATM    3  C   UNK N   1      31.088  17.112   7.599  0.00  0.00     0.144 C 
HETATM    4  C   UNK N   1      33.565  16.460   8.787  0.00  0.00     0.231 C 
HETATM    5  C   UNK N   1      32.325  15.577   8.978  0.00  0.00     0.296 C 
HETATM    6  O   UNK N   1      31.188  16.314   8.696  0.00  0.00    -0.311 OA
ENDROOT
BRANCH   4   7
HETATM    7  O   UNK N   1      34.736  15.692   9.016  0.00  0.00    -0.250 OA
BRANCH   7   8
HETATM    8  S   UNK N   1      35.277  15.870  10.653  0.00  0.00     0.241 S 
HETATM    9  O   UNK N   1      35.557  17.208   9.953  0.00  0.00    -0.579 OA
HETATM   10  O   UNK N   1      36.240  14.871   9.992  0.00  0.00    -0.579 OA
BRANCH   8  11
HETATM   11  O   UNK N   1      36.890  16.315  11.036  0.00  0.00    -0.274 OA
HETATM   12  H   UNK N   1      37.103  17.127  11.523  0.00  0.00     0.234 HD
ENDBRANCH   8  11
ENDBRANCH   7   8
ENDBRANCH   4   7
BRANCH   2  13
HETATM   13  O   UNK N   1      34.484  18.030   7.211  0.00  0.00    -0.389 OA
HETATM   14  H   UNK N   1      34.891  18.445   6.435  0.00  0.00     0.210 HD
ENDBRANCH   2  13
BRANCH   5  15
HETATM   15  O   UNK N   1      32.244  15.100  10.285  0.00  0.00    -0.368 OA
HETATM   16  H   UNK N   1      31.465  15.282  10.834  0.00  0.00     0.212 HD
ENDBRANCH   5  15
BRANCH   3  17
HETATM   17  C   UNK N   1      29.759  17.590   7.174  0.00  0.00     0.200 C 
HETATM   18  O   UNK N   1      29.312  17.254   6.088  0.00  0.00    -0.645 OA
BRANCH  17  19
HETATM   19  O   UNK N   1      29.041  18.414   7.962  0.00  0.00    -0.771 OA
HETATM   20  H   UNK N   1      29.435  19.181   8.328  0.00  0.00     0.167 HD
ENDBRANCH  17  19
ENDBRANCH   3  17
TORSDOF 7
ENDMDL
