REMARK  20 active torsions:
REMARK  status: ('A' for Active; 'I' for Inactive)
REMARK    1  A    between atoms: C_6  and  C_5 
REMARK    2  A    between atoms: C_11  and  C_5 
REMARK    3  A    between atoms: C_13  and  C_6 
REMARK    4  A    between atoms: C_14  and  C_7 
REMARK    5  A    between atoms: N_20  and  C_7 
REMARK    6  A    between atoms: C_12  and  C_8 
REMARK    7  A    between atoms: S_33  and  C_8 
REMARK    8  A    between atoms: N_24  and  C_10 
REMARK    9  A    between atoms: C_16  and  C_11 
REMARK   10  A    between atoms: C_11  and  N_19 
REMARK   11  A    between atoms: C_15  and  C_12 
REMARK   12  A    between atoms: C_12  and  N_22 
REMARK   13  A    between atoms: C_13  and  O_25 
REMARK   14  A    between atoms: O_27  and  C_14 
REMARK   15  A    between atoms: O_28  and  C_15 
REMARK   16  A    between atoms: O_30  and  C_16 
REMARK   17  A    between atoms: N_24  and  C_17 
REMARK   18  A    between atoms: C_17  and  O_31 
REMARK   19  A    between atoms: S_33  and  C_17 
REMARK   20  A    between atoms: O_32  and  N_24 
ROOT
HETATM    1  C   UNK N   1       5.236   0.235  -0.684  0.00  0.00     0.167 C 
ENDROOT
BRANCH   1   2
HETATM    2  C   UNK N   1       5.754  -0.524   0.533  0.00  0.00     0.111 C 
BRANCH   2   3
HETATM    3  S   UNK N   1       6.400  -2.167   0.098  0.00  0.00    -0.112 SA
BRANCH   3   4
HETATM    4  C   UNK N   1       7.952  -1.661  -0.740  0.00  0.00     0.311 C 
BRANCH   4   5
HETATM    5  N   UNK N   1       8.793  -0.735   0.016  0.00  0.00    -0.222 N 
BRANCH   5   6
HETATM    6  C   UNK N   1      10.121  -1.153   0.306  0.00  0.00     0.060 A 
HETATM    7  C   UNK N   1      11.199  -0.320  -0.028  0.00  0.00     0.033 A 
HETATM    8  C   UNK N   1      12.501  -0.835  -0.022  0.00  0.00     0.021 A 
HETATM    9  C   UNK N   1      12.725  -2.168   0.342  0.00  0.00     0.011 A 
HETATM   10  C   UNK N   1      11.662  -2.974   0.740  0.00  0.00     0.021 A 
HETATM   11 Br   UNK N   1      14.464  -2.928   0.207  0.00  0.00    -0.051 Br
HETATM   12  C   UNK N   1      10.367  -2.473   0.708  0.00  0.00     0.033 A 
ENDBRANCH   5   6
BRANCH   5  13
HETATM   13  O   UNK N   1       8.494   0.570   0.014  0.00  0.00    -0.284 OA
HETATM   14  H   UNK N   1       9.204   1.230   0.012  0.00  0.00     0.245 HD
ENDBRANCH   5  13
ENDBRANCH   4   5
BRANCH   4  15
HETATM   15  O   UNK N   1       7.716  -1.153  -2.017  0.00  0.00    -0.366 OA
HETATM   16  H   UNK N   1       7.940  -0.834  -2.906  0.00  0.00     0.213 HD
ENDBRANCH   4  15
ENDBRANCH   3   4
ENDBRANCH   2   3
ENDBRANCH   1   2
BRANCH   1  17
HETATM   17  C   UNK N   1       4.937   1.663  -0.329  0.00  0.00     0.136 C 
HETATM   18  N   UNK N   1       4.081   1.945   0.589  0.00  0.00    -0.363 N 
ATOM     19  HN  UNK N   1       3.624   1.185   1.090  1.00  0.00     0.161 HD
BRANCH  18  20
HETATM   20  C   UNK N   1       3.752   3.306   0.928  0.00  0.00     0.231 C 
BRANCH  20  21
HETATM   21  C   UNK N   1       2.642   3.807   0.052  0.00  0.00     0.158 C 
HETATM   22  O   UNK N   1       2.112   3.073  -0.769  0.00  0.00    -0.649 OA
BRANCH  21  23
HETATM   23  O   UNK N   1       2.232   5.082   0.167  0.00  0.00    -0.775 OA
HETATM   24  H   UNK N   1       2.859   5.773   0.247  0.00  0.00     0.167 HD
ENDBRANCH  21  23
ENDBRANCH  20  21
ENDBRANCH  18  20
BRANCH  17  25
HETATM   25  O   UNK N   1       5.600   2.651  -0.970  0.00  0.00    -0.348 OA
HETATM   26  H   UNK N   1       6.423   2.596  -1.415  0.00  0.00     0.219 HD
ENDBRANCH  17  25
ENDBRANCH   1  17
BRANCH   1  27
HETATM   27  N   UNK N   1       4.151  -0.446  -1.383  0.00  0.00    -0.362 N 
HETATM   28  C   UNK N   1       2.946  -0.691  -0.981  0.00  0.00     0.111 C 
ATOM     29  HN  UNK N   1       4.375  -0.777  -2.322  1.00  0.00     0.162 HD
BRANCH  28  30
HETATM   30  C   UNK N   1       2.438  -0.250   0.362  0.00  0.00     0.086 C 
BRANCH  30  31
HETATM   31  C   UNK N   1       1.608  -1.261   1.159  0.00  0.00     0.043 C 
BRANCH  31  32
HETATM   32  C   UNK N   1       0.177  -1.538   0.649  0.00  0.00     0.173 C 
BRANCH  32  33
HETATM   33  C   UNK N   1      -0.603  -0.326   0.185  0.00  0.00     0.163 C 
HETATM   34  O   UNK N   1      -1.749  -0.466  -0.214  0.00  0.00    -0.648 OA
BRANCH  33  35
HETATM   35  O   UNK N   1      -0.064   0.909   0.209  0.00  0.00    -0.775 OA
HETATM   36  H   UNK N   1       0.867   1.014   0.226  0.00  0.00     0.167 HD
ENDBRANCH  33  35
ENDBRANCH  32  33
BRANCH  32  37
HETATM   37  N   UNK N   1       0.216  -2.532  -0.410  0.00  0.00    -0.418 N 
HETATM   38  H   UNK N   1      -0.375  -2.905  -1.153  0.00  0.00     0.150 HD
HETATM   39  H   UNK N   1       1.119  -3.007  -0.410  0.00  0.00     0.150 HD
ENDBRANCH  32  37
ENDBRANCH  31  32
ENDBRANCH  30  31
ENDBRANCH  28  30
BRANCH  28  40
HETATM   40  O   UNK N   1       2.096  -1.281  -1.840  0.00  0.00    -0.350 OA
HETATM   41  H   UNK N   1       1.444  -0.974  -2.438  0.00  0.00     0.219 HD
ENDBRANCH  28  40
ENDBRANCH   1  27
TORSDOF 20
