MODEL 1
REMARK VINA RESULT:      -4.9      0.000      0.000
REMARK  9 active torsions:
REMARK  status: ('A' for Active; 'I' for Inactive)
REMARK    1  A    between atoms: O_1  and  P_2 
REMARK    2  A    between atoms: P_2  and  O_3 
REMARK    3  A    between atoms: P_2  and  O_5 
REMARK    4  A    between atoms: O_5  and  P_6 
REMARK    5  A    between atoms: P_6  and  O_7 
REMARK    6  A    between atoms: P_6  and  O_9 
REMARK    7  A    between atoms: O_9  and  P_10 
REMARK    8  A    between atoms: P_10  and  O_11 
REMARK    9  A    between atoms: P_10  and  O_12 
ROOT
HETATM    1  P   UNK N   1      34.449  17.575   8.245  0.00  0.00     0.410 P 
HETATM    2  O   UNK N   1      34.781  19.090   8.366  0.00  0.00    -0.631 OA
ENDROOT
BRANCH   1   3
HETATM    3  O   UNK N   1      35.257  17.691   9.785  0.00  0.00    -0.195 OA
BRANCH   3   4
HETATM    4  P   UNK N   1      35.500  16.060  10.358  0.00  0.00     0.399 P 
HETATM    5  O   UNK N   1      35.258  15.098   9.164  0.00  0.00    -0.631 OA
BRANCH   4   6
HETATM    6  O   UNK N   1      37.149  15.839  10.850  0.00  0.00    -0.307 OA
HETATM    7  H   UNK N   1      37.982  15.830  10.351  0.00  0.00     0.222 HD
ENDBRANCH   4   6
BRANCH   4   8
HETATM    8  O   UNK N   1      34.420  15.599  11.637  0.00  0.00    -0.307 OA
HETATM    9  H   UNK N   1      33.485  15.692  11.877  0.00  0.00     0.222 HD
ENDBRANCH   4   8
ENDBRANCH   3   4
ENDBRANCH   1   3
BRANCH   1  10
HETATM   10  O   UNK N   1      33.396  17.034   9.517  0.00  0.00    -0.307 OA
HETATM   11  H   UNK N   1      32.781  17.362  10.193  0.00  0.00     0.222 HD
ENDBRANCH   1  10
BRANCH   1  12
HETATM   12  O   UNK N   1      32.890  18.340   8.110  0.00  0.00    -0.195 OA
BRANCH  12  13
HETATM   13  P   UNK N   1      31.729  17.054   7.933  0.00  0.00     0.399 P 
HETATM   14  O   UNK N   1      30.809  17.466   6.752  0.00  0.00    -0.631 OA
BRANCH  13  15
HETATM   15  O   UNK N   1      32.459  15.547   7.473  0.00  0.00    -0.307 OA
HETATM   16  H   UNK N   1      33.258  15.001   7.533  0.00  0.00     0.222 HD
ENDBRANCH  13  15
BRANCH  13  17
HETATM   17  O   UNK N   1      30.701  16.893   9.323  0.00  0.00    -0.307 OA
HETATM   18  H   UNK N   1      31.038  17.001  10.226  0.00  0.00     0.222 HD
ENDBRANCH  13  17
ENDBRANCH  12  13
ENDBRANCH   1  12
TORSDOF 9
ENDMDL
MODEL 2
REMARK VINA RESULT:      -4.9      1.809      5.117
REMARK  9 active torsions:
REMARK  status: ('A' for Active; 'I' for Inactive)
REMARK    1  A    between atoms: O_1  and  P_2 
REMARK    2  A    between atoms: P_2  and  O_3 
REMARK    3  A    between atoms: P_2  and  O_5 
REMARK    4  A    between atoms: O_5  and  P_6 
REMARK    5  A    between atoms: P_6  and  O_7 
REMARK    6  A    between atoms: P_6  and  O_9 
REMARK    7  A    between atoms: O_9  and  P_10 
REMARK    8  A    between atoms: P_10  and  O_11 
REMARK    9  A    between atoms: P_10  and  O_12 
ROOT
HETATM    1  P   UNK N   1      34.979  16.086  10.281  0.00  0.00     0.410 P 
HETATM    2  O   UNK N   1      35.648  17.485  10.407  0.00  0.00    -0.631 OA
ENDROOT
BRANCH   1   3
HETATM    3  O   UNK N   1      35.388  16.491   8.635  0.00  0.00    -0.195 OA
BRANCH   3   4
HETATM    4  P   UNK N   1      34.498  17.936   8.228  0.00  0.00     0.399 P 
HETATM    5  O   UNK N   1      34.181  17.886   6.710  0.00  0.00    -0.631 OA
BRANCH   4   6
HETATM    6  O   UNK N   1      32.972  17.950   9.055  0.00  0.00    -0.307 OA
HETATM    7  H   UNK N   1      32.672  17.526   9.875  0.00  0.00     0.222 HD
ENDBRANCH   4   6
BRANCH   4   8
HETATM    8  O   UNK N   1      35.368  19.406   8.540  0.00  0.00    -0.307 OA
HETATM    9  H   UNK N   1      35.233  20.365   8.480  0.00  0.00     0.222 HD
ENDBRANCH   4   8
ENDBRANCH   3   4
ENDBRANCH   1   3
BRANCH   1  10
HETATM   10  O   UNK N   1      36.067  14.901   9.623  0.00  0.00    -0.307 OA
HETATM   11  H   UNK N   1      36.084  14.021   9.215  0.00  0.00     0.222 HD
ENDBRANCH   1  10
BRANCH   1  12
HETATM   12  O   UNK N   1      36.302  15.801  11.377  0.00  0.00    -0.195 OA
BRANCH  12  13
HETATM   13  P   UNK N   1      35.897  14.359  12.266  0.00  0.00     0.399 P 
HETATM   14  O   UNK N   1      36.834  13.245  11.726  0.00  0.00    -0.631 OA
BRANCH  13  15
HETATM   15  O   UNK N   1      36.238  14.496  13.963  0.00  0.00    -0.307 OA
HETATM   16  H   UNK N   1      36.940  14.535  14.631  0.00  0.00     0.222 HD
ENDBRANCH  13  15
BRANCH  13  17
HETATM   17  O   UNK N   1      34.274  13.826  11.960  0.00  0.00    -0.307 OA
HETATM   18  H   UNK N   1      33.882  13.074  12.430  0.00  0.00     0.222 HD
ENDBRANCH  13  17
ENDBRANCH  12  13
ENDBRANCH   1  12
TORSDOF 9
ENDMDL
MODEL 3
REMARK VINA RESULT:      -4.8      1.778      3.019
REMARK  9 active torsions:
REMARK  status: ('A' for Active; 'I' for Inactive)
REMARK    1  A    between atoms: O_1  and  P_2 
REMARK    2  A    between atoms: P_2  and  O_3 
REMARK    3  A    between atoms: P_2  and  O_5 
REMARK    4  A    between atoms: O_5  and  P_6 
REMARK    5  A    between atoms: P_6  and  O_7 
REMARK    6  A    between atoms: P_6  and  O_9 
REMARK    7  A    between atoms: O_9  and  P_10 
REMARK    8  A    between atoms: P_10  and  O_11 
REMARK    9  A    between atoms: P_10  and  O_12 
ROOT
HETATM    1  P   UNK N   1      35.192  15.888   9.993  0.00  0.00     0.410 P 
HETATM    2  O   UNK N   1      35.715  17.287  10.431  0.00  0.00    -0.631 OA
ENDROOT
BRANCH   1   3
HETATM    3  O   UNK N   1      35.620  15.656  11.668  0.00  0.00    -0.195 OA
BRANCH   3   4
HETATM    4  P   UNK N   1      35.748  13.935  11.927  0.00  0.00     0.399 P 
HETATM    5  O   UNK N   1      35.790  13.247  10.536  0.00  0.00    -0.631 OA
BRANCH   4   6
HETATM    6  O   UNK N   1      37.250  13.560  12.713  0.00  0.00    -0.307 OA
HETATM    7  H   UNK N   1      37.813  14.069  13.318  0.00  0.00     0.222 HD
ENDBRANCH   4   6
BRANCH   4   8
HETATM    8  O   UNK N   1      34.417  13.258  12.813  0.00  0.00    -0.307 OA
HETATM    9  H   UNK N   1      34.251  12.563  13.469  0.00  0.00     0.222 HD
ENDBRANCH   4   8
ENDBRANCH   3   4
ENDBRANCH   1   3
BRANCH   1  10
HETATM   10  O   UNK N   1      33.798  15.398  10.907  0.00  0.00    -0.307 OA
HETATM   11  H   UNK N   1      32.833  15.311  10.844  0.00  0.00     0.222 HD
ENDBRANCH   1  10
BRANCH   1  12
HETATM   12  O   UNK N   1      33.846  16.942   9.659  0.00  0.00    -0.195 OA
BRANCH  12  13
HETATM   13  P   UNK N   1      34.239  17.784   8.186  0.00  0.00     0.399 P 
HETATM   14  O   UNK N   1      32.897  18.338   7.638  0.00  0.00    -0.631 OA
BRANCH  13  15
HETATM   15  O   UNK N   1      35.259  19.164   8.452  0.00  0.00    -0.307 OA
HETATM   16  H   UNK N   1      35.896  19.771   8.043  0.00  0.00     0.222 HD
ENDBRANCH  13  15
BRANCH  13  17
HETATM   17  O   UNK N   1      34.868  16.723   6.965  0.00  0.00    -0.307 OA
HETATM   18  H   UNK N   1      35.017  15.779   7.130  0.00  0.00     0.222 HD
ENDBRANCH  13  17
ENDBRANCH  12  13
ENDBRANCH   1  12
TORSDOF 9
ENDMDL
MODEL 4
REMARK VINA RESULT:      -4.8      1.735      3.525
REMARK  9 active torsions:
REMARK  status: ('A' for Active; 'I' for Inactive)
REMARK    1  A    between atoms: O_1  and  P_2 
REMARK    2  A    between atoms: P_2  and  O_3 
REMARK    3  A    between atoms: P_2  and  O_5 
REMARK    4  A    between atoms: O_5  and  P_6 
REMARK    5  A    between atoms: P_6  and  O_7 
REMARK    6  A    between atoms: P_6  and  O_9 
REMARK    7  A    between atoms: O_9  and  P_10 
REMARK    8  A    between atoms: P_10  and  O_11 
REMARK    9  A    between atoms: P_10  and  O_12 
ROOT
HETATM    1  P   UNK N   1      34.888  15.835  10.346  0.00  0.00     0.410 P 
HETATM    2  O   UNK N   1      35.955  14.772   9.955  0.00  0.00    -0.631 OA
ENDROOT
BRANCH   1   3
HETATM    3  O   UNK N   1      36.070  15.958  11.621  0.00  0.00    -0.195 OA
BRANCH   3   4
HETATM    4  P   UNK N   1      36.092  14.421  12.447  0.00  0.00     0.399 P 
HETATM    5  O   UNK N   1      36.250  14.700  13.965  0.00  0.00    -0.631 OA
BRANCH   4   6
HETATM    6  O   UNK N   1      34.569  13.613  12.245  0.00  0.00    -0.307 OA
HETATM    7  H   UNK N   1      33.654  13.908  12.375  0.00  0.00     0.222 HD
ENDBRANCH   4   6
BRANCH   4   8
HETATM    8  O   UNK N   1      37.396  13.382  11.961  0.00  0.00    -0.307 OA
HETATM    9  H   UNK N   1      37.712  12.926  11.165  0.00  0.00     0.222 HD
ENDBRANCH   4   8
ENDBRANCH   3   4
ENDBRANCH   1   3
BRANCH   1  10
HETATM   10  O   UNK N   1      35.554  17.439  10.395  0.00  0.00    -0.307 OA
HETATM   11  H   UNK N   1      36.054  18.077   9.861  0.00  0.00     0.222 HD
ENDBRANCH   1  10
BRANCH   1  12
HETATM   12  O   UNK N   1      35.388  16.335   8.753  0.00  0.00    -0.195 OA
BRANCH  12  13
HETATM   13  P   UNK N   1      34.307  17.617   8.282  0.00  0.00     0.399 P 
HETATM   14  O   UNK N   1      33.994  17.383   6.780  0.00  0.00    -0.631 OA
BRANCH  13  15
HETATM   15  O   UNK N   1      32.782  17.549   9.110  0.00  0.00    -0.307 OA
HETATM   16  H   UNK N   1      32.344  17.355   9.954  0.00  0.00     0.222 HD
ENDBRANCH  13  15
BRANCH  13  17
HETATM   17  O   UNK N   1      35.049  19.182   8.392  0.00  0.00    -0.307 OA
HETATM   18  H   UNK N   1      35.705  19.394   9.074  0.00  0.00     0.222 HD
ENDBRANCH  13  17
ENDBRANCH  12  13
ENDBRANCH   1  12
TORSDOF 9
ENDMDL
MODEL 5
REMARK VINA RESULT:      -4.6      1.760      5.010
REMARK  9 active torsions:
REMARK  status: ('A' for Active; 'I' for Inactive)
REMARK    1  A    between atoms: O_1  and  P_2 
REMARK    2  A    between atoms: P_2  and  O_3 
REMARK    3  A    between atoms: P_2  and  O_5 
REMARK    4  A    between atoms: O_5  and  P_6 
REMARK    5  A    between atoms: P_6  and  O_7 
REMARK    6  A    between atoms: P_6  and  O_9 
REMARK    7  A    between atoms: O_9  and  P_10 
REMARK    8  A    between atoms: P_10  and  O_11 
REMARK    9  A    between atoms: P_10  and  O_12 
ROOT
HETATM    1  P   UNK N   1      34.571  15.807  10.064  0.00  0.00     0.410 P 
HETATM    2  O   UNK N   1      35.054  17.247  10.404  0.00  0.00    -0.631 OA
ENDROOT
BRANCH   1   3
HETATM    3  O   UNK N   1      35.259  16.370   8.564  0.00  0.00    -0.195 OA
BRANCH   3   4
HETATM    4  P   UNK N   1      34.424  17.842   8.140  0.00  0.00     0.399 P 
HETATM    5  O   UNK N   1      34.232  17.852   6.600  0.00  0.00    -0.631 OA
BRANCH   4   6
HETATM    6  O   UNK N   1      32.835  17.850   8.839  0.00  0.00    -0.307 OA
HETATM    7  H   UNK N   1      32.373  17.219   9.413  0.00  0.00     0.222 HD
ENDBRANCH   4   6
BRANCH   4   8
HETATM    8  O   UNK N   1      35.284  19.286   8.576  0.00  0.00    -0.307 OA
HETATM    9  H   UNK N   1      35.633  19.720   9.371  0.00  0.00     0.222 HD
ENDBRANCH   4   8
ENDBRANCH   3   4
ENDBRANCH   1   3
BRANCH   1  10
HETATM   10  O   UNK N   1      35.884  14.776   9.582  0.00  0.00    -0.307 OA
HETATM   11  H   UNK N   1      36.283  13.911   9.762  0.00  0.00     0.222 HD
ENDBRANCH   1  10
BRANCH   1  12
HETATM   12  O   UNK N   1      35.669  15.558  11.394  0.00  0.00    -0.195 OA
BRANCH  12  13
HETATM   13  P   UNK N   1      35.508  13.886  11.853  0.00  0.00     0.399 P 
HETATM   14  O   UNK N   1      35.076  13.891  13.344  0.00  0.00    -0.631 OA
BRANCH  13  15
HETATM   15  O   UNK N   1      34.244  13.069  10.987  0.00  0.00    -0.307 OA
HETATM   16  H   UNK N   1      33.682  13.088  10.197  0.00  0.00     0.222 HD
ENDBRANCH  13  15
BRANCH  13  17
HETATM   17  O   UNK N   1      37.017  13.032  11.781  0.00  0.00    -0.307 OA
HETATM   18  H   UNK N   1      37.237  12.324  12.407  0.00  0.00     0.222 HD
ENDBRANCH  13  17
ENDBRANCH  12  13
ENDBRANCH   1  12
TORSDOF 9
ENDMDL
MODEL 6
REMARK VINA RESULT:      -4.6      1.899      3.256
REMARK  9 active torsions:
REMARK  status: ('A' for Active; 'I' for Inactive)
REMARK    1  A    between atoms: O_1  and  P_2 
REMARK    2  A    between atoms: P_2  and  O_3 
REMARK    3  A    between atoms: P_2  and  O_5 
REMARK    4  A    between atoms: O_5  and  P_6 
REMARK    5  A    between atoms: P_6  and  O_7 
REMARK    6  A    between atoms: P_6  and  O_9 
REMARK    7  A    between atoms: O_9  and  P_10 
REMARK    8  A    between atoms: P_10  and  O_11 
REMARK    9  A    between atoms: P_10  and  O_12 
ROOT
HETATM    1  P   UNK N   1      31.120  16.429   8.027  0.00  0.00     0.410 P 
HETATM    2  O   UNK N   1      31.213  16.932   6.558  0.00  0.00    -0.631 OA
ENDROOT
BRANCH   1   3
HETATM    3  O   UNK N   1      32.831  16.662   7.786  0.00  0.00    -0.195 OA
BRANCH   3   4
HETATM    4  P   UNK N   1      33.640  15.983   9.174  0.00  0.00     0.399 P 
HETATM    5  O   UNK N   1      34.689  14.961   8.659  0.00  0.00    -0.631 OA
BRANCH   4   6
HETATM    6  O   UNK N   1      34.521  17.219  10.017  0.00  0.00    -0.307 OA
HETATM    7  H   UNK N   1      35.336  17.194  10.542  0.00  0.00     0.222 HD
ENDBRANCH   4   6
BRANCH   4   8
HETATM    8  O   UNK N   1      32.578  15.147  10.265  0.00  0.00    -0.307 OA
HETATM    9  H   UNK N   1      31.649  14.872  10.317  0.00  0.00     0.222 HD
ENDBRANCH   4   8
ENDBRANCH   3   4
ENDBRANCH   1   3
BRANCH   1  10
HETATM   10  O   UNK N   1      31.732  17.599   9.157  0.00  0.00    -0.307 OA
HETATM   11  H   UNK N   1      32.183  18.457   9.202  0.00  0.00     0.222 HD
ENDBRANCH   1  10
BRANCH   1  12
HETATM   12  O   UNK N   1      30.119  17.855   8.028  0.00  0.00    -0.195 OA
BRANCH  12  13
HETATM   13  P   UNK N   1      29.265  17.851   9.546  0.00  0.00     0.399 P 
HETATM   14  O   UNK N   1      29.737  19.120  10.306  0.00  0.00    -0.631 OA
BRANCH  13  15
HETATM   15  O   UNK N   1      27.548  18.014   9.353  0.00  0.00    -0.307 OA
HETATM   16  H   UNK N   1      26.841  18.524   8.926  0.00  0.00     0.222 HD
ENDBRANCH  13  15
BRANCH  13  17
HETATM   17  O   UNK N   1      29.692  16.495  10.542  0.00  0.00    -0.307 OA
HETATM   18  H   UNK N   1      30.496  16.488  11.085  0.00  0.00     0.222 HD
ENDBRANCH  13  17
ENDBRANCH  12  13
ENDBRANCH   1  12
TORSDOF 9
ENDMDL
MODEL 7
REMARK VINA RESULT:      -4.5     11.337     13.559
REMARK  9 active torsions:
REMARK  status: ('A' for Active; 'I' for Inactive)
REMARK    1  A    between atoms: O_1  and  P_2 
REMARK    2  A    between atoms: P_2  and  O_3 
REMARK    3  A    between atoms: P_2  and  O_5 
REMARK    4  A    between atoms: O_5  and  P_6 
REMARK    5  A    between atoms: P_6  and  O_7 
REMARK    6  A    between atoms: P_6  and  O_9 
REMARK    7  A    between atoms: O_9  and  P_10 
REMARK    8  A    between atoms: P_10  and  O_11 
REMARK    9  A    between atoms: P_10  and  O_12 
ROOT
HETATM    1  P   UNK N   1      20.781  14.183   9.531  0.00  0.00     0.410 P 
HETATM    2  O   UNK N   1      20.043  13.209  10.494  0.00  0.00    -0.631 OA
ENDROOT
BRANCH   1   3
HETATM    3  O   UNK N   1      21.187  12.607   8.905  0.00  0.00    -0.195 OA
BRANCH   3   4
HETATM    4  P   UNK N   1      22.611  12.070   9.758  0.00  0.00     0.399 P 
HETATM    5  O   UNK N   1      23.353  11.053   8.850  0.00  0.00    -0.631 OA
BRANCH   4   6
HETATM    6  O   UNK N   1      23.697  13.401  10.004  0.00  0.00    -0.307 OA
HETATM    7  H   UNK N   1      23.608  14.353   9.839  0.00  0.00     0.222 HD
ENDBRANCH   4   6
BRANCH   4   8
HETATM    8  O   UNK N   1      22.269  11.282  11.267  0.00  0.00    -0.307 OA
HETATM    9  H   UNK N   1      22.215  11.498  12.211  0.00  0.00     0.222 HD
ENDBRANCH   4   8
ENDBRANCH   3   4
ENDBRANCH   1   3
BRANCH   1  10
HETATM   10  O   UNK N   1      20.224  14.026   7.892  0.00  0.00    -0.307 OA
HETATM   11  H   UNK N   1      19.620  13.509   7.335  0.00  0.00     0.222 HD
ENDBRANCH   1  10
BRANCH   1  12
HETATM   12  O   UNK N   1      19.116  14.679   9.405  0.00  0.00    -0.195 OA
BRANCH  12  13
HETATM   13  P   UNK N   1      19.130  16.239   8.630  0.00  0.00     0.399 P 
HETATM   14  O   UNK N   1      18.160  17.133   9.449  0.00  0.00    -0.631 OA
BRANCH  13  15
HETATM   15  O   UNK N   1      20.681  17.014   8.704  0.00  0.00    -0.307 OA
HETATM   16  H   UNK N   1      21.280  17.541   9.256  0.00  0.00     0.222 HD
ENDBRANCH  13  15
BRANCH  13  17
HETATM   17  O   UNK N   1      18.497  16.181   7.014  0.00  0.00    -0.307 OA
HETATM   18  H   UNK N   1      18.395  15.346   6.532  0.00  0.00     0.222 HD
ENDBRANCH  13  17
ENDBRANCH  12  13
ENDBRANCH   1  12
TORSDOF 9
ENDMDL
MODEL 8
REMARK VINA RESULT:      -4.5      1.705      4.520
REMARK  9 active torsions:
REMARK  status: ('A' for Active; 'I' for Inactive)
REMARK    1  A    between atoms: O_1  and  P_2 
REMARK    2  A    between atoms: P_2  and  O_3 
REMARK    3  A    between atoms: P_2  and  O_5 
REMARK    4  A    between atoms: O_5  and  P_6 
REMARK    5  A    between atoms: P_6  and  O_7 
REMARK    6  A    between atoms: P_6  and  O_9 
REMARK    7  A    between atoms: O_9  and  P_10 
REMARK    8  A    between atoms: P_10  and  O_11 
REMARK    9  A    between atoms: P_10  and  O_12 
ROOT
HETATM    1  P   UNK N   1      34.077  17.964   8.361  0.00  0.00     0.410 P 
HETATM    2  O   UNK N   1      34.999  19.216   8.310  0.00  0.00    -0.631 OA
ENDROOT
BRANCH   1   3
HETATM    3  O   UNK N   1      34.515  18.075   6.677  0.00  0.00    -0.195 OA
BRANCH   3   4
HETATM    4  P   UNK N   1      33.472  16.982   5.805  0.00  0.00     0.399 P 
HETATM    5  O   UNK N   1      34.363  15.882   5.168  0.00  0.00    -0.631 OA
BRANCH   4   6
HETATM    6  O   UNK N   1      32.397  16.177   6.904  0.00  0.00    -0.307 OA
HETATM    7  H   UNK N   1      31.677  15.542   6.763  0.00  0.00     0.222 HD
ENDBRANCH   4   6
BRANCH   4   8
HETATM    8  O   UNK N   1      32.573  17.741   4.527  0.00  0.00    -0.307 OA
HETATM    9  H   UNK N   1      32.139  18.587   4.339  0.00  0.00     0.222 HD
ENDBRANCH   4   8
ENDBRANCH   3   4
ENDBRANCH   1   3
BRANCH   1  10
HETATM   10  O   UNK N   1      34.906  16.521   7.860  0.00  0.00    -0.307 OA
HETATM   11  H   UNK N   1      35.756  16.060   7.940  0.00  0.00     0.222 HD
ENDBRANCH   1  10
BRANCH   1  12
HETATM   12  O   UNK N   1      35.348  17.572   9.486  0.00  0.00    -0.195 OA
BRANCH  12  13
HETATM   13  P   UNK N   1      34.957  16.004  10.137  0.00  0.00     0.399 P 
HETATM   14  O   UNK N   1      35.173  16.112  11.670  0.00  0.00    -0.631 OA
BRANCH  13  15
HETATM   15  O   UNK N   1      33.289  15.578   9.912  0.00  0.00    -0.307 OA
HETATM   16  H   UNK N   1      32.449  15.846   9.510  0.00  0.00     0.222 HD
ENDBRANCH  13  15
BRANCH  13  17
HETATM   17  O   UNK N   1      36.037  14.766   9.575  0.00  0.00    -0.307 OA
HETATM   18  H   UNK N   1      36.379  14.076  10.164  0.00  0.00     0.222 HD
ENDBRANCH  13  17
ENDBRANCH  12  13
ENDBRANCH   1  12
TORSDOF 9
ENDMDL
MODEL 9
REMARK VINA RESULT:      -4.4      2.450      5.796
REMARK  9 active torsions:
REMARK  status: ('A' for Active; 'I' for Inactive)
REMARK    1  A    between atoms: O_1  and  P_2 
REMARK    2  A    between atoms: P_2  and  O_3 
REMARK    3  A    between atoms: P_2  and  O_5 
REMARK    4  A    between atoms: O_5  and  P_6 
REMARK    5  A    between atoms: P_6  and  O_7 
REMARK    6  A    between atoms: P_6  and  O_9 
REMARK    7  A    between atoms: O_9  and  P_10 
REMARK    8  A    between atoms: P_10  and  O_11 
REMARK    9  A    between atoms: P_10  and  O_12 
ROOT
HETATM    1  P   UNK N   1      35.329  15.105  11.216  0.00  0.00     0.410 P 
HETATM    2  O   UNK N   1      35.919  13.761  10.701  0.00  0.00    -0.631 OA
ENDROOT
BRANCH   1   3
HETATM    3  O   UNK N   1      34.670  14.962   9.608  0.00  0.00    -0.195 OA
BRANCH   3   4
HETATM    4  P   UNK N   1      34.359  16.582   9.038  0.00  0.00     0.399 P 
HETATM    5  O   UNK N   1      35.240  17.554   9.868  0.00  0.00    -0.631 OA
BRANCH   4   6
HETATM    6  O   UNK N   1      34.862  16.742   7.385  0.00  0.00    -0.307 OA
HETATM    7  H   UNK N   1      35.715  16.592   6.947  0.00  0.00     0.222 HD
ENDBRANCH   4   6
BRANCH   4   8
HETATM    8  O   UNK N   1      32.705  17.082   9.217  0.00  0.00    -0.307 OA
HETATM    9  H   UNK N   1      31.928  17.255   8.663  0.00  0.00     0.222 HD
ENDBRANCH   4   8
ENDBRANCH   3   4
ENDBRANCH   1   3
BRANCH   1  10
HETATM   10  O   UNK N   1      33.592  15.074  11.278  0.00  0.00    -0.307 OA
HETATM   11  H   UNK N   1      32.825  14.567  10.970  0.00  0.00     0.222 HD
ENDBRANCH   1  10
BRANCH   1  12
HETATM   12  O   UNK N   1      34.784  13.949  12.399  0.00  0.00    -0.195 OA
BRANCH  12  13
HETATM   13  P   UNK N   1      36.115  13.712  13.498  0.00  0.00     0.399 P 
HETATM   14  O   UNK N   1      35.511  13.049  14.765  0.00  0.00    -0.631 OA
BRANCH  13  15
HETATM   15  O   UNK N   1      37.300  12.599  12.890  0.00  0.00    -0.307 OA
HETATM   16  H   UNK N   1      38.200  12.511  12.538  0.00  0.00     0.222 HD
ENDBRANCH  13  15
BRANCH  13  17
HETATM   17  O   UNK N   1      36.821  15.211  14.016  0.00  0.00    -0.307 OA
HETATM   18  H   UNK N   1      36.616  16.053  13.580  0.00  0.00     0.222 HD
ENDBRANCH  13  17
ENDBRANCH  12  13
ENDBRANCH   1  12
TORSDOF 9
ENDMDL
