MODEL 1
REMARK VINA RESULT:      -5.7      0.000      0.000
REMARK  6 active torsions:
REMARK  status: ('A' for Active; 'I' for Inactive)
REMARK    1  A    between atoms: O_3  and  C_2 
REMARK    2  A    between atoms: C_4  and  C_2 
REMARK    3  A    between atoms: C_4  and  N_5 
REMARK    4  A    between atoms: C_6  and  C_4 
REMARK    5  A    between atoms: C_7  and  C_6 
REMARK    6  A    between atoms: O_13  and  C_12 
ROOT
HETATM    1  C   UNK N   1      32.304  16.553   7.939  0.00  0.00     0.074 C 
ENDROOT
BRANCH   1   2
HETATM    2  C   UNK N   1      33.551  17.195   8.563  0.00  0.00     0.177 C 
BRANCH   2   3
HETATM    3  C   UNK N   1      34.361  18.163   7.764  0.00  0.00     0.163 C 
HETATM    4  O   UNK N   1      34.384  18.085   6.552  0.00  0.00    -0.648 OA
BRANCH   3   5
HETATM    5  O   UNK N   1      35.069  19.127   8.389  0.00  0.00    -0.775 OA
HETATM    6  H   UNK N   1      34.946  19.280   9.305  0.00  0.00     0.167 HD
ENDBRANCH   3   5
ENDBRANCH   2   3
BRANCH   2   7
HETATM    7  N   UNK N   1      33.983  16.896   9.919  0.00  0.00    -0.417 N 
HETATM    8  H   UNK N   1      34.806  17.359  10.306  0.00  0.00     0.150 HD
HETATM    9  H   UNK N   1      33.463  16.224  10.483  0.00  0.00     0.150 HD
ENDBRANCH   2   7
ENDBRANCH   1   2
BRANCH   1  10
HETATM   10  C   UNK N   1      30.976  17.245   8.023  0.00  0.00    -0.056 A 
HETATM   11  C   UNK N   1      29.994  17.134   7.030  0.00  0.00     0.010 A 
HETATM   12  C   UNK N   1      28.775  17.803   7.165  0.00  0.00     0.037 A 
HETATM   13  C   UNK N   1      28.534  18.588   8.296  0.00  0.00     0.065 A 
HETATM   14  C   UNK N   1      29.509  18.702   9.289  0.00  0.00     0.037 A 
HETATM   15  C   UNK N   1      30.726  18.032   9.151  0.00  0.00     0.010 A 
BRANCH  13  16
HETATM   16  O   UNK N   1      27.364  19.231   8.428  0.00  0.00    -0.361 OA
HETATM   17  H   UNK N   1      27.337  20.074   8.836  0.00  0.00     0.217 HD
ENDBRANCH  13  16
ENDBRANCH   1  10
TORSDOF 6
ENDMDL
MODEL 2
REMARK VINA RESULT:      -5.4      9.690     11.018
REMARK  6 active torsions:
REMARK  status: ('A' for Active; 'I' for Inactive)
REMARK    1  A    between atoms: O_3  and  C_2 
REMARK    2  A    between atoms: C_4  and  C_2 
REMARK    3  A    between atoms: C_4  and  N_5 
REMARK    4  A    between atoms: C_6  and  C_4 
REMARK    5  A    between atoms: C_7  and  C_6 
REMARK    6  A    between atoms: O_13  and  C_12 
ROOT
HETATM    1  C   UNK N   1      35.616  11.695  15.166  0.00  0.00     0.074 C 
ENDROOT
BRANCH   1   2
HETATM    2  C   UNK N   1      36.544  12.526  14.268  0.00  0.00     0.177 C 
BRANCH   2   3
HETATM    3  C   UNK N   1      36.003  13.723  13.555  0.00  0.00     0.163 C 
HETATM    4  O   UNK N   1      34.896  13.688  13.057  0.00  0.00    -0.648 OA
BRANCH   3   5
HETATM    5  O   UNK N   1      36.746  14.845  13.463  0.00  0.00    -0.775 OA
HETATM    6  H   UNK N   1      36.477  15.540  12.896  0.00  0.00     0.167 HD
ENDBRANCH   3   5
ENDBRANCH   2   3
BRANCH   2   7
HETATM    7  N   UNK N   1      37.946  12.192  14.079  0.00  0.00    -0.417 N 
HETATM    8  H   UNK N   1      38.653  12.592  14.697  0.00  0.00     0.150 HD
HETATM    9  H   UNK N   1      38.223  11.559  13.330  0.00  0.00     0.150 HD
ENDBRANCH   2   7
ENDBRANCH   1   2
BRANCH   1  10
HETATM   10  C   UNK N   1      35.472  12.032  16.620  0.00  0.00    -0.056 A 
HETATM   11  C   UNK N   1      35.522  11.068  17.635  0.00  0.00     0.010 A 
HETATM   12  C   UNK N   1      35.381  11.445  18.973  0.00  0.00     0.037 A 
HETATM   13  C   UNK N   1      35.190  12.789  19.301  0.00  0.00     0.065 A 
HETATM   14  C   UNK N   1      35.139  13.755  18.294  0.00  0.00     0.037 A 
HETATM   15  C   UNK N   1      35.280  13.376  16.957  0.00  0.00     0.010 A 
BRANCH  13  16
HETATM   16  O   UNK N   1      35.055  13.153  20.585  0.00  0.00    -0.361 OA
HETATM   17  H   UNK N   1      34.830  14.037  20.800  0.00  0.00     0.217 HD
ENDBRANCH  13  16
ENDBRANCH   1  10
TORSDOF 6
ENDMDL
MODEL 3
REMARK VINA RESULT:      -5.4      9.895     11.311
REMARK  6 active torsions:
REMARK  status: ('A' for Active; 'I' for Inactive)
REMARK    1  A    between atoms: O_3  and  C_2 
REMARK    2  A    between atoms: C_4  and  C_2 
REMARK    3  A    between atoms: C_4  and  N_5 
REMARK    4  A    between atoms: C_6  and  C_4 
REMARK    5  A    between atoms: C_7  and  C_6 
REMARK    6  A    between atoms: O_13  and  C_12 
ROOT
HETATM    1  C   UNK N   1      34.956  13.015  15.519  0.00  0.00     0.074 C 
ENDROOT
BRANCH   1   2
HETATM    2  C   UNK N   1      36.090  13.681  14.729  0.00  0.00     0.177 C 
BRANCH   2   3
HETATM    3  C   UNK N   1      35.972  13.825  13.246  0.00  0.00     0.163 C 
HETATM    4  O   UNK N   1      34.878  13.933  12.729  0.00  0.00    -0.648 OA
BRANCH   3   5
HETATM    5  O   UNK N   1      37.081  13.834  12.479  0.00  0.00    -0.775 OA
HETATM    6  H   UNK N   1      37.526  13.033  12.287  0.00  0.00     0.167 HD
ENDBRANCH   3   5
ENDBRANCH   2   3
BRANCH   2   7
HETATM    7  N   UNK N   1      37.294  14.185  15.371  0.00  0.00    -0.417 N 
HETATM    8  H   UNK N   1      38.137  13.611  15.395  0.00  0.00     0.150 HD
HETATM    9  H   UNK N   1      37.294  15.111  15.797  0.00  0.00     0.150 HD
ENDBRANCH   2   7
ENDBRANCH   1   2
BRANCH   1  10
HETATM   10  C   UNK N   1      35.178  12.579  16.937  0.00  0.00    -0.056 A 
HETATM   11  C   UNK N   1      35.024  13.439  18.033  0.00  0.00     0.010 A 
HETATM   12  C   UNK N   1      35.245  12.973  19.331  0.00  0.00     0.037 A 
HETATM   13  C   UNK N   1      35.622  11.644  19.539  0.00  0.00     0.065 A 
HETATM   14  C   UNK N   1      35.776  10.782  18.451  0.00  0.00     0.037 A 
HETATM   15  C   UNK N   1      35.555  11.250  17.154  0.00  0.00     0.010 A 
BRANCH  13  16
HETATM   16  O   UNK N   1      35.835  11.195  20.785  0.00  0.00    -0.361 OA
HETATM   17  H   UNK N   1      35.561  11.707  21.520  0.00  0.00     0.217 HD
ENDBRANCH  13  16
ENDBRANCH   1  10
TORSDOF 6
ENDMDL
MODEL 4
REMARK VINA RESULT:      -5.0      2.355      5.422
REMARK  6 active torsions:
REMARK  status: ('A' for Active; 'I' for Inactive)
REMARK    1  A    between atoms: O_3  and  C_2 
REMARK    2  A    between atoms: C_4  and  C_2 
REMARK    3  A    between atoms: C_4  and  N_5 
REMARK    4  A    between atoms: C_6  and  C_4 
REMARK    5  A    between atoms: C_7  and  C_6 
REMARK    6  A    between atoms: O_13  and  C_12 
ROOT
HETATM    1  C   UNK N   1      29.123  17.151   7.353  0.00  0.00     0.074 C 
ENDROOT
BRANCH   1   2
HETATM    2  C   UNK N   1      28.202  18.316   7.741  0.00  0.00     0.177 C 
BRANCH   2   3
HETATM    3  C   UNK N   1      27.830  19.337   6.715  0.00  0.00     0.163 C 
HETATM    4  O   UNK N   1      27.200  20.325   7.037  0.00  0.00    -0.648 OA
BRANCH   3   5
HETATM    5  O   UNK N   1      28.193  19.162   5.428  0.00  0.00    -0.775 OA
HETATM    6  H   UNK N   1      28.453  19.899   4.910  0.00  0.00     0.167 HD
ENDBRANCH   3   5
ENDBRANCH   2   3
BRANCH   2   7
HETATM    7  N   UNK N   1      27.669  18.471   9.085  0.00  0.00    -0.417 N 
HETATM    8  H   UNK N   1      27.216  19.344   9.357  0.00  0.00     0.150 HD
HETATM    9  H   UNK N   1      27.749  17.707   9.756  0.00  0.00     0.150 HD
ENDBRANCH   2   7
ENDBRANCH   1   2
BRANCH   1  10
HETATM   10  C   UNK N   1      30.605  17.357   7.267  0.00  0.00    -0.056 A 
HETATM   11  C   UNK N   1      31.383  17.768   8.357  0.00  0.00     0.010 A 
HETATM   12  C   UNK N   1      32.762  17.943   8.215  0.00  0.00     0.037 A 
HETATM   13  C   UNK N   1      33.370  17.705   6.979  0.00  0.00     0.065 A 
HETATM   14  C   UNK N   1      32.600  17.295   5.889  0.00  0.00     0.037 A 
HETATM   15  C   UNK N   1      31.222  17.122   6.034  0.00  0.00     0.010 A 
BRANCH  13  16
HETATM   16  O   UNK N   1      34.693  17.872   6.840  0.00  0.00    -0.361 OA
HETATM   17  H   UNK N   1      35.172  17.337   6.238  0.00  0.00     0.217 HD
ENDBRANCH  13  16
ENDBRANCH   1  10
TORSDOF 6
ENDMDL
MODEL 5
REMARK VINA RESULT:      -5.0      7.973      9.694
REMARK  6 active torsions:
REMARK  status: ('A' for Active; 'I' for Inactive)
REMARK    1  A    between atoms: O_3  and  C_2 
REMARK    2  A    between atoms: C_4  and  C_2 
REMARK    3  A    between atoms: C_4  and  N_5 
REMARK    4  A    between atoms: C_6  and  C_4 
REMARK    5  A    between atoms: C_7  and  C_6 
REMARK    6  A    between atoms: O_13  and  C_12 
ROOT
HETATM    1  C   UNK N   1      36.584  12.761  14.176  0.00  0.00     0.074 C 
ENDROOT
BRANCH   1   2
HETATM    2  C   UNK N   1      36.629  13.372  12.769  0.00  0.00     0.177 C 
BRANCH   2   3
HETATM    3  C   UNK N   1      35.459  14.153  12.265  0.00  0.00     0.163 C 
HETATM    4  O   UNK N   1      35.612  15.286  11.855  0.00  0.00    -0.648 OA
BRANCH   3   5
HETATM    5  O   UNK N   1      34.229  13.599  12.265  0.00  0.00    -0.775 OA
HETATM    6  H   UNK N   1      34.118  12.703  12.515  0.00  0.00     0.167 HD
ENDBRANCH   3   5
ENDBRANCH   2   3
BRANCH   2   7
HETATM    7  N   UNK N   1      37.780  13.222  11.893  0.00  0.00    -0.417 N 
HETATM    8  H   UNK N   1      37.969  12.322  11.450  0.00  0.00     0.150 HD
HETATM    9  H   UNK N   1      38.397  14.015  11.721  0.00  0.00     0.150 HD
ENDBRANCH   2   7
ENDBRANCH   1   2
BRANCH   1  10
HETATM   10  C   UNK N   1      36.444  13.645  15.379  0.00  0.00    -0.056 A 
HETATM   11  C   UNK N   1      35.580  13.355  16.444  0.00  0.00     0.010 A 
HETATM   12  C   UNK N   1      35.493  14.219  17.538  0.00  0.00     0.037 A 
HETATM   13  C   UNK N   1      36.272  15.379  17.572  0.00  0.00     0.065 A 
HETATM   14  C   UNK N   1      37.134  15.674  16.515  0.00  0.00     0.037 A 
HETATM   15  C   UNK N   1      37.219  14.809  15.422  0.00  0.00     0.010 A 
BRANCH  13  16
HETATM   16  O   UNK N   1      36.190  16.209  18.622  0.00  0.00    -0.361 OA
HETATM   17  H   UNK N   1      35.368  16.598  18.849  0.00  0.00     0.217 HD
ENDBRANCH  13  16
ENDBRANCH   1  10
TORSDOF 6
ENDMDL
MODEL 6
REMARK VINA RESULT:      -4.9     15.926     17.142
REMARK  6 active torsions:
REMARK  status: ('A' for Active; 'I' for Inactive)
REMARK    1  A    between atoms: O_3  and  C_2 
REMARK    2  A    between atoms: C_4  and  C_2 
REMARK    3  A    between atoms: C_4  and  N_5 
REMARK    4  A    between atoms: C_6  and  C_4 
REMARK    5  A    between atoms: C_7  and  C_6 
REMARK    6  A    between atoms: O_13  and  C_12 
ROOT
HETATM    1  C   UNK N   1      25.916  23.698  -5.672  0.00  0.00     0.074 C 
ENDROOT
BRANCH   1   2
HETATM    2  C   UNK N   1      26.340  23.485  -7.132  0.00  0.00     0.177 C 
BRANCH   2   3
HETATM    3  C   UNK N   1      25.481  22.663  -8.037  0.00  0.00     0.163 C 
HETATM    4  O   UNK N   1      24.413  23.095  -8.424  0.00  0.00    -0.648 OA
BRANCH   3   5
HETATM    5  O   UNK N   1      25.891  21.438  -8.427  0.00  0.00    -0.775 OA
HETATM    6  H   UNK N   1      26.780  21.303  -8.690  0.00  0.00     0.167 HD
ENDBRANCH   3   5
ENDBRANCH   2   3
BRANCH   2   7
HETATM    7  N   UNK N   1      27.559  24.057  -7.679  0.00  0.00    -0.417 N 
HETATM    8  H   UNK N   1      28.451  23.904  -7.207  0.00  0.00     0.150 HD
HETATM    9  H   UNK N   1      27.524  24.611  -8.534  0.00  0.00     0.150 HD
ENDBRANCH   2   7
ENDBRANCH   1   2
BRANCH   1  10
HETATM   10  C   UNK N   1      25.823  25.084  -5.108  0.00  0.00    -0.056 A 
HETATM   11  C   UNK N   1      25.158  26.131  -5.761  0.00  0.00     0.010 A 
HETATM   12  C   UNK N   1      25.106  27.403  -5.184  0.00  0.00     0.037 A 
HETATM   13  C   UNK N   1      25.719  27.632  -3.949  0.00  0.00     0.065 A 
HETATM   14  C   UNK N   1      26.383  26.593  -3.294  0.00  0.00     0.037 A 
HETATM   15  C   UNK N   1      26.434  25.324  -3.873  0.00  0.00     0.010 A 
BRANCH  13  16
HETATM   16  O   UNK N   1      25.670  28.852  -3.394  0.00  0.00    -0.361 OA
HETATM   17  H   UNK N   1      25.906  29.606  -3.898  0.00  0.00     0.217 HD
ENDBRANCH  13  16
ENDBRANCH   1  10
TORSDOF 6
ENDMDL
MODEL 7
REMARK VINA RESULT:      -4.8     13.184     14.648
REMARK  6 active torsions:
REMARK  status: ('A' for Active; 'I' for Inactive)
REMARK    1  A    between atoms: O_3  and  C_2 
REMARK    2  A    between atoms: C_4  and  C_2 
REMARK    3  A    between atoms: C_4  and  N_5 
REMARK    4  A    between atoms: C_6  and  C_4 
REMARK    5  A    between atoms: C_7  and  C_6 
REMARK    6  A    between atoms: O_13  and  C_12 
ROOT
HETATM    1  C   UNK N   1      28.489  23.212  -5.558  0.00  0.00     0.074 C 
ENDROOT
BRANCH   1   2
HETATM    2  C   UNK N   1      27.656  24.453  -5.212  0.00  0.00     0.177 C 
BRANCH   2   3
HETATM    3  C   UNK N   1      26.314  24.288  -4.575  0.00  0.00     0.163 C 
HETATM    4  O   UNK N   1      26.225  24.142  -3.372  0.00  0.00    -0.648 OA
BRANCH   3   5
HETATM    5  O   UNK N   1      25.200  24.302  -5.335  0.00  0.00    -0.775 OA
HETATM    6  H   UNK N   1      24.384  24.577  -4.966  0.00  0.00     0.167 HD
ENDBRANCH   3   5
ENDBRANCH   2   3
BRANCH   2   7
HETATM    7  N   UNK N   1      28.123  25.804  -5.483  0.00  0.00    -0.417 N 
HETATM    8  H   UNK N   1      28.208  26.477  -4.721  0.00  0.00     0.150 HD
HETATM    9  H   UNK N   1      28.365  26.078  -6.435  0.00  0.00     0.150 HD
ENDBRANCH   2   7
ENDBRANCH   1   2
BRANCH   1  10
HETATM   10  C   UNK N   1      29.546  22.725  -4.613  0.00  0.00    -0.056 A 
HETATM   11  C   UNK N   1      29.867  23.387  -3.420  0.00  0.00     0.010 A 
HETATM   12  C   UNK N   1      30.863  22.883  -2.579  0.00  0.00     0.037 A 
HETATM   13  C   UNK N   1      31.542  21.713  -2.929  0.00  0.00     0.065 A 
HETATM   14  C   UNK N   1      31.227  21.049  -4.116  0.00  0.00     0.037 A 
HETATM   15  C   UNK N   1      30.231  21.555  -4.954  0.00  0.00     0.010 A 
BRANCH  13  16
HETATM   16  O   UNK N   1      32.499  21.228  -2.123  0.00  0.00    -0.361 OA
HETATM   17  H   UNK N   1      33.250  21.750  -1.921  0.00  0.00     0.217 HD
ENDBRANCH  13  16
ENDBRANCH   1  10
TORSDOF 6
ENDMDL
MODEL 8
REMARK VINA RESULT:      -4.8      2.999      3.781
REMARK  6 active torsions:
REMARK  status: ('A' for Active; 'I' for Inactive)
REMARK    1  A    between atoms: O_3  and  C_2 
REMARK    2  A    between atoms: C_4  and  C_2 
REMARK    3  A    between atoms: C_4  and  N_5 
REMARK    4  A    between atoms: C_6  and  C_4 
REMARK    5  A    between atoms: C_7  and  C_6 
REMARK    6  A    between atoms: O_13  and  C_12 
ROOT
HETATM    1  C   UNK N   1      33.958  17.731   7.693  0.00  0.00     0.074 C 
ENDROOT
BRANCH   1   2
HETATM    2  C   UNK N   1      34.503  16.515   8.455  0.00  0.00     0.177 C 
BRANCH   2   3
HETATM    3  C   UNK N   1      34.804  16.633   9.914  0.00  0.00     0.163 C 
HETATM    4  O   UNK N   1      35.599  17.462  10.309  0.00  0.00    -0.648 OA
BRANCH   3   5
HETATM    5  O   UNK N   1      34.191  15.817  10.796  0.00  0.00    -0.775 OA
HETATM    6  H   UNK N   1      33.396  16.087  11.211  0.00  0.00     0.167 HD
ENDBRANCH   3   5
ENDBRANCH   2   3
BRANCH   2   7
HETATM    7  N   UNK N   1      34.744  15.235   7.808  0.00  0.00    -0.417 N 
HETATM    8  H   UNK N   1      35.681  14.831   7.809  0.00  0.00     0.150 HD
HETATM    9  H   UNK N   1      33.976  14.742   7.353  0.00  0.00     0.150 HD
ENDBRANCH   2   7
ENDBRANCH   1   2
BRANCH   1  10
HETATM   10  C   UNK N   1      33.033  17.539   6.528  0.00  0.00    -0.056 A 
HETATM   11  C   UNK N   1      33.464  17.578   5.196  0.00  0.00     0.010 A 
HETATM   12  C   UNK N   1      32.553  17.392   4.153  0.00  0.00     0.037 A 
HETATM   13  C   UNK N   1      31.205  17.165   4.440  0.00  0.00     0.065 A 
HETATM   14  C   UNK N   1      30.768  17.124   5.766  0.00  0.00     0.037 A 
HETATM   15  C   UNK N   1      31.681  17.310   6.806  0.00  0.00     0.010 A 
BRANCH  13  16
HETATM   16  O   UNK N   1      30.329  16.985   3.440  0.00  0.00    -0.361 OA
HETATM   17  H   UNK N   1      30.392  16.228   2.892  0.00  0.00     0.217 HD
ENDBRANCH  13  16
ENDBRANCH   1  10
TORSDOF 6
ENDMDL
MODEL 9
REMARK VINA RESULT:      -4.7      3.152      5.827
REMARK  6 active torsions:
REMARK  status: ('A' for Active; 'I' for Inactive)
REMARK    1  A    between atoms: O_3  and  C_2 
REMARK    2  A    between atoms: C_4  and  C_2 
REMARK    3  A    between atoms: C_4  and  N_5 
REMARK    4  A    between atoms: C_6  and  C_4 
REMARK    5  A    between atoms: C_7  and  C_6 
REMARK    6  A    between atoms: O_13  and  C_12 
ROOT
HETATM    1  C   UNK N   1      27.767  18.310   6.307  0.00  0.00     0.074 C 
ENDROOT
BRANCH   1   2
HETATM    2  C   UNK N   1      27.562  19.658   5.602  0.00  0.00     0.177 C 
BRANCH   2   3
HETATM    3  C   UNK N   1      26.993  20.811   6.364  0.00  0.00     0.163 C 
HETATM    4  O   UNK N   1      27.277  21.950   6.051  0.00  0.00    -0.648 OA
BRANCH   3   5
HETATM    5  O   UNK N   1      26.162  20.587   7.404  0.00  0.00    -0.775 OA
HETATM    6  H   UNK N   1      26.510  20.477   8.266  0.00  0.00     0.167 HD
ENDBRANCH   3   5
ENDBRANCH   2   3
BRANCH   2   7
HETATM    7  N   UNK N   1      27.903  19.864   4.204  0.00  0.00    -0.417 N 
HETATM    8  H   UNK N   1      27.374  20.532   3.643  0.00  0.00     0.150 HD
HETATM    9  H   UNK N   1      28.672  19.341   3.784  0.00  0.00     0.150 HD
ENDBRANCH   2   7
ENDBRANCH   1   2
BRANCH   1  10
HETATM   10  C   UNK N   1      29.007  18.059   7.111  0.00  0.00    -0.056 A 
HETATM   11  C   UNK N   1      29.214  18.604   8.386  0.00  0.00     0.010 A 
HETATM   12  C   UNK N   1      30.392  18.333   9.086  0.00  0.00     0.037 A 
HETATM   13  C   UNK N   1      31.369  17.515   8.514  0.00  0.00     0.065 A 
HETATM   14  C   UNK N   1      31.169  16.969   7.245  0.00  0.00     0.037 A 
HETATM   15  C   UNK N   1      29.991  17.241   6.547  0.00  0.00     0.010 A 
BRANCH  13  16
HETATM   16  O   UNK N   1      32.501  17.254   9.185  0.00  0.00    -0.361 OA
HETATM   17  H   UNK N   1      32.461  16.964  10.075  0.00  0.00     0.217 HD
ENDBRANCH  13  16
ENDBRANCH   1  10
TORSDOF 6
ENDMDL
