MODEL 1
REMARK VINA RESULT:      -4.5      0.000      0.000
REMARK  8 active torsions:
REMARK  status: ('A' for Active; 'I' for Inactive)
REMARK    1  A    between atoms: C_5  and  C_4 
REMARK    2  A    between atoms: C_6  and  C_4 
REMARK    3  A    between atoms: C_7  and  C_5 
REMARK    4  A    between atoms: C_8  and  C_6 
REMARK    5  A    between atoms: N_11  and  C_7 
REMARK    6  A    between atoms: C_9  and  C_8 
REMARK    7  A    between atoms: C_8  and  N_10 
REMARK    8  A    between atoms: O_13  and  C_9 
ROOT
HETATM    1  C   UNK N   1      32.321  17.380   8.803  0.00  0.00     0.035 C 
ENDROOT
BRANCH   1   2
HETATM    2  C   UNK N   1      31.552  16.172   8.301  0.00  0.00     0.004 C 
BRANCH   2   3
HETATM    3  C   UNK N   1      30.516  16.572   7.276  0.00  0.00     0.028 C 
BRANCH   3   4
HETATM    4  C   UNK N   1      29.991  17.953   7.661  0.00  0.00     0.236 C 
BRANCH   4   5
HETATM    5  N   UNK N   1      28.535  17.994   7.821  0.00  0.00    -0.079 N 
HETATM    6  C   UNK N   1      27.961  16.938   7.007  0.00  0.00     0.271 C 
HETATM    7  C   UNK N   1      27.964  19.260   7.381  0.00  0.00     0.271 C 
HETATM    8  C   UNK N   1      28.175  17.751   9.208  0.00  0.00     0.271 C 
ENDBRANCH   4   5
ENDBRANCH   3   4
ENDBRANCH   2   3
ENDBRANCH   1   2
BRANCH   1   9
HETATM    9  C   UNK N   1      33.818  17.116   8.707  0.00  0.00     0.173 C 
BRANCH   9  10
HETATM   10  C   UNK N   1      34.471  18.163   7.847  0.00  0.00     0.163 C 
HETATM   11  O   UNK N   1      35.089  19.087   8.349  0.00  0.00    -0.648 OA
BRANCH  10  12
HETATM   12  O   UNK N   1      34.394  18.065   6.506  0.00  0.00    -0.775 OA
HETATM   13  H   UNK N   1      35.140  18.187   5.952  0.00  0.00     0.167 HD
ENDBRANCH  10  12
ENDBRANCH   9  10
BRANCH   9  14
HETATM   14  N   UNK N   1      34.392  17.111  10.046  0.00  0.00    -0.418 N 
HETATM   15  H   UNK N   1      35.387  17.272  10.201  0.00  0.00     0.150 HD
HETATM   16  H   UNK N   1      33.784  16.943  10.847  0.00  0.00     0.150 HD
ENDBRANCH   9  14
ENDBRANCH   1   9
TORSDOF 8
ENDMDL
MODEL 2
REMARK VINA RESULT:      -4.4     10.150     10.845
REMARK  8 active torsions:
REMARK  status: ('A' for Active; 'I' for Inactive)
REMARK    1  A    between atoms: C_5  and  C_4 
REMARK    2  A    between atoms: C_6  and  C_4 
REMARK    3  A    between atoms: C_7  and  C_5 
REMARK    4  A    between atoms: C_8  and  C_6 
REMARK    5  A    between atoms: N_11  and  C_7 
REMARK    6  A    between atoms: C_9  and  C_8 
REMARK    7  A    between atoms: C_8  and  N_10 
REMARK    8  A    between atoms: O_13  and  C_9 
ROOT
HETATM    1  C   UNK N   1      22.727  13.053  10.071  0.00  0.00     0.035 C 
ENDROOT
BRANCH   1   2
HETATM    2  C   UNK N   1      21.319  13.590   9.901  0.00  0.00     0.004 C 
BRANCH   2   3
HETATM    3  C   UNK N   1      20.968  13.750   8.440  0.00  0.00     0.028 C 
BRANCH   3   4
HETATM    4  C   UNK N   1      21.760  14.938   7.899  0.00  0.00     0.236 C 
BRANCH   4   5
HETATM    5  N   UNK N   1      20.915  15.958   7.272  0.00  0.00    -0.079 N 
HETATM    6  C   UNK N   1      21.770  16.835   6.493  0.00  0.00     0.271 C 
HETATM    7  C   UNK N   1      20.209  16.773   8.251  0.00  0.00     0.271 C 
HETATM    8  C   UNK N   1      19.958  15.334   6.374  0.00  0.00     0.271 C 
ENDBRANCH   4   5
ENDBRANCH   3   4
ENDBRANCH   2   3
ENDBRANCH   1   2
BRANCH   1   9
HETATM    9  C   UNK N   1      22.723  11.900  11.066  0.00  0.00     0.173 C 
BRANCH   9  10
HETATM   10  C   UNK N   1      23.823  12.087  12.075  0.00  0.00     0.163 C 
HETATM   11  O   UNK N   1      23.597  11.997  13.271  0.00  0.00    -0.648 OA
BRANCH  10  12
HETATM   12  O   UNK N   1      25.079  12.331  11.652  0.00  0.00    -0.775 OA
HETATM   13  H   UNK N   1      25.574  11.701  11.166  0.00  0.00     0.167 HD
ENDBRANCH  10  12
ENDBRANCH   9  10
BRANCH   9  14
HETATM   14  N   UNK N   1      21.424  11.835  11.722  0.00  0.00    -0.418 N 
HETATM   15  H   UNK N   1      21.121  11.002  12.227  0.00  0.00     0.150 HD
HETATM   16  H   UNK N   1      20.801  12.642  11.674  0.00  0.00     0.150 HD
ENDBRANCH   9  14
ENDBRANCH   1   9
TORSDOF 8
ENDMDL
MODEL 3
REMARK VINA RESULT:      -4.4      3.846      6.778
REMARK  8 active torsions:
REMARK  status: ('A' for Active; 'I' for Inactive)
REMARK    1  A    between atoms: C_5  and  C_4 
REMARK    2  A    between atoms: C_6  and  C_4 
REMARK    3  A    between atoms: C_7  and  C_5 
REMARK    4  A    between atoms: C_8  and  C_6 
REMARK    5  A    between atoms: N_11  and  C_7 
REMARK    6  A    between atoms: C_9  and  C_8 
REMARK    7  A    between atoms: C_8  and  N_10 
REMARK    8  A    between atoms: O_13  and  C_9 
ROOT
HETATM    1  C   UNK N   1      34.610  15.915   8.834  0.00  0.00     0.035 C 
ENDROOT
BRANCH   1   2
HETATM    2  C   UNK N   1      35.609  15.585   9.927  0.00  0.00     0.004 C 
BRANCH   2   3
HETATM    3  C   UNK N   1      34.907  15.156  11.195  0.00  0.00     0.028 C 
BRANCH   3   4
HETATM    4  C   UNK N   1      35.969  14.980  12.277  0.00  0.00     0.236 C 
BRANCH   4   5
HETATM    5  N   UNK N   1      36.148  13.586  12.690  0.00  0.00    -0.079 N 
HETATM    6  C   UNK N   1      36.467  13.571  14.106  0.00  0.00     0.271 C 
HETATM    7  C   UNK N   1      37.238  12.931  11.978  0.00  0.00     0.271 C 
HETATM    8  C   UNK N   1      34.917  12.840  12.490  0.00  0.00     0.271 C 
ENDBRANCH   4   5
ENDBRANCH   3   4
ENDBRANCH   2   3
ENDBRANCH   1   2
BRANCH   1   9
HETATM    9  C   UNK N   1      34.014  17.295   9.079  0.00  0.00     0.173 C 
BRANCH   9  10
HETATM   10  C   UNK N   1      34.609  18.290   8.121  0.00  0.00     0.163 C 
HETATM   11  O   UNK N   1      35.279  19.226   8.528  0.00  0.00    -0.648 OA
BRANCH  10  12
HETATM   12  O   UNK N   1      34.422  18.132   6.796  0.00  0.00    -0.775 OA
HETATM   13  H   UNK N   1      34.529  17.304   6.372  0.00  0.00     0.167 HD
ENDBRANCH  10  12
ENDBRANCH   9  10
BRANCH   9  14
HETATM   14  N   UNK N   1      32.567  17.228   8.926  0.00  0.00    -0.418 N 
HETATM   15  H   UNK N   1      32.087  17.712   8.167  0.00  0.00     0.150 HD
HETATM   16  H   UNK N   1      32.021  16.683   9.594  0.00  0.00     0.150 HD
ENDBRANCH   9  14
ENDBRANCH   1   9
TORSDOF 8
ENDMDL
MODEL 4
REMARK VINA RESULT:      -4.3      2.546      3.466
REMARK  8 active torsions:
REMARK  status: ('A' for Active; 'I' for Inactive)
REMARK    1  A    between atoms: C_5  and  C_4 
REMARK    2  A    between atoms: C_6  and  C_4 
REMARK    3  A    between atoms: C_7  and  C_5 
REMARK    4  A    between atoms: C_8  and  C_6 
REMARK    5  A    between atoms: N_11  and  C_7 
REMARK    6  A    between atoms: C_9  and  C_8 
REMARK    7  A    between atoms: C_8  and  N_10 
REMARK    8  A    between atoms: O_13  and  C_9 
ROOT
HETATM    1  C   UNK N   1      32.549  17.016   8.795  0.00  0.00     0.035 C 
ENDROOT
BRANCH   1   2
HETATM    2  C   UNK N   1      32.030  15.802   8.048  0.00  0.00     0.004 C 
BRANCH   2   3
HETATM    3  C   UNK N   1      31.325  16.206   6.773  0.00  0.00     0.028 C 
BRANCH   3   4
HETATM    4  C   UNK N   1      32.173  15.721   5.600  0.00  0.00     0.236 C 
BRANCH   4   5
HETATM    5  N   UNK N   1      31.703  16.216   4.304  0.00  0.00    -0.079 N 
HETATM    6  C   UNK N   1      30.253  16.160   4.298  0.00  0.00     0.271 C 
HETATM    7  C   UNK N   1      32.188  15.408   3.192  0.00  0.00     0.271 C 
HETATM    8  C   UNK N   1      32.110  17.598   4.116  0.00  0.00     0.271 C 
ENDBRANCH   4   5
ENDBRANCH   3   4
ENDBRANCH   2   3
ENDBRANCH   1   2
BRANCH   1   9
HETATM    9  C   UNK N   1      34.072  17.015   8.786  0.00  0.00     0.173 C 
BRANCH   9  10
HETATM   10  C   UNK N   1      34.582  18.156   7.949  0.00  0.00     0.163 C 
HETATM   11  O   UNK N   1      34.369  18.193   6.747  0.00  0.00    -0.648 OA
BRANCH  10  12
HETATM   12  O   UNK N   1      35.260  19.161   8.536  0.00  0.00    -0.775 OA
HETATM   13  H   UNK N   1      34.866  19.724   9.173  0.00  0.00     0.167 HD
ENDBRANCH  10  12
ENDBRANCH   9  10
BRANCH   9  14
HETATM   14  N   UNK N   1      34.562  17.116  10.155  0.00  0.00    -0.418 N 
HETATM   15  H   UNK N   1      35.517  16.860  10.401  0.00  0.00     0.150 HD
HETATM   16  H   UNK N   1      33.932  17.452  10.884  0.00  0.00     0.150 HD
ENDBRANCH   9  14
ENDBRANCH   1   9
TORSDOF 8
ENDMDL
MODEL 5
REMARK VINA RESULT:      -4.2      1.554      2.216
REMARK  8 active torsions:
REMARK  status: ('A' for Active; 'I' for Inactive)
REMARK    1  A    between atoms: C_5  and  C_4 
REMARK    2  A    between atoms: C_6  and  C_4 
REMARK    3  A    between atoms: C_7  and  C_5 
REMARK    4  A    between atoms: C_8  and  C_6 
REMARK    5  A    between atoms: N_11  and  C_7 
REMARK    6  A    between atoms: C_9  and  C_8 
REMARK    7  A    between atoms: C_8  and  N_10 
REMARK    8  A    between atoms: O_13  and  C_9 
ROOT
HETATM    1  C   UNK N   1      33.086  16.385   8.758  0.00  0.00     0.035 C 
ENDROOT
BRANCH   1   2
HETATM    2  C   UNK N   1      33.091  15.081   7.983  0.00  0.00     0.004 C 
BRANCH   2   3
HETATM    3  C   UNK N   1      31.857  14.956   7.119  0.00  0.00     0.028 C 
BRANCH   3   4
HETATM    4  C   UNK N   1      31.188  16.327   7.063  0.00  0.00     0.236 C 
BRANCH   4   5
HETATM    5  N   UNK N   1      30.092  16.397   6.094  0.00  0.00    -0.079 N 
HETATM    6  C   UNK N   1      30.481  17.312   5.037  0.00  0.00     0.271 C 
HETATM    7  C   UNK N   1      28.857  16.894   6.687  0.00  0.00     0.271 C 
HETATM    8  C   UNK N   1      29.858  15.089   5.505  0.00  0.00     0.271 C 
ENDBRANCH   4   5
ENDBRANCH   3   4
ENDBRANCH   2   3
ENDBRANCH   1   2
BRANCH   1   9
HETATM    9  C   UNK N   1      34.506  16.929   8.862  0.00  0.00     0.173 C 
BRANCH   9  10
HETATM   10  C   UNK N   1      34.644  18.170   8.025  0.00  0.00     0.163 C 
HETATM   11  O   UNK N   1      35.105  19.196   8.499  0.00  0.00    -0.648 OA
BRANCH  10  12
HETATM   12  O   UNK N   1      34.277  18.143   6.729  0.00  0.00    -0.775 OA
HETATM   13  H   UNK N   1      33.763  17.447   6.370  0.00  0.00     0.167 HD
ENDBRANCH  10  12
ENDBRANCH   9  10
BRANCH   9  14
HETATM   14  N   UNK N   1      34.813  17.208  10.259  0.00  0.00    -0.418 N 
HETATM   15  H   UNK N   1      34.089  17.200  10.977  0.00  0.00     0.150 HD
HETATM   16  H   UNK N   1      35.776  17.415  10.524  0.00  0.00     0.150 HD
ENDBRANCH   9  14
ENDBRANCH   1   9
TORSDOF 8
ENDMDL
MODEL 6
REMARK VINA RESULT:      -4.2      6.022      8.393
REMARK  8 active torsions:
REMARK  status: ('A' for Active; 'I' for Inactive)
REMARK    1  A    between atoms: C_5  and  C_4 
REMARK    2  A    between atoms: C_6  and  C_4 
REMARK    3  A    between atoms: C_7  and  C_5 
REMARK    4  A    between atoms: C_8  and  C_6 
REMARK    5  A    between atoms: N_11  and  C_7 
REMARK    6  A    between atoms: C_9  and  C_8 
REMARK    7  A    between atoms: C_8  and  N_10 
REMARK    8  A    between atoms: O_13  and  C_9 
ROOT
HETATM    1  C   UNK N   1      35.320  13.813  10.730  0.00  0.00     0.035 C 
ENDROOT
BRANCH   1   2
HETATM    2  C   UNK N   1      35.349  12.806  11.864  0.00  0.00     0.004 C 
BRANCH   2   3
HETATM    3  C   UNK N   1      35.418  13.498  13.206  0.00  0.00     0.028 C 
BRANCH   3   4
HETATM    4  C   UNK N   1      35.011  12.485  14.273  0.00  0.00     0.236 C 
BRANCH   4   5
HETATM    5  N   UNK N   1      35.763  12.626  15.522  0.00  0.00    -0.079 N 
HETATM    6  C   UNK N   1      36.794  13.627  15.318  0.00  0.00     0.271 C 
HETATM    7  C   UNK N   1      36.414  11.385  15.921  0.00  0.00     0.271 C 
HETATM    8  C   UNK N   1      34.886  13.081  16.588  0.00  0.00     0.271 C 
ENDBRANCH   4   5
ENDBRANCH   3   4
ENDBRANCH   2   3
ENDBRANCH   1   2
BRANCH   1   9
HETATM    9  C   UNK N   1      34.587  15.072  11.177  0.00  0.00     0.173 C 
BRANCH   9  10
HETATM   10  C   UNK N   1      35.320  16.293  10.692  0.00  0.00     0.163 C 
HETATM   11  O   UNK N   1      36.536  16.363  10.769  0.00  0.00    -0.648 OA
BRANCH  10  12
HETATM   12  O   UNK N   1      34.628  17.310  10.144  0.00  0.00    -0.775 OA
HETATM   13  H   UNK N   1      34.070  17.865  10.652  0.00  0.00     0.167 HD
ENDBRANCH  10  12
ENDBRANCH   9  10
BRANCH   9  14
HETATM   14  N   UNK N   1      33.225  15.045  10.660  0.00  0.00    -0.418 N 
HETATM   15  H   UNK N   1      32.427  14.856  11.266  0.00  0.00     0.150 HD
HETATM   16  H   UNK N   1      33.066  15.219   9.667  0.00  0.00     0.150 HD
ENDBRANCH   9  14
ENDBRANCH   1   9
TORSDOF 8
ENDMDL
MODEL 7
REMARK VINA RESULT:      -4.2      2.055      2.583
REMARK  8 active torsions:
REMARK  status: ('A' for Active; 'I' for Inactive)
REMARK    1  A    between atoms: C_5  and  C_4 
REMARK    2  A    between atoms: C_6  and  C_4 
REMARK    3  A    between atoms: C_7  and  C_5 
REMARK    4  A    between atoms: C_8  and  C_6 
REMARK    5  A    between atoms: N_11  and  C_7 
REMARK    6  A    between atoms: C_9  and  C_8 
REMARK    7  A    between atoms: C_8  and  N_10 
REMARK    8  A    between atoms: O_13  and  C_9 
ROOT
HETATM    1  C   UNK N   1      33.967  15.788   8.667  0.00  0.00     0.035 C 
ENDROOT
BRANCH   1   2
HETATM    2  C   UNK N   1      32.471  15.882   8.898  0.00  0.00     0.004 C 
BRANCH   2   3
HETATM    3  C   UNK N   1      31.927  17.207   8.415  0.00  0.00     0.028 C 
BRANCH   3   4
HETATM    4  C   UNK N   1      30.468  16.993   8.019  0.00  0.00     0.236 C 
BRANCH   4   5
HETATM    5  N   UNK N   1      29.540  17.873   8.733  0.00  0.00    -0.079 N 
HETATM    6  C   UNK N   1      28.947  17.118   9.821  0.00  0.00     0.271 C 
HETATM    7  C   UNK N   1      28.461  18.353   7.879  0.00  0.00     0.271 C 
HETATM    8  C   UNK N   1      30.255  19.006   9.298  0.00  0.00     0.271 C 
ENDBRANCH   4   5
ENDBRANCH   3   4
ENDBRANCH   2   3
ENDBRANCH   1   2
BRANCH   1   9
HETATM    9  C   UNK N   1      34.662  15.354   9.951  0.00  0.00     0.173 C 
BRANCH   9  10
HETATM   10  C   UNK N   1      35.639  16.410  10.390  0.00  0.00     0.163 C 
HETATM   11  O   UNK N   1      35.366  17.595  10.287  0.00  0.00    -0.648 OA
BRANCH  10  12
HETATM   12  O   UNK N   1      36.819  16.043  10.927  0.00  0.00    -0.775 OA
HETATM   13  H   UNK N   1      36.923  15.886  11.845  0.00  0.00     0.167 HD
ENDBRANCH  10  12
ENDBRANCH   9  10
BRANCH   9  14
HETATM   14  N   UNK N   1      33.661  15.112  10.981  0.00  0.00    -0.418 N 
HETATM   15  H   UNK N   1      33.804  14.417  11.713  0.00  0.00     0.150 HD
HETATM   16  H   UNK N   1      32.795  15.653  10.970  0.00  0.00     0.150 HD
ENDBRANCH   9  14
ENDBRANCH   1   9
TORSDOF 8
ENDMDL
MODEL 8
REMARK VINA RESULT:      -4.1      2.320      3.017
REMARK  8 active torsions:
REMARK  status: ('A' for Active; 'I' for Inactive)
REMARK    1  A    between atoms: C_5  and  C_4 
REMARK    2  A    between atoms: C_6  and  C_4 
REMARK    3  A    between atoms: C_7  and  C_5 
REMARK    4  A    between atoms: C_8  and  C_6 
REMARK    5  A    between atoms: N_11  and  C_7 
REMARK    6  A    between atoms: C_9  and  C_8 
REMARK    7  A    between atoms: C_8  and  N_10 
REMARK    8  A    between atoms: O_13  and  C_9 
ROOT
HETATM    1  C   UNK N   1      34.055  15.707   8.654  0.00  0.00     0.035 C 
ENDROOT
BRANCH   1   2
HETATM    2  C   UNK N   1      32.554  15.824   8.840  0.00  0.00     0.004 C 
BRANCH   2   3
HETATM    3  C   UNK N   1      32.024  17.093   8.212  0.00  0.00     0.028 C 
BRANCH   3   4
HETATM    4  C   UNK N   1      32.058  16.910   6.697  0.00  0.00     0.236 C 
BRANCH   4   5
HETATM    5  N   UNK N   1      30.725  16.815   6.096  0.00  0.00    -0.079 N 
HETATM    6  C   UNK N   1      30.413  15.410   5.908  0.00  0.00     0.271 C 
HETATM    7  C   UNK N   1      30.653  17.470   4.796  0.00  0.00     0.271 C 
HETATM    8  C   UNK N   1      29.731  17.390   6.987  0.00  0.00     0.271 C 
ENDBRANCH   4   5
ENDBRANCH   3   4
ENDBRANCH   2   3
ENDBRANCH   1   2
BRANCH   1   9
HETATM    9  C   UNK N   1      34.710  15.324   9.975  0.00  0.00     0.173 C 
BRANCH   9  10
HETATM   10  C   UNK N   1      35.670  16.400  10.404  0.00  0.00     0.163 C 
HETATM   11  O   UNK N   1      35.391  17.580  10.260  0.00  0.00    -0.648 OA
BRANCH  10  12
HETATM   12  O   UNK N   1      36.840  16.059  10.978  0.00  0.00    -0.775 OA
HETATM   13  H   UNK N   1      36.924  15.929  11.901  0.00  0.00     0.167 HD
ENDBRANCH  10  12
ENDBRANCH   9  10
BRANCH   9  14
HETATM   14  N   UNK N   1      33.678  15.118  10.982  0.00  0.00    -0.418 N 
HETATM   15  H   UNK N   1      33.800  14.452  11.744  0.00  0.00     0.150 HD
HETATM   16  H   UNK N   1      32.811  15.654  10.923  0.00  0.00     0.150 HD
ENDBRANCH   9  14
ENDBRANCH   1   9
TORSDOF 8
ENDMDL
MODEL 9
REMARK VINA RESULT:      -4.0      3.139      5.902
REMARK  8 active torsions:
REMARK  status: ('A' for Active; 'I' for Inactive)
REMARK    1  A    between atoms: C_5  and  C_4 
REMARK    2  A    between atoms: C_6  and  C_4 
REMARK    3  A    between atoms: C_7  and  C_5 
REMARK    4  A    between atoms: C_8  and  C_6 
REMARK    5  A    between atoms: N_11  and  C_7 
REMARK    6  A    between atoms: C_9  and  C_8 
REMARK    7  A    between atoms: C_8  and  N_10 
REMARK    8  A    between atoms: O_13  and  C_9 
ROOT
HETATM    1  C   UNK N   1      29.427  17.637   6.919  0.00  0.00     0.035 C 
ENDROOT
BRANCH   1   2
HETATM    2  C   UNK N   1      30.634  16.787   7.267  0.00  0.00     0.004 C 
BRANCH   2   3
HETATM    3  C   UNK N   1      31.596  17.543   8.154  0.00  0.00     0.028 C 
BRANCH   3   4
HETATM    4  C   UNK N   1      32.611  16.541   8.699  0.00  0.00     0.236 C 
BRANCH   4   5
HETATM    5  N   UNK N   1      34.000  16.926   8.437  0.00  0.00    -0.079 N 
HETATM    6  C   UNK N   1      34.759  16.739   9.661  0.00  0.00     0.271 C 
HETATM    7  C   UNK N   1      34.124  18.323   8.041  0.00  0.00     0.271 C 
HETATM    8  C   UNK N   1      34.573  16.074   7.408  0.00  0.00     0.271 C 
ENDBRANCH   4   5
ENDBRANCH   3   4
ENDBRANCH   2   3
ENDBRANCH   1   2
BRANCH   1   9
HETATM    9  C   UNK N   1      28.168  17.012   7.508  0.00  0.00     0.173 C 
BRANCH   9  10
HETATM   10  C   UNK N   1      27.890  17.598   8.865  0.00  0.00     0.163 C 
HETATM   11  O   UNK N   1      27.976  16.912   9.871  0.00  0.00    -0.648 OA
BRANCH  10  12
HETATM   12  O   UNK N   1      27.567  18.901   8.974  0.00  0.00    -0.775 OA
HETATM   13  H   UNK N   1      26.994  19.220   9.642  0.00  0.00     0.167 HD
ENDBRANCH  10  12
ENDBRANCH   9  10
BRANCH   9  14
HETATM   14  N   UNK N   1      27.049  17.241   6.604  0.00  0.00    -0.418 N 
HETATM   15  H   UNK N   1      26.107  16.923   6.829  0.00  0.00     0.150 HD
HETATM   16  H   UNK N   1      27.213  17.731   5.724  0.00  0.00     0.150 HD
ENDBRANCH   9  14
ENDBRANCH   1   9
TORSDOF 8
ENDMDL
