REMARK WARNING: 32 MAX_TORS EXCEEDED!!!
REMARK  42 active torsions:
REMARK  status: ('A' for Active; 'I' for Inactive)
REMARK    1  A    between atoms: C_5  and  C_3 
REMARK    2  A    between atoms: C_6  and  C_4 
REMARK    3  A    between atoms: C_7  and  C_5 
REMARK    4  A    between atoms: C_8  and  C_6 
REMARK    5  A    between atoms: C_9  and  C_7 
REMARK    6  A    between atoms: C_21  and  C_8 
REMARK    7  A    between atoms: C_10  and  C_9 
REMARK    8  A    between atoms: C_11  and  C_10 
REMARK    9  A    between atoms: C_12  and  C_11 
REMARK   10  A    between atoms: C_13  and  C_12 
REMARK   11  A    between atoms: C_14  and  C_13 
REMARK   12  A    between atoms: C_15  and  C_14 
REMARK   13  A    between atoms: C_16  and  C_15 
REMARK   14  A    between atoms: C_19  and  C_16 
REMARK   15  A    between atoms: C_18  and  C_17 
REMARK   16  A    between atoms: C_20  and  C_17 
REMARK   17  A    between atoms: C_22  and  C_18 
REMARK   18  A    between atoms: C_23  and  C_19 
REMARK   19  A    between atoms: C_24  and  C_20 
REMARK   20  A    between atoms: C_25  and  C_21 
REMARK   21  A    between atoms: C_26  and  C_22 
REMARK   22  A    between atoms: C_27  and  C_23 
REMARK   23  A    between atoms: C_28  and  C_24 
REMARK   24  A    between atoms: C_34  and  C_25 
REMARK   25  A    between atoms: C_35  and  C_26 
REMARK   26  A    between atoms: C_38  and  C_27 
REMARK   27  A    between atoms: C_39  and  C_28 
REMARK   28  A    between atoms: C_36  and  C_30 
REMARK   29  A    between atoms: O_40  and  C_30 
REMARK   30  A    between atoms: C_36  and  C_31 
REMARK   31  A    between atoms: O_47  and  C_31 
REMARK   32  A    between atoms: C_37  and  C_32 
REMARK   33  A    between atoms: O_46  and  C_32 
REMARK   34  A    between atoms: C_37  and  C_33 
REMARK   35  A    between atoms: O_48  and  C_33 
REMARK   36  A    between atoms: O_41  and  C_36 
REMARK   37  A    between atoms: C_37  and  O_49 
REMARK   38  A    between atoms: O_46  and  C_38 
REMARK   39  A    between atoms: O_49  and  C_39 
REMARK   40  A    between atoms: P_50  and  O_44 
REMARK   41  A    between atoms: P_50  and  O_47 
REMARK   42  A    between atoms: P_50  and  O_48 
ROOT
HETATM    1  C   UNK N   1      -4.370  10.382   0.669  0.00  0.00     0.180 C 
ENDROOT
BRANCH   1   2
HETATM    2  C   UNK N   1      -5.474  11.209   1.333  0.00  0.00     0.213 C 
BRANCH   2   3
HETATM    3  O   UNK N   1      -6.027  12.148   0.475  0.00  0.00    -0.319 OA
BRANCH   3   4
HETATM    4  C   UNK N   1      -7.031  11.910  -0.410  0.00  0.00     0.258 C 
HETATM    5  O   UNK N   1      -7.469  12.836  -1.074  0.00  0.00    -0.265 OA
BRANCH   4   6
HETATM    6  C   UNK N   1      -7.605  10.543  -0.622  0.00  0.00     0.111 C 
BRANCH   6   7
HETATM    7  C   UNK N   1      -8.147   9.964   0.670  0.00  0.00     0.010 C 
BRANCH   7   8
HETATM    8  C   UNK N   1      -8.752   8.604   0.390  0.00  0.00     0.000 C 
BRANCH   8   9
HETATM    9  C   UNK N   1     -10.264   8.657   0.549  0.00  0.00     0.000 C 
BRANCH   9  10
HETATM   10  C   UNK N   1     -10.958   9.285  -0.660  0.00  0.00     0.000 C 
BRANCH  10  11
HETATM   11  C   UNK N   1     -10.691  10.783  -0.789  0.00  0.00     0.000 C 
BRANCH  11  12
HETATM   12  C   UNK N   1     -11.168  11.552   0.436  0.00  0.00     0.000 C 
BRANCH  12  13
HETATM   13  C   UNK N   1     -12.550  12.133   0.206  0.00  0.00     0.000 C 
BRANCH  13  14
HETATM   14  C   UNK N   1     -13.587  11.030   0.159  0.00  0.00     0.000 C 
BRANCH  14  15
HETATM   15  C   UNK N   1     -14.951  11.639  -0.054  0.00  0.00     0.000 C 
BRANCH  15  16
HETATM   16  C   UNK N   1     -15.981  10.534  -0.077  0.00  0.00     0.000 C 
BRANCH  16  17
HETATM   17  C   UNK N   1     -17.363  11.145  -0.070  0.00  0.00     0.000 C 
BRANCH  17  18
HETATM   18  C   UNK N   1     -18.394  10.041  -0.037  0.00  0.00    -0.000 C 
BRANCH  18  19
HETATM   19  C   UNK N   1     -19.777  10.651   0.026  0.00  0.00    -0.005 C 
HETATM   20  C   UNK N   1     -20.812   9.548   0.021  0.00  0.00     0.005 C 
ENDBRANCH  18  19
ENDBRANCH  17  18
ENDBRANCH  16  17
ENDBRANCH  15  16
ENDBRANCH  14  15
ENDBRANCH  13  14
ENDBRANCH  12  13
ENDBRANCH  11  12
ENDBRANCH  10  11
ENDBRANCH   9  10
ENDBRANCH   8   9
ENDBRANCH   7   8
ENDBRANCH   6   7
ENDBRANCH   4   6
ENDBRANCH   3   4
ENDBRANCH   2   3
ENDBRANCH   1   2
BRANCH   1  21
HETATM   21  C   UNK N   1      -5.026   9.287  -0.160  0.00  0.00     0.215 C 
BRANCH  21  22
HETATM   22  O   UNK N   1      -4.146   8.338  -0.708  0.00  0.00    -0.294 OA
BRANCH  22  23
HETATM   23  P   UNK N   1      -4.517   6.815   0.086  0.00  0.00     0.393 P 
HETATM   24  O   UNK N   1      -4.443   5.571  -0.841  0.00  0.00    -0.631 OA
BRANCH  23  25
HETATM   25  O   UNK N   1      -5.777   6.969  -1.108  0.00  0.00    -0.307 OA
HETATM   26  H   UNK N   1      -6.053   7.619  -1.773  0.00  0.00     0.222 HD
ENDBRANCH  23  25
BRANCH  23  27
HETATM   27  O   UNK N   1      -2.883   6.717  -0.501  0.00  0.00    -0.294 OA
BRANCH  27  28
HETATM   28  C   UNK N   1      -2.090   6.476   0.627  0.00  0.00     0.214 C 
BRANCH  28  29
HETATM   29  C   UNK N   1      -0.654   6.908   0.361  0.00  0.00     0.166 C 
BRANCH  29  30
HETATM   30  C   UNK N   1       0.010   6.026  -0.689  0.00  0.00     0.198 C 
BRANCH  30  31
HETATM   31  O   UNK N   1       0.156   4.721  -0.211  0.00  0.00    -0.398 OA
HETATM   32  H   UNK N   1      -0.578   4.181   0.120  0.00  0.00     0.209 HD
ENDBRANCH  30  31
ENDBRANCH  29  30
BRANCH  29  33
HETATM   33  O   UNK N   1      -0.647   8.229  -0.082  0.00  0.00    -0.391 OA
HETATM   34  H   UNK N   1       0.151   8.685  -0.390  0.00  0.00     0.210 HD
ENDBRANCH  29  33
ENDBRANCH  28  29
ENDBRANCH  27  28
ENDBRANCH  23  27
ENDBRANCH  22  23
ENDBRANCH  21  22
ENDBRANCH   1  21
BRANCH   1  35
HETATM   35  O   UNK N   1      -3.626  11.241  -0.119  0.00  0.00    -0.312 OA
BRANCH  35  36
HETATM   36  C   UNK N   1      -2.339  11.588   0.117  0.00  0.00     0.259 C 
HETATM   37  O   UNK N   1      -1.620  10.904   0.832  0.00  0.00    -0.265 OA
BRANCH  36  38
HETATM   38  C   UNK N   1      -1.855  12.905  -0.393  0.00  0.00     0.111 C 
BRANCH  38  39
HETATM   39  C   UNK N   1      -0.626  12.776  -1.265  0.00  0.00     0.010 C 
BRANCH  39  40
HETATM   40  C   UNK N   1       0.513  13.563  -0.638  0.00  0.00     0.000 C 
BRANCH  40  41
HETATM   41  C   UNK N   1       1.214  12.748   0.437  0.00  0.00     0.000 C 
BRANCH  41  42
HETATM   42  C   UNK N   1       2.146  11.730  -0.197  0.00  0.00     0.000 C 
BRANCH  42  43
HETATM   43  C   UNK N   1       1.385  10.459  -0.552  0.00  0.00     0.000 C 
BRANCH  43  44
HETATM   44  C   UNK N   1       2.325   9.323  -0.937  0.00  0.00     0.005 C 
BRANCH  44  45
HETATM   45  C   UNK N   1       3.330   9.082   0.175  0.00  0.00    -0.010 A 
HETATM   46  C   UNK N   1       4.302   7.956  -0.137  0.00  0.00     0.010 A 
HETATM   47  C   UNK N   1       4.757   9.395  -0.233  0.00  0.00    -0.010 A 
BRANCH  47  48
HETATM   48  C   UNK N   1       5.603   9.879   0.931  0.00  0.00     0.005 C 
BRANCH  48  49
HETATM   49  C   UNK N   1       5.379  11.369   1.141  0.00  0.00     0.000 C 
BRANCH  49  50
HETATM   50  C   UNK N   1       6.274  12.193   0.235  0.00  0.00     0.000 C 
BRANCH  50  51
HETATM   51  C   UNK N   1       5.837  13.643   0.303  0.00  0.00    -0.000 C 
BRANCH  51  52
HETATM   52  C   UNK N   1       6.958  14.547  -0.165  0.00  0.00    -0.005 C 
HETATM   53  C   UNK N   1       6.495  15.988  -0.113  0.00  0.00     0.005 C 
ENDBRANCH  51  52
ENDBRANCH  50  51
ENDBRANCH  49  50
ENDBRANCH  48  49
ENDBRANCH  47  48
ENDBRANCH  44  45
ENDBRANCH  43  44
ENDBRANCH  42  43
ENDBRANCH  41  42
ENDBRANCH  40  41
ENDBRANCH  39  40
ENDBRANCH  38  39
ENDBRANCH  36  38
ENDBRANCH  35  36
ENDBRANCH   1  35
TORSDOF 42
