MODEL 1
REMARK VINA RESULT:      -2.9      0.000      0.000
REMARK  3 active torsions:
REMARK  status: ('A' for Active; 'I' for Inactive)
REMARK    1  A    between atoms: N_1  and  C_2 
REMARK    2  A    between atoms: C_2  and  C_3 
REMARK    3  A    between atoms: C_3  and  O_4 
ROOT
HETATM    1  C   UNK N   1      17.098  27.062   8.741  0.00  0.00     0.137 C 
ENDROOT
BRANCH   1   2
HETATM    2  N   UNK N   1      17.068  26.764   7.322  0.00  0.00    -0.428 N 
HETATM    3  H   UNK N   1      16.703  25.869   6.997  0.00  0.00     0.149 HD
HETATM    4  H   UNK N   1      17.412  27.449   6.650  0.00  0.00     0.149 HD
ENDBRANCH   1   2
BRANCH   1   5
HETATM    5  C   UNK N   1      18.356  26.480   9.348  0.00  0.00     0.183 C 
BRANCH   5   6
HETATM    6  O   UNK N   1      18.039  25.850  10.549  0.00  0.00    -0.399 OA
HETATM    7  H   UNK N   1      17.365  26.231  11.134  0.00  0.00     0.209 HD
ENDBRANCH   5   6
ENDBRANCH   1   5
TORSDOF 3
ENDMDL
MODEL 2
REMARK VINA RESULT:      -2.8      9.746      9.828
REMARK  3 active torsions:
REMARK  status: ('A' for Active; 'I' for Inactive)
REMARK    1  A    between atoms: N_1  and  C_2 
REMARK    2  A    between atoms: C_2  and  C_3 
REMARK    3  A    between atoms: C_3  and  O_4 
ROOT
HETATM    1  C   UNK N   1      20.874  20.072   1.356  0.00  0.00     0.137 C 
ENDROOT
BRANCH   1   2
HETATM    2  N   UNK N   1      20.435  21.037   0.367  0.00  0.00    -0.428 N 
HETATM    3  H   UNK N   1      19.988  20.719  -0.492  0.00  0.00     0.149 HD
HETATM    4  H   UNK N   1      20.573  22.034   0.532  0.00  0.00     0.149 HD
ENDBRANCH   1   2
BRANCH   1   5
HETATM    5  C   UNK N   1      20.888  20.725   2.721  0.00  0.00     0.183 C 
BRANCH   5   6
HETATM    6  O   UNK N   1      21.885  21.697   2.758  0.00  0.00    -0.399 OA
HETATM    7  H   UNK N   1      21.821  22.434   3.386  0.00  0.00     0.209 HD
ENDBRANCH   5   6
ENDBRANCH   1   5
TORSDOF 3
ENDMDL
MODEL 3
REMARK VINA RESULT:      -2.7     10.590     10.676
REMARK  3 active torsions:
REMARK  status: ('A' for Active; 'I' for Inactive)
REMARK    1  A    between atoms: N_1  and  C_2 
REMARK    2  A    between atoms: C_2  and  C_3 
REMARK    3  A    between atoms: C_3  and  O_4 
ROOT
HETATM    1  C   UNK N   1      20.610  19.387   1.987  0.00  0.00     0.137 C 
ENDROOT
BRANCH   1   2
HETATM    2  N   UNK N   1      19.220  19.158   2.328  0.00  0.00    -0.428 N 
HETATM    3  H   UNK N   1      18.664  18.495   1.786  0.00  0.00     0.149 HD
HETATM    4  H   UNK N   1      18.797  19.659   3.109  0.00  0.00     0.149 HD
ENDBRANCH   1   2
BRANCH   1   5
HETATM    5  C   UNK N   1      20.740  20.724   1.290  0.00  0.00     0.183 C 
BRANCH   5   6
HETATM    6  O   UNK N   1      20.608  20.542  -0.084  0.00  0.00    -0.399 OA
HETATM    7  H   UNK N   1      21.364  20.706  -0.671  0.00  0.00     0.209 HD
ENDBRANCH   5   6
ENDBRANCH   1   5
TORSDOF 3
ENDMDL
MODEL 4
REMARK VINA RESULT:      -2.7     27.163     27.415
REMARK  3 active torsions:
REMARK  status: ('A' for Active; 'I' for Inactive)
REMARK    1  A    between atoms: N_1  and  C_2 
REMARK    2  A    between atoms: C_2  and  C_3 
REMARK    3  A    between atoms: C_3  and  O_4 
ROOT
HETATM    1  C   UNK N   1      44.320  21.718   4.078  0.00  0.00     0.137 C 
ENDROOT
BRANCH   1   2
HETATM    2  N   UNK N   1      45.641  22.304   4.198  0.00  0.00    -0.428 N 
HETATM    3  H   UNK N   1      45.741  23.298   4.405  0.00  0.00     0.149 HD
HETATM    4  H   UNK N   1      46.469  21.722   4.076  0.00  0.00     0.149 HD
ENDBRANCH   1   2
BRANCH   1   5
HETATM    5  C   UNK N   1      43.369  22.741   3.496  0.00  0.00     0.183 C 
BRANCH   5   6
HETATM    6  O   UNK N   1      43.544  23.958   4.149  0.00  0.00    -0.399 OA
HETATM    7  H   UNK N   1      44.035  23.993   4.986  0.00  0.00     0.209 HD
ENDBRANCH   5   6
ENDBRANCH   1   5
TORSDOF 3
ENDMDL
MODEL 5
REMARK VINA RESULT:      -2.7     19.119     19.257
REMARK  3 active torsions:
REMARK  status: ('A' for Active; 'I' for Inactive)
REMARK    1  A    between atoms: N_1  and  C_2 
REMARK    2  A    between atoms: C_2  and  C_3 
REMARK    3  A    between atoms: C_3  and  O_4 
ROOT
HETATM    1  C   UNK N   1      34.296  17.112   8.967  0.00  0.00     0.137 C 
ENDROOT
BRANCH   1   2
HETATM    2  N   UNK N   1      34.973  17.353  10.227  0.00  0.00    -0.428 N 
HETATM    3  H   UNK N   1      35.825  16.840  10.454  0.00  0.00     0.149 HD
HETATM    4  H   UNK N   1      34.597  18.035  10.885  0.00  0.00     0.149 HD
ENDBRANCH   1   2
BRANCH   1   5
HETATM    5  C   UNK N   1      34.349  18.366   8.122  0.00  0.00     0.183 C 
BRANCH   5   6
HETATM    6  O   UNK N   1      35.354  19.202   8.601  0.00  0.00    -0.399 OA
HETATM    7  H   UNK N   1      35.225  19.692   9.428  0.00  0.00     0.209 HD
ENDBRANCH   5   6
ENDBRANCH   1   5
TORSDOF 3
ENDMDL
MODEL 6
REMARK VINA RESULT:      -2.7     27.269     27.533
REMARK  3 active torsions:
REMARK  status: ('A' for Active; 'I' for Inactive)
REMARK    1  A    between atoms: N_1  and  C_2 
REMARK    2  A    between atoms: C_2  and  C_3 
REMARK    3  A    between atoms: C_3  and  O_4 
ROOT
HETATM    1  C   UNK N   1      43.530  22.601   3.512  0.00  0.00     0.137 C 
ENDROOT
BRANCH   1   2
HETATM    2  N   UNK N   1      43.614  23.898   4.155  0.00  0.00    -0.428 N 
HETATM    3  H   UNK N   1      43.430  24.745   3.619  0.00  0.00     0.149 HD
HETATM    4  H   UNK N   1      43.858  23.962   5.143  0.00  0.00     0.149 HD
ENDBRANCH   1   2
BRANCH   1   5
HETATM    5  C   UNK N   1      44.622  21.703   4.052  0.00  0.00     0.183 C 
BRANCH   5   6
HETATM    6  O   UNK N   1      45.798  22.436   4.188  0.00  0.00    -0.399 OA
HETATM    7  H   UNK N   1      45.868  23.117   4.876  0.00  0.00     0.209 HD
ENDBRANCH   5   6
ENDBRANCH   1   5
TORSDOF 3
ENDMDL
MODEL 7
REMARK VINA RESULT:      -2.6     15.872     15.916
REMARK  3 active torsions:
REMARK  status: ('A' for Active; 'I' for Inactive)
REMARK    1  A    between atoms: N_1  and  C_2 
REMARK    2  A    between atoms: C_2  and  C_3 
REMARK    3  A    between atoms: C_3  and  O_4 
ROOT
HETATM    1  C   UNK N   1      23.875  12.183  10.728  0.00  0.00     0.137 C 
ENDROOT
BRANCH   1   2
HETATM    2  N   UNK N   1      25.195  12.713  11.005  0.00  0.00    -0.428 N 
HETATM    3  H   UNK N   1      25.882  12.141  11.495  0.00  0.00     0.149 HD
HETATM    4  H   UNK N   1      25.437  13.659  10.708  0.00  0.00     0.149 HD
ENDBRANCH   1   2
BRANCH   1   5
HETATM    5  C   UNK N   1      23.159  11.915  12.035  0.00  0.00     0.183 C 
BRANCH   5   6
HETATM    6  O   UNK N   1      23.936  12.384  13.090  0.00  0.00    -0.399 OA
HETATM    7  H   UNK N   1      24.140  13.330  13.160  0.00  0.00     0.209 HD
ENDBRANCH   5   6
ENDBRANCH   1   5
TORSDOF 3
ENDMDL
MODEL 8
REMARK VINA RESULT:      -2.5     15.903     15.908
REMARK  3 active torsions:
REMARK  status: ('A' for Active; 'I' for Inactive)
REMARK    1  A    between atoms: N_1  and  C_2 
REMARK    2  A    between atoms: C_2  and  C_3 
REMARK    3  A    between atoms: C_3  and  O_4 
ROOT
HETATM    1  C   UNK N   1      23.076  11.930  12.180  0.00  0.00     0.137 C 
ENDROOT
BRANCH   1   2
HETATM    2  N   UNK N   1      21.726  11.811  11.663  0.00  0.00    -0.428 N 
HETATM    3  H   UNK N   1      21.008  12.473  11.956  0.00  0.00     0.149 HD
HETATM    4  H   UNK N   1      21.496  11.066  11.006  0.00  0.00     0.149 HD
ENDBRANCH   1   2
BRANCH   1   5
HETATM    5  C   UNK N   1      24.043  12.076  11.026  0.00  0.00     0.183 C 
BRANCH   5   6
HETATM    6  O   UNK N   1      25.252  12.581  11.498  0.00  0.00    -0.399 OA
HETATM    7  H   UNK N   1      25.416  12.631  12.453  0.00  0.00     0.209 HD
ENDBRANCH   5   6
ENDBRANCH   1   5
TORSDOF 3
ENDMDL
MODEL 9
REMARK VINA RESULT:      -2.4     20.720     20.761
REMARK  3 active torsions:
REMARK  status: ('A' for Active; 'I' for Inactive)
REMARK    1  A    between atoms: N_1  and  C_2 
REMARK    2  A    between atoms: C_2  and  C_3 
REMARK    3  A    between atoms: C_3  and  O_4 
ROOT
HETATM    1  C   UNK N   1      34.782  15.094  11.346  0.00  0.00     0.137 C 
ENDROOT
BRANCH   1   2
HETATM    2  N   UNK N   1      33.443  15.053  10.789  0.00  0.00    -0.428 N 
HETATM    3  H   UNK N   1      33.106  14.205  10.334  0.00  0.00     0.149 HD
HETATM    4  H   UNK N   1      32.840  15.872  10.854  0.00  0.00     0.149 HD
ENDBRANCH   1   2
BRANCH   1   5
HETATM    5  C   UNK N   1      35.459  16.380  10.927  0.00  0.00     0.183 C 
BRANCH   5   6
HETATM    6  O   UNK N   1      36.834  16.174  10.852  0.00  0.00    -0.399 OA
HETATM    7  H   UNK N   1      37.444  16.921  10.964  0.00  0.00     0.209 HD
ENDBRANCH   5   6
ENDBRANCH   1   5
TORSDOF 3
ENDMDL
