MODEL 1
REMARK VINA RESULT:      -4.1      0.000      0.000
REMARK  6 active torsions:
REMARK  status: ('A' for Active; 'I' for Inactive)
REMARK    1  A    between atoms: N_1  and  C_2 
REMARK    2  A    between atoms: C_2  and  C_3 
REMARK    3  A    between atoms: C_3  and  C_4 
REMARK    4  A    between atoms: C_4  and  N_5 
REMARK    5  A    between atoms: C_4  and  C_6 
REMARK    6  A    between atoms: C_6  and  O_7 
ROOT
HETATM    1  C   UNK N   1      34.503  17.062   9.076  0.00  0.00     0.174 C 
ENDROOT
BRANCH   1   2
HETATM    2  C   UNK N   1      33.828  15.726   8.763  0.00  0.00     0.054 C 
BRANCH   2   3
HETATM    3  C   UNK N   1      33.487  14.893   9.980  0.00  0.00     0.113 C 
BRANCH   3   4
HETATM    4  N   UNK N   1      32.096  15.114  10.330  0.00  0.00    -0.430 N 
HETATM    5  H   UNK N   1      31.797  16.023  10.682  0.00  0.00     0.149 HD
HETATM    6  H   UNK N   1      31.417  14.359  10.224  0.00  0.00     0.149 HD
ENDBRANCH   3   4
ENDBRANCH   2   3
ENDBRANCH   1   2
BRANCH   1   7
HETATM    7  N   UNK N   1      34.979  17.212  10.438  0.00  0.00    -0.418 N 
HETATM    8  H   UNK N   1      34.489  16.748  11.204  0.00  0.00     0.150 HD
HETATM    9  H   UNK N   1      35.803  17.781  10.632  0.00  0.00     0.150 HD
ENDBRANCH   1   7
BRANCH   1  10
HETATM   10  C   UNK N   1      34.734  18.233   8.154  0.00  0.00     0.163 C 
HETATM   11  O   UNK N   1      34.368  18.200   6.992  0.00  0.00    -0.648 OA
BRANCH  10  12
HETATM   12  O   UNK N   1      35.357  19.332   8.622  0.00  0.00    -0.775 OA
HETATM   13  H   UNK N   1      36.293  19.374   8.628  0.00  0.00     0.167 HD
ENDBRANCH  10  12
ENDBRANCH   1  10
TORSDOF 6
ENDMDL
MODEL 2
REMARK VINA RESULT:      -4.1      1.493      2.200
REMARK  6 active torsions:
REMARK  status: ('A' for Active; 'I' for Inactive)
REMARK    1  A    between atoms: N_1  and  C_2 
REMARK    2  A    between atoms: C_2  and  C_3 
REMARK    3  A    between atoms: C_3  and  C_4 
REMARK    4  A    between atoms: C_4  and  N_5 
REMARK    5  A    between atoms: C_4  and  C_6 
REMARK    6  A    between atoms: C_6  and  O_7 
ROOT
HETATM    1  C   UNK N   1      33.944  17.190   8.918  0.00  0.00     0.174 C 
ENDROOT
BRANCH   1   2
HETATM    2  C   UNK N   1      34.637  16.078   9.707  0.00  0.00     0.054 C 
BRANCH   2   3
HETATM    3  C   UNK N   1      35.410  16.554  10.918  0.00  0.00     0.113 C 
BRANCH   3   4
HETATM    4  N   UNK N   1      36.604  15.742  11.066  0.00  0.00    -0.430 N 
HETATM    5  H   UNK N   1      36.644  15.019  11.784  0.00  0.00     0.149 HD
HETATM    6  H   UNK N   1      37.404  15.894  10.450  0.00  0.00     0.149 HD
ENDBRANCH   3   4
ENDBRANCH   2   3
ENDBRANCH   1   2
BRANCH   1   7
HETATM    7  N   UNK N   1      32.502  17.249   9.067  0.00  0.00    -0.418 N 
HETATM    8  H   UNK N   1      31.955  17.885   8.486  0.00  0.00     0.150 HD
HETATM    9  H   UNK N   1      32.035  16.656   9.753  0.00  0.00     0.150 HD
ENDBRANCH   1   7
BRANCH   1  10
HETATM   10  C   UNK N   1      34.566  18.222   8.012  0.00  0.00     0.163 C 
HETATM   11  O   UNK N   1      34.430  18.161   6.802  0.00  0.00    -0.648 OA
BRANCH  10  12
HETATM   12  O   UNK N   1      35.285  19.228   8.549  0.00  0.00    -0.775 OA
HETATM   13  H   UNK N   1      36.160  19.073   8.843  0.00  0.00     0.167 HD
ENDBRANCH  10  12
ENDBRANCH   1  10
TORSDOF 6
ENDMDL
MODEL 3
REMARK VINA RESULT:      -4.0      1.662      2.095
REMARK  6 active torsions:
REMARK  status: ('A' for Active; 'I' for Inactive)
REMARK    1  A    between atoms: N_1  and  C_2 
REMARK    2  A    between atoms: C_2  and  C_3 
REMARK    3  A    between atoms: C_3  and  C_4 
REMARK    4  A    between atoms: C_4  and  N_5 
REMARK    5  A    between atoms: C_4  and  C_6 
REMARK    6  A    between atoms: C_6  and  O_7 
ROOT
HETATM    1  C   UNK N   1      34.111  17.203   9.032  0.00  0.00     0.174 C 
ENDROOT
BRANCH   1   2
HETATM    2  C   UNK N   1      32.975  16.211   8.781  0.00  0.00     0.054 C 
BRANCH   2   3
HETATM    3  C   UNK N   1      31.626  16.850   8.527  0.00  0.00     0.113 C 
BRANCH   3   4
HETATM    4  N   UNK N   1      31.465  17.064   7.101  0.00  0.00    -0.430 N 
HETATM    5  H   UNK N   1      32.278  17.266   6.520  0.00  0.00     0.149 HD
HETATM    6  H   UNK N   1      30.537  17.012   6.679  0.00  0.00     0.149 HD
ENDBRANCH   3   4
ENDBRANCH   2   3
ENDBRANCH   1   2
BRANCH   1   7
HETATM    7  N   UNK N   1      34.758  17.089  10.326  0.00  0.00    -0.418 N 
HETATM    8  H   UNK N   1      35.696  17.467  10.462  0.00  0.00     0.150 HD
HETATM    9  H   UNK N   1      34.275  16.632  11.099  0.00  0.00     0.150 HD
ENDBRANCH   1   7
BRANCH   1  10
HETATM   10  C   UNK N   1      34.639  18.275   8.112  0.00  0.00     0.163 C 
HETATM   11  O   UNK N   1      35.276  19.218   8.546  0.00  0.00    -0.648 OA
BRANCH  10  12
HETATM   12  O   UNK N   1      34.402  18.188   6.788  0.00  0.00    -0.775 OA
HETATM   13  H   UNK N   1      34.205  17.357   6.402  0.00  0.00     0.167 HD
ENDBRANCH  10  12
ENDBRANCH   1  10
TORSDOF 6
ENDMDL
MODEL 4
REMARK VINA RESULT:      -4.0      3.200      3.946
REMARK  6 active torsions:
REMARK  status: ('A' for Active; 'I' for Inactive)
REMARK    1  A    between atoms: N_1  and  C_2 
REMARK    2  A    between atoms: C_2  and  C_3 
REMARK    3  A    between atoms: C_3  and  C_4 
REMARK    4  A    between atoms: C_4  and  N_5 
REMARK    5  A    between atoms: C_4  and  C_6 
REMARK    6  A    between atoms: C_6  and  O_7 
ROOT
HETATM    1  C   UNK N   1      34.705  15.035  11.142  0.00  0.00     0.174 C 
ENDROOT
BRANCH   1   2
HETATM    2  C   UNK N   1      35.064  13.695  11.786  0.00  0.00     0.054 C 
BRANCH   2   3
HETATM    3  C   UNK N   1      35.491  13.788  13.235  0.00  0.00     0.113 C 
BRANCH   3   4
HETATM    4  N   UNK N   1      36.933  13.938  13.295  0.00  0.00    -0.430 N 
HETATM    5  H   UNK N   1      37.454  13.558  14.084  0.00  0.00     0.149 HD
HETATM    6  H   UNK N   1      37.427  14.424  12.545  0.00  0.00     0.149 HD
ENDBRANCH   3   4
ENDBRANCH   2   3
ENDBRANCH   1   2
BRANCH   1   7
HETATM    7  N   UNK N   1      33.314  15.184  10.756  0.00  0.00    -0.418 N 
HETATM    8  H   UNK N   1      33.075  15.424   9.794  0.00  0.00     0.150 HD
HETATM    9  H   UNK N   1      32.576  15.049  11.447  0.00  0.00     0.150 HD
ENDBRANCH   1   7
BRANCH   1  10
HETATM   10  C   UNK N   1      35.607  16.210  10.860  0.00  0.00     0.163 C 
HETATM   11  O   UNK N   1      35.147  17.300  10.568  0.00  0.00    -0.648 OA
BRANCH  10  12
HETATM   12  O   UNK N   1      36.944  16.051  10.932  0.00  0.00    -0.775 OA
HETATM   13  H   UNK N   1      37.392  15.556  10.276  0.00  0.00     0.167 HD
ENDBRANCH  10  12
ENDBRANCH   1  10
TORSDOF 6
ENDMDL
MODEL 5
REMARK VINA RESULT:      -4.0     15.456     15.869
REMARK  6 active torsions:
REMARK  status: ('A' for Active; 'I' for Inactive)
REMARK    1  A    between atoms: N_1  and  C_2 
REMARK    2  A    between atoms: C_2  and  C_3 
REMARK    3  A    between atoms: C_3  and  C_4 
REMARK    4  A    between atoms: C_4  and  N_5 
REMARK    5  A    between atoms: C_4  and  C_6 
REMARK    6  A    between atoms: C_6  and  O_7 
ROOT
HETATM    1  C   UNK N   1      20.527  19.555   1.848  0.00  0.00     0.174 C 
ENDROOT
BRANCH   1   2
HETATM    2  C   UNK N   1      20.139  18.079   1.925  0.00  0.00     0.054 C 
BRANCH   2   3
HETATM    3  C   UNK N   1      20.164  17.351   0.597  0.00  0.00     0.113 C 
BRANCH   3   4
HETATM    4  N   UNK N   1      18.836  16.840   0.313  0.00  0.00    -0.430 N 
HETATM    5  H   UNK N   1      18.088  17.480   0.046  0.00  0.00     0.149 HD
HETATM    6  H   UNK N   1      18.650  15.838   0.381  0.00  0.00     0.149 HD
ENDBRANCH   3   4
ENDBRANCH   2   3
ENDBRANCH   1   2
BRANCH   1   7
HETATM    7  N   UNK N   1      20.530  20.127   0.514  0.00  0.00    -0.418 N 
HETATM    8  H   UNK N   1      20.560  19.516  -0.303  0.00  0.00     0.150 HD
HETATM    9  H   UNK N   1      20.501  21.139   0.393  0.00  0.00     0.150 HD
ENDBRANCH   1   7
BRANCH   1  10
HETATM   10  C   UNK N   1      20.905  20.484   2.975  0.00  0.00     0.163 C 
HETATM   11  O   UNK N   1      20.575  20.245   4.123  0.00  0.00    -0.648 OA
BRANCH  10  12
HETATM   12  O   UNK N   1      21.619  21.595   2.706  0.00  0.00    -0.775 OA
HETATM   13  H   UNK N   1      22.423  21.531   2.230  0.00  0.00     0.167 HD
ENDBRANCH  10  12
ENDBRANCH   1  10
TORSDOF 6
ENDMDL
MODEL 6
REMARK VINA RESULT:      -3.8     11.816     12.808
REMARK  6 active torsions:
REMARK  status: ('A' for Active; 'I' for Inactive)
REMARK    1  A    between atoms: N_1  and  C_2 
REMARK    2  A    between atoms: C_2  and  C_3 
REMARK    3  A    between atoms: C_3  and  C_4 
REMARK    4  A    between atoms: C_4  and  N_5 
REMARK    5  A    between atoms: C_4  and  C_6 
REMARK    6  A    between atoms: C_6  and  O_7 
ROOT
HETATM    1  C   UNK N   1      23.669  12.258  11.177  0.00  0.00     0.174 C 
ENDROOT
BRANCH   1   2
HETATM    2  C   UNK N   1      22.891  12.430   9.872  0.00  0.00     0.054 C 
BRANCH   2   3
HETATM    3  C   UNK N   1      21.946  13.613   9.855  0.00  0.00     0.113 C 
BRANCH   3   4
HETATM    4  N   UNK N   1      20.644  13.185  10.332  0.00  0.00    -0.430 N 
HETATM    5  H   UNK N   1      20.572  12.601  11.166  0.00  0.00     0.149 HD
HETATM    6  H   UNK N   1      19.799  13.468   9.834  0.00  0.00     0.149 HD
ENDBRANCH   3   4
ENDBRANCH   2   3
ENDBRANCH   1   2
BRANCH   1   7
HETATM    7  N   UNK N   1      25.104  12.450  11.072  0.00  0.00    -0.418 N 
HETATM    8  H   UNK N   1      25.480  13.368  10.830  0.00  0.00     0.150 HD
HETATM    9  H   UNK N   1      25.737  11.668  11.239  0.00  0.00     0.150 HD
ENDBRANCH   1   7
BRANCH   1  10
HETATM   10  C   UNK N   1      23.139  11.916  12.546  0.00  0.00     0.163 C 
HETATM   11  O   UNK N   1      23.834  12.042  13.539  0.00  0.00    -0.648 OA
BRANCH  10  12
HETATM   12  O   UNK N   1      21.875  11.465  12.673  0.00  0.00    -0.775 OA
HETATM   13  H   UNK N   1      21.389  11.215  11.913  0.00  0.00     0.167 HD
ENDBRANCH  10  12
ENDBRANCH   1  10
TORSDOF 6
ENDMDL
MODEL 7
REMARK VINA RESULT:      -3.8     11.302     12.405
REMARK  6 active torsions:
REMARK  status: ('A' for Active; 'I' for Inactive)
REMARK    1  A    between atoms: N_1  and  C_2 
REMARK    2  A    between atoms: C_2  and  C_3 
REMARK    3  A    between atoms: C_3  and  C_4 
REMARK    4  A    between atoms: C_4  and  N_5 
REMARK    5  A    between atoms: C_4  and  C_6 
REMARK    6  A    between atoms: C_6  and  O_7 
ROOT
HETATM    1  C   UNK N   1      22.687  11.936  11.195  0.00  0.00     0.174 C 
ENDROOT
BRANCH   1   2
HETATM    2  C   UNK N   1      22.823  11.883   9.673  0.00  0.00     0.054 C 
BRANCH   2   3
HETATM    3  C   UNK N   1      23.256  13.185   9.034  0.00  0.00     0.113 C 
BRANCH   3   4
HETATM    4  N   UNK N   1      24.702  13.194   8.912  0.00  0.00    -0.430 N 
HETATM    5  H   UNK N   1      25.215  14.073   8.975  0.00  0.00     0.149 HD
HETATM    6  H   UNK N   1      25.207  12.319   8.762  0.00  0.00     0.149 HD
ENDBRANCH   3   4
ENDBRANCH   2   3
ENDBRANCH   1   2
BRANCH   1   7
HETATM    7  N   UNK N   1      21.329  11.843  11.700  0.00  0.00    -0.418 N 
HETATM    8  H   UNK N   1      21.138  12.024  12.686  0.00  0.00     0.150 HD
HETATM    9  H   UNK N   1      20.566  11.596  11.069  0.00  0.00     0.150 HD
ENDBRANCH   1   7
BRANCH   1  10
HETATM   10  C   UNK N   1      23.777  12.073  12.228  0.00  0.00     0.163 C 
HETATM   11  O   UNK N   1      23.523  12.029  13.419  0.00  0.00    -0.648 OA
BRANCH  10  12
HETATM   12  O   UNK N   1      25.052  12.245  11.828  0.00  0.00    -0.775 OA
HETATM   13  H   UNK N   1      25.732  12.350  12.463  0.00  0.00     0.167 HD
ENDBRANCH  10  12
ENDBRANCH   1  10
TORSDOF 6
ENDMDL
MODEL 8
REMARK VINA RESULT:      -3.7     11.587     12.551
REMARK  6 active torsions:
REMARK  status: ('A' for Active; 'I' for Inactive)
REMARK    1  A    between atoms: N_1  and  C_2 
REMARK    2  A    between atoms: C_2  and  C_3 
REMARK    3  A    between atoms: C_3  and  C_4 
REMARK    4  A    between atoms: C_4  and  N_5 
REMARK    5  A    between atoms: C_4  and  C_6 
REMARK    6  A    between atoms: C_6  and  O_7 
ROOT
HETATM    1  C   UNK N   1      22.818  12.110  11.285  0.00  0.00     0.174 C 
ENDROOT
BRANCH   1   2
HETATM    2  C   UNK N   1      21.509  12.497  10.598  0.00  0.00     0.054 C 
BRANCH   2   3
HETATM    3  C   UNK N   1      21.562  13.801   9.831  0.00  0.00     0.113 C 
BRANCH   3   4
HETATM    4  N   UNK N   1      20.210  14.300   9.653  0.00  0.00    -0.430 N 
HETATM    5  H   UNK N   1      19.640  14.532  10.466  0.00  0.00     0.149 HD
HETATM    6  H   UNK N   1      19.830  14.418   8.713  0.00  0.00     0.149 HD
ENDBRANCH   3   4
ENDBRANCH   2   3
ENDBRANCH   1   2
BRANCH   1   7
HETATM    7  N   UNK N   1      22.683  11.619  12.644  0.00  0.00    -0.418 N 
HETATM    8  H   UNK N   1      21.884  11.038  12.900  0.00  0.00     0.150 HD
HETATM    9  H   UNK N   1      23.387  11.854  13.344  0.00  0.00     0.150 HD
ENDBRANCH   1   7
BRANCH   1  10
HETATM   10  C   UNK N   1      24.220  12.175  10.734  0.00  0.00     0.163 C 
HETATM   11  O   UNK N   1      24.461  11.837   9.587  0.00  0.00    -0.648 OA
BRANCH  10  12
HETATM   12  O   UNK N   1      25.223  12.612  11.521  0.00  0.00    -0.775 OA
HETATM   13  H   UNK N   1      25.297  12.300  12.401  0.00  0.00     0.167 HD
ENDBRANCH  10  12
ENDBRANCH   1  10
TORSDOF 6
ENDMDL
MODEL 9
REMARK VINA RESULT:      -3.7     14.731     15.356
REMARK  6 active torsions:
REMARK  status: ('A' for Active; 'I' for Inactive)
REMARK    1  A    between atoms: N_1  and  C_2 
REMARK    2  A    between atoms: C_2  and  C_3 
REMARK    3  A    between atoms: C_3  and  C_4 
REMARK    4  A    between atoms: C_4  and  N_5 
REMARK    5  A    between atoms: C_4  and  C_6 
REMARK    6  A    between atoms: C_6  and  O_7 
ROOT
HETATM    1  C   UNK N   1      20.189  18.859   2.154  0.00  0.00     0.174 C 
ENDROOT
BRANCH   1   2
HETATM    2  C   UNK N   1      20.880  17.649   2.781  0.00  0.00     0.054 C 
BRANCH   2   3
HETATM    3  C   UNK N   1      20.947  17.675   4.293  0.00  0.00     0.113 C 
BRANCH   3   4
HETATM    4  N   UNK N   1      21.300  19.014   4.728  0.00  0.00    -0.430 N 
HETATM    5  H   UNK N   1      22.097  19.156   5.347  0.00  0.00     0.149 HD
HETATM    6  H   UNK N   1      20.750  19.814   4.413  0.00  0.00     0.149 HD
ENDBRANCH   3   4
ENDBRANCH   2   3
ENDBRANCH   1   2
BRANCH   1   7
HETATM    7  N   UNK N   1      18.742  18.875   2.270  0.00  0.00    -0.418 N 
HETATM    8  H   UNK N   1      18.297  18.583   3.141  0.00  0.00     0.150 HD
HETATM    9  H   UNK N   1      18.170  19.179   1.482  0.00  0.00     0.150 HD
ENDBRANCH   1   7
BRANCH   1  10
HETATM   10  C   UNK N   1      20.815  20.028   1.435  0.00  0.00     0.163 C 
HETATM   11  O   UNK N   1      21.459  20.867   2.042  0.00  0.00    -0.648 OA
BRANCH  10  12
HETATM   12  O   UNK N   1      20.660  20.146   0.102  0.00  0.00    -0.775 OA
HETATM   13  H   UNK N   1      21.392  20.015  -0.468  0.00  0.00     0.167 HD
ENDBRANCH  10  12
ENDBRANCH   1  10
TORSDOF 6
ENDMDL
