MODEL 1
REMARK VINA RESULT:      -7.1      0.000      0.000
REMARK  12 active torsions:
REMARK  status: ('A' for Active; 'I' for Inactive)
REMARK    1  A    between atoms: C_23  and  C_6 
REMARK    2  A    between atoms: C_13  and  C_11 
REMARK    3  A    between atoms: C_28  and  C_11 
REMARK    4  A    between atoms: C_30  and  C_13 
REMARK    5  A    between atoms: C_25  and  C_20 
REMARK    6  A    between atoms: N_38  and  C_20 
REMARK    7  A    between atoms: C_32  and  C_21 
REMARK    8  A    between atoms: O_39  and  C_21 
REMARK    9  A    between atoms: C_37  and  C_23 
REMARK   10  A    between atoms: O_43  and  C_33 
REMARK   11  A    between atoms: C_34  and  O_44 
REMARK   12  A    between atoms: O_44  and  C_37 
ROOT
HETATM    1  C   UNK N   1      19.954  19.020   2.722  0.00  0.00     0.057 C 
HETATM    2  C   UNK N   1      21.409  20.794   1.811  0.00  0.00     0.134 C 
HETATM    3  C   UNK N   1      21.151  18.168   3.116  0.00  0.00     0.089 C 
HETATM    4  C   UNK N   1      20.284  19.831   1.485  0.00  0.00     0.128 C 
HETATM    5  C   UNK N   1      22.406  20.293   2.834  0.00  0.00     0.222 C 
HETATM    6  N   UNK N   1      22.295  19.041   3.412  0.00  0.00    -0.343 N 
HETATM    7  O   UNK N   1      20.641  18.993   0.425  0.00  0.00    -0.395 OA
HETATM    8  O   UNK N   1      23.297  21.053   3.160  0.00  0.00    -0.273 OA
HETATM    9  H   UNK N   1      20.804  18.518  -0.406  0.00  0.00     0.210 HD
ENDROOT
BRANCH   3  10
HETATM   10  C   UNK N   1      20.682  17.278   4.293  0.00  0.00     0.026 C 
BRANCH  10  11
HETATM   11  C   UNK N   1      20.730  15.836   3.857  0.00  0.00     0.008 C 
BRANCH  11  12
HETATM   12  C   UNK N   1      21.951  14.944   3.845  0.00  0.00     0.004 C 
HETATM   13  C   UNK N   1      21.733  14.063   2.558  0.00  0.00     0.009 C 
HETATM   14  C   UNK N   1      21.884  14.902   1.294  0.00  0.00     0.014 C 
HETATM   15  C   UNK N   1      22.632  12.850   2.443  0.00  0.00    -0.022 C 
HETATM   16  C   UNK N   1      23.484  12.508   3.412  0.00  0.00     0.004 C 
HETATM   17  C   UNK N   1      23.481  13.286   4.651  0.00  0.00    -0.055 C 
HETATM   18  C   UNK N   1      24.682  13.619   5.160  0.00  0.00    -0.015 C 
HETATM   19  C   UNK N   1      22.191  14.000   5.062  0.00  0.00     0.052 C 
HETATM   20  C   UNK N   1      24.880  14.705   6.189  0.00  0.00     0.007 C 
HETATM   21  C   UNK N   1      25.430  14.104   7.466  0.00  0.00     0.014 C 
HETATM   22  C   UNK N   1      23.605  15.498   6.478  0.00  0.00     0.041 C 
HETATM   23  C   UNK N   1      22.404  14.560   6.506  0.00  0.00     0.141 C 
BRANCH  23  24
HETATM   24  O   UNK N   1      21.299  15.158   7.099  0.00  0.00    -0.315 OA
BRANCH  24  25
HETATM   25  C   UNK N   1      21.059  15.068   8.449  0.00  0.00     0.263 C 
HETATM   26  O   UNK N   1      20.786  16.069   9.099  0.00  0.00    -0.265 OA
BRANCH  25  27
HETATM   27  C   UNK N   1      21.046  13.733   9.134  0.00  0.00     0.081 C 
HETATM   28  C   UNK N   1      19.917  13.725  10.157  0.00  0.00     0.020 C 
BRANCH  27  29
HETATM   29  C   UNK N   1      22.376  13.410   9.806  0.00  0.00     0.010 C 
HETATM   30  C   UNK N   1      22.948  12.095   9.286  0.00  0.00     0.006 C 
ENDBRANCH  27  29
ENDBRANCH  25  27
ENDBRANCH  24  25
ENDBRANCH  23  24
ENDBRANCH  11  12
ENDBRANCH  10  11
ENDBRANCH   3  10
BRANCH   6  31
HETATM   31  C   UNK N   1      23.268  18.617   4.418  0.00  0.00     0.164 C 
BRANCH  31  32
HETATM   32  C   UNK N   1      24.569  18.078   3.922  0.00  0.00    -0.039 C 
HETATM   33  C   UNK N   1      25.771  18.399   4.554  0.00  0.00     0.010 C 
HETATM   34  C   UNK N   1      26.875  17.579   4.399  0.00  0.00     0.013 C 
HETATM   35  C   UNK N   1      26.796  16.437   3.592  0.00  0.00    -0.015 A 
HETATM   36  C   UNK N   1      25.636  16.215   2.819  0.00  0.00    -0.025 A 
HETATM   37  C   UNK N   1      27.827  15.480   3.606  0.00  0.00     0.010 A 
HETATM   38  C   UNK N   1      25.554  15.112   1.979  0.00  0.00     0.015 A 
HETATM   39  C   UNK N   1      24.520  17.027   3.006  0.00  0.00     0.021 C 
HETATM   40  C   UNK N   1      26.592  14.183   1.952  0.00  0.00     0.038 A 
HETATM   41  C   UNK N   1      27.706  14.316   2.790  0.00  0.00     0.077 A 
BRANCH  41  42
HETATM   42  O   UNK N   1      28.599  13.291   2.794  0.00  0.00    -0.355 OA
HETATM   43  C   UNK N   1      29.371  12.891   1.727  0.00  0.00     0.210 C 
ENDBRANCH  41  42
BRANCH  37  44
HETATM   44  C   UNK N   1      28.982  15.677   4.547  0.00  0.00     0.206 C 
BRANCH  44  45
HETATM   45  O   UNK N   1      29.180  14.508   5.291  0.00  0.00    -0.396 OA
HETATM   46  H   UNK N   1      28.738  13.645   5.267  0.00  0.00     0.209 HD
ENDBRANCH  44  45
ENDBRANCH  37  44
ENDBRANCH  31  32
ENDBRANCH   6  31
TORSDOF 12
ENDMDL
MODEL 2
REMARK VINA RESULT:      -7.1     12.674     16.446
REMARK  12 active torsions:
REMARK  status: ('A' for Active; 'I' for Inactive)
REMARK    1  A    between atoms: C_23  and  C_6 
REMARK    2  A    between atoms: C_13  and  C_11 
REMARK    3  A    between atoms: C_28  and  C_11 
REMARK    4  A    between atoms: C_30  and  C_13 
REMARK    5  A    between atoms: C_25  and  C_20 
REMARK    6  A    between atoms: N_38  and  C_20 
REMARK    7  A    between atoms: C_32  and  C_21 
REMARK    8  A    between atoms: O_39  and  C_21 
REMARK    9  A    between atoms: C_37  and  C_23 
REMARK   10  A    between atoms: O_43  and  C_33 
REMARK   11  A    between atoms: C_34  and  O_44 
REMARK   12  A    between atoms: O_44  and  C_37 
ROOT
HETATM    1  C   UNK N   1      27.960  28.463  -3.070  0.00  0.00     0.057 C 
HETATM    2  C   UNK N   1      27.391  30.596  -4.178  0.00  0.00     0.134 C 
HETATM    3  C   UNK N   1      28.031  27.730  -4.400  0.00  0.00     0.089 C 
HETATM    4  C   UNK N   1      26.936  29.578  -3.149  0.00  0.00     0.128 C 
HETATM    5  C   UNK N   1      28.172  30.024  -5.343  0.00  0.00     0.222 C 
HETATM    6  N   UNK N   1      28.433  28.671  -5.455  0.00  0.00    -0.343 N 
HETATM    7  O   UNK N   1      25.677  29.070  -3.480  0.00  0.00    -0.395 OA
HETATM    8  O   UNK N   1      28.597  30.812  -6.165  0.00  0.00    -0.273 OA
HETATM    9  H   UNK N   1      24.744  28.830  -3.600  0.00  0.00     0.210 HD
ENDROOT
BRANCH   3  10
HETATM   10  C   UNK N   1      28.989  26.534  -4.187  0.00  0.00     0.026 C 
BRANCH  10  11
HETATM   11  C   UNK N   1      28.198  25.255  -4.299  0.00  0.00     0.008 C 
BRANCH  11  12
HETATM   12  C   UNK N   1      27.805  24.554  -5.579  0.00  0.00     0.004 C 
HETATM   13  C   UNK N   1      26.355  24.026  -5.263  0.00  0.00     0.009 C 
HETATM   14  C   UNK N   1      25.366  25.183  -5.166  0.00  0.00     0.014 C 
HETATM   15  C   UNK N   1      25.809  23.006  -6.241  0.00  0.00    -0.022 C 
HETATM   16  C   UNK N   1      26.546  22.525  -7.244  0.00  0.00     0.004 C 
HETATM   17  C   UNK N   1      27.946  22.940  -7.344  0.00  0.00    -0.055 C 
HETATM   18  C   UNK N   1      28.395  23.268  -8.570  0.00  0.00    -0.015 C 
HETATM   19  C   UNK N   1      28.677  23.357  -6.065  0.00  0.00     0.052 C 
HETATM   20  C   UNK N   1      29.658  24.058  -8.812  0.00  0.00     0.007 C 
HETATM   21  C   UNK N   1      30.650  23.211  -9.583  0.00  0.00     0.014 C 
HETATM   22  C   UNK N   1      30.293  24.585  -7.525  0.00  0.00     0.041 C 
HETATM   23  C   UNK N   1      30.188  23.534  -6.425  0.00  0.00     0.141 C 
BRANCH  23  24
HETATM   24  O   UNK N   1      31.040  23.814  -5.365  0.00  0.00    -0.315 OA
BRANCH  24  25
HETATM   25  C   UNK N   1      31.812  22.842  -4.774  0.00  0.00     0.263 C 
HETATM   26  O   UNK N   1      32.864  22.486  -5.289  0.00  0.00    -0.265 OA
BRANCH  25  27
HETATM   27  C   UNK N   1      31.421  22.261  -3.447  0.00  0.00     0.081 C 
HETATM   28  C   UNK N   1      30.553  21.033  -3.693  0.00  0.00     0.020 C 
BRANCH  27  29
HETATM   29  C   UNK N   1      30.685  23.265  -2.565  0.00  0.00     0.010 C 
HETATM   30  C   UNK N   1      29.281  22.774  -2.232  0.00  0.00     0.006 C 
ENDBRANCH  27  29
ENDBRANCH  25  27
ENDBRANCH  24  25
ENDBRANCH  23  24
ENDBRANCH  11  12
ENDBRANCH  10  11
ENDBRANCH   3  10
BRANCH   6  31
HETATM   31  C   UNK N   1      29.219  28.174  -6.584  0.00  0.00     0.164 C 
BRANCH  31  32
HETATM   32  C   UNK N   1      28.483  27.894  -7.854  0.00  0.00    -0.039 C 
HETATM   33  C   UNK N   1      29.097  28.063  -9.096  0.00  0.00     0.010 C 
HETATM   34  C   UNK N   1      28.607  27.398 -10.206  0.00  0.00     0.013 C 
HETATM   35  C   UNK N   1      27.484  26.570 -10.092  0.00  0.00    -0.015 A 
HETATM   36  C   UNK N   1      26.767  26.540  -8.877  0.00  0.00    -0.025 A 
HETATM   37  C   UNK N   1      27.115  25.716 -11.147  0.00  0.00     0.010 A 
HETATM   38  C   UNK N   1      25.624  25.758  -8.756  0.00  0.00     0.015 A 
HETATM   39  C   UNK N   1      27.283  27.187  -7.757  0.00  0.00     0.021 C 
HETATM   40  C   UNK N   1      25.226  24.945  -9.814  0.00  0.00     0.038 A 
HETATM   41  C   UNK N   1      25.979  24.867 -10.992  0.00  0.00     0.077 A 
BRANCH  41  42
HETATM   42  O   UNK N   1      25.589  23.945 -11.911  0.00  0.00    -0.355 OA
HETATM   43  C   UNK N   1      24.731  24.169 -12.964  0.00  0.00     0.210 C 
ENDBRANCH  41  42
BRANCH  37  44
HETATM   44  C   UNK N   1      27.984  25.667 -12.373  0.00  0.00     0.206 C 
BRANCH  44  45
HETATM   45  O   UNK N   1      28.525  24.383 -12.510  0.00  0.00    -0.396 OA
HETATM   46  H   UNK N   1      28.166  23.571 -12.902  0.00  0.00     0.209 HD
ENDBRANCH  44  45
ENDBRANCH  37  44
ENDBRANCH  31  32
ENDBRANCH   6  31
TORSDOF 12
ENDMDL
MODEL 3
REMARK VINA RESULT:      -6.9      2.852      7.139
REMARK  12 active torsions:
REMARK  status: ('A' for Active; 'I' for Inactive)
REMARK    1  A    between atoms: C_23  and  C_6 
REMARK    2  A    between atoms: C_13  and  C_11 
REMARK    3  A    between atoms: C_28  and  C_11 
REMARK    4  A    between atoms: C_30  and  C_13 
REMARK    5  A    between atoms: C_25  and  C_20 
REMARK    6  A    between atoms: N_38  and  C_20 
REMARK    7  A    between atoms: C_32  and  C_21 
REMARK    8  A    between atoms: O_39  and  C_21 
REMARK    9  A    between atoms: C_37  and  C_23 
REMARK   10  A    between atoms: O_43  and  C_33 
REMARK   11  A    between atoms: C_34  and  O_44 
REMARK   12  A    between atoms: O_44  and  C_37 
ROOT
HETATM    1  C   UNK N   1      21.595  14.606   2.138  0.00  0.00     0.057 C 
HETATM    2  C   UNK N   1      19.570  13.295   2.665  0.00  0.00     0.134 C 
HETATM    3  C   UNK N   1      22.132  14.445   3.552  0.00  0.00     0.089 C 
HETATM    4  C   UNK N   1      20.079  14.632   2.161  0.00  0.00     0.128 C 
HETATM    5  C   UNK N   1      20.461  12.611   3.680  0.00  0.00     0.222 C 
HETATM    6  N   UNK N   1      21.644  13.179   4.117  0.00  0.00    -0.343 N 
HETATM    7  O   UNK N   1      19.615  15.675   2.969  0.00  0.00    -0.395 OA
HETATM    8  O   UNK N   1      20.114  11.514   4.073  0.00  0.00    -0.273 OA
HETATM    9  H   UNK N   1      19.175  16.417   3.413  0.00  0.00     0.210 HD
ENDROOT
BRANCH   3  10
HETATM   10  C   UNK N   1      23.671  14.568   3.449  0.00  0.00     0.026 C 
BRANCH  10  11
HETATM   11  C   UNK N   1      24.118  15.743   4.281  0.00  0.00     0.008 C 
BRANCH  11  12
HETATM   12  C   UNK N   1      24.288  17.167   3.802  0.00  0.00     0.004 C 
HETATM   13  C   UNK N   1      25.847  17.380   3.869  0.00  0.00     0.009 C 
HETATM   14  C   UNK N   1      26.554  16.551   2.802  0.00  0.00     0.014 C 
HETATM   15  C   UNK N   1      26.311  18.817   3.751  0.00  0.00    -0.022 C 
HETATM   16  C   UNK N   1      25.449  19.833   3.687  0.00  0.00     0.004 C 
HETATM   17  C   UNK N   1      24.020  19.548   3.819  0.00  0.00    -0.055 C 
HETATM   18  C   UNK N   1      23.196  20.173   2.959  0.00  0.00    -0.015 C 
HETATM   19  C   UNK N   1      23.593  18.307   4.607  0.00  0.00     0.052 C 
HETATM   20  C   UNK N   1      21.776  19.735   2.695  0.00  0.00     0.007 C 
HETATM   21  C   UNK N   1      20.817  20.828   3.119  0.00  0.00     0.014 C 
HETATM   22  C   UNK N   1      21.418  18.416   3.381  0.00  0.00     0.041 C 
HETATM   23  C   UNK N   1      22.040  18.367   4.772  0.00  0.00     0.141 C 
BRANCH  23  24
HETATM   24  O   UNK N   1      21.469  17.371   5.555  0.00  0.00    -0.315 OA
BRANCH  24  25
HETATM   25  C   UNK N   1      20.823  17.653   6.735  0.00  0.00     0.263 C 
HETATM   26  O   UNK N   1      20.910  18.765   7.240  0.00  0.00    -0.265 OA
BRANCH  25  27
HETATM   27  C   UNK N   1      19.935  16.631   7.380  0.00  0.00     0.081 C 
HETATM   28  C   UNK N   1      18.926  16.145   6.348  0.00  0.00     0.020 C 
BRANCH  27  29
HETATM   29  C   UNK N   1      19.217  17.176   8.611  0.00  0.00     0.010 C 
HETATM   30  C   UNK N   1      18.743  16.044   9.515  0.00  0.00     0.006 C 
ENDBRANCH  27  29
ENDBRANCH  25  27
ENDBRANCH  24  25
ENDBRANCH  23  24
ENDBRANCH  11  12
ENDBRANCH  10  11
ENDBRANCH   3  10
BRANCH   6  31
HETATM   31  C   UNK N   1      22.484  12.462   5.075  0.00  0.00     0.164 C 
BRANCH  31  32
HETATM   32  C   UNK N   1      22.394  12.882   6.506  0.00  0.00    -0.039 C 
HETATM   33  C   UNK N   1      21.172  13.235   7.079  0.00  0.00     0.010 C 
HETATM   34  C   UNK N   1      21.009  13.180   8.452  0.00  0.00     0.013 C 
HETATM   35  C   UNK N   1      22.075  12.789   9.272  0.00  0.00    -0.015 A 
HETATM   36  C   UNK N   1      23.353  12.603   8.703  0.00  0.00    -0.025 A 
HETATM   37  C   UNK N   1      21.863  12.509  10.634  0.00  0.00     0.010 A 
HETATM   38  C   UNK N   1      24.434  12.257   9.505  0.00  0.00     0.015 A 
HETATM   39  C   UNK N   1      23.500  12.630   7.319  0.00  0.00     0.021 C 
HETATM   40  C   UNK N   1      24.241  12.024  10.864  0.00  0.00     0.038 A 
HETATM   41  C   UNK N   1      22.965  12.091  11.438  0.00  0.00     0.077 A 
BRANCH  41  42
HETATM   42  O   UNK N   1      22.855  11.712  12.739  0.00  0.00    -0.355 OA
HETATM   43  C   UNK N   1      23.497  12.298  13.806  0.00  0.00     0.210 C 
ENDBRANCH  41  42
BRANCH  37  44
HETATM   44  C   UNK N   1      20.463  12.578  11.176  0.00  0.00     0.206 C 
BRANCH  44  45
HETATM   45  O   UNK N   1      20.249  11.507  12.051  0.00  0.00    -0.396 OA
HETATM   46  H   UNK N   1      19.501  11.286  12.628  0.00  0.00     0.209 HD
ENDBRANCH  44  45
ENDBRANCH  37  44
ENDBRANCH  31  32
ENDBRANCH   6  31
TORSDOF 12
ENDMDL
MODEL 4
REMARK VINA RESULT:      -6.8      2.229      6.517
REMARK  12 active torsions:
REMARK  status: ('A' for Active; 'I' for Inactive)
REMARK    1  A    between atoms: C_23  and  C_6 
REMARK    2  A    between atoms: C_13  and  C_11 
REMARK    3  A    between atoms: C_28  and  C_11 
REMARK    4  A    between atoms: C_30  and  C_13 
REMARK    5  A    between atoms: C_25  and  C_20 
REMARK    6  A    between atoms: N_38  and  C_20 
REMARK    7  A    between atoms: C_32  and  C_21 
REMARK    8  A    between atoms: O_39  and  C_21 
REMARK    9  A    between atoms: C_37  and  C_23 
REMARK   10  A    between atoms: O_43  and  C_33 
REMARK   11  A    between atoms: C_34  and  O_44 
REMARK   12  A    between atoms: O_44  and  C_37 
ROOT
HETATM    1  C   UNK N   1      21.723  17.641   3.366  0.00  0.00     0.057 C 
HETATM    2  C   UNK N   1      19.546  16.487   3.200  0.00  0.00     0.134 C 
HETATM    3  C   UNK N   1      21.436  18.092   4.790  0.00  0.00     0.089 C 
HETATM    4  C   UNK N   1      20.429  17.554   2.581  0.00  0.00     0.128 C 
HETATM    5  C   UNK N   1      19.686  16.330   4.699  0.00  0.00     0.222 C 
HETATM    6  N   UNK N   1      20.550  17.115   5.441  0.00  0.00    -0.343 N 
HETATM    7  O   UNK N   1      19.775  18.790   2.567  0.00  0.00    -0.395 OA
HETATM    8  O   UNK N   1      19.032  15.452   5.229  0.00  0.00    -0.273 OA
HETATM    9  H   UNK N   1      19.284  19.610   2.399  0.00  0.00     0.210 HD
ENDROOT
BRANCH   3  10
HETATM   10  C   UNK N   1      22.812  18.285   5.470  0.00  0.00     0.026 C 
BRANCH  10  11
HETATM   11  C   UNK N   1      23.868  18.403   4.400  0.00  0.00     0.008 C 
BRANCH  11  12
HETATM   12  C   UNK N   1      25.331  18.054   4.543  0.00  0.00     0.004 C 
HETATM   13  C   UNK N   1      26.052  19.423   4.248  0.00  0.00     0.009 C 
HETATM   14  C   UNK N   1      25.805  20.420   5.374  0.00  0.00     0.014 C 
HETATM   15  C   UNK N   1      27.544  19.331   4.004  0.00  0.00    -0.022 C 
HETATM   16  C   UNK N   1      28.180  18.158   3.953  0.00  0.00     0.004 C 
HETATM   17  C   UNK N   1      27.390  16.930   4.056  0.00  0.00    -0.055 C 
HETATM   18  C   UNK N   1      27.875  15.963   4.856  0.00  0.00    -0.015 C 
HETATM   19  C   UNK N   1      25.928  16.963   3.604  0.00  0.00     0.052 C 
HETATM   20  C   UNK N   1      27.046  14.813   5.373  0.00  0.00     0.007 C 
HETATM   21  C   UNK N   1      27.600  13.506   4.845  0.00  0.00     0.014 C 
HETATM   22  C   UNK N   1      25.561  14.942   5.029  0.00  0.00     0.041 C 
HETATM   23  C   UNK N   1      25.400  15.491   3.616  0.00  0.00     0.141 C 
BRANCH  23  24
HETATM   24  O   UNK N   1      24.111  15.300   3.134  0.00  0.00    -0.315 OA
BRANCH  24  25
HETATM   25  C   UNK N   1      23.826  14.363   2.170  0.00  0.00     0.263 C 
HETATM   26  O   UNK N   1      24.255  14.493   1.031  0.00  0.00    -0.265 OA
BRANCH  25  27
HETATM   27  C   UNK N   1      23.052  13.125   2.516  0.00  0.00     0.081 C 
HETATM   28  C   UNK N   1      21.810  13.532   3.297  0.00  0.00     0.020 C 
BRANCH  27  29
HETATM   29  C   UNK N   1      23.881  12.125   3.317  0.00  0.00     0.010 C 
HETATM   30  C   UNK N   1      23.344  11.982   4.737  0.00  0.00     0.006 C 
ENDBRANCH  27  29
ENDBRANCH  25  27
ENDBRANCH  24  25
ENDBRANCH  23  24
ENDBRANCH  11  12
ENDBRANCH  10  11
ENDBRANCH   3  10
BRANCH   6  31
HETATM   31  C   UNK N   1      20.671  16.902   6.882  0.00  0.00     0.164 C 
BRANCH  31  32
HETATM   32  C   UNK N   1      21.211  15.584   7.332  0.00  0.00    -0.039 C 
HETATM   33  C   UNK N   1      22.491  15.166   6.965  0.00  0.00     0.010 C 
HETATM   34  C   UNK N   1      23.148  14.208   7.717  0.00  0.00     0.013 C 
HETATM   35  C   UNK N   1      22.525  13.641   8.835  0.00  0.00    -0.015 A 
HETATM   36  C   UNK N   1      21.171  13.940   9.098  0.00  0.00    -0.025 A 
HETATM   37  C   UNK N   1      23.257  12.844   9.734  0.00  0.00     0.010 A 
HETATM   38  C   UNK N   1      20.520  13.355  10.178  0.00  0.00     0.015 A 
HETATM   39  C   UNK N   1      20.528  14.927   8.356  0.00  0.00     0.021 C 
HETATM   40  C   UNK N   1      21.227  12.527  11.046  0.00  0.00     0.038 A 
HETATM   41  C   UNK N   1      22.599  12.300  10.877  0.00  0.00     0.077 A 
BRANCH  41  42
HETATM   42  O   UNK N   1      23.230  11.592  11.850  0.00  0.00    -0.355 OA
HETATM   43  C   UNK N   1      23.275  11.921  13.186  0.00  0.00     0.210 C 
ENDBRANCH  41  42
BRANCH  37  44
HETATM   44  C   UNK N   1      24.730  12.664   9.503  0.00  0.00     0.206 C 
BRANCH  44  45
HETATM   45  O   UNK N   1      25.440  13.181  10.593  0.00  0.00    -0.396 OA
HETATM   46  H   UNK N   1      25.934  12.746  11.306  0.00  0.00     0.209 HD
ENDBRANCH  44  45
ENDBRANCH  37  44
ENDBRANCH  31  32
ENDBRANCH   6  31
TORSDOF 12
ENDMDL
MODEL 5
REMARK VINA RESULT:      -6.7      4.587      9.153
REMARK  12 active torsions:
REMARK  status: ('A' for Active; 'I' for Inactive)
REMARK    1  A    between atoms: C_23  and  C_6 
REMARK    2  A    between atoms: C_13  and  C_11 
REMARK    3  A    between atoms: C_28  and  C_11 
REMARK    4  A    between atoms: C_30  and  C_13 
REMARK    5  A    between atoms: C_25  and  C_20 
REMARK    6  A    between atoms: N_38  and  C_20 
REMARK    7  A    between atoms: C_32  and  C_21 
REMARK    8  A    between atoms: O_39  and  C_21 
REMARK    9  A    between atoms: C_37  and  C_23 
REMARK   10  A    between atoms: O_43  and  C_33 
REMARK   11  A    between atoms: C_34  and  O_44 
REMARK   12  A    between atoms: O_44  and  C_37 
ROOT
HETATM    1  C   UNK N   1      29.465  12.714   3.895  0.00  0.00     0.057 C 
HETATM    2  C   UNK N   1      31.386  11.447   3.000  0.00  0.00     0.134 C 
HETATM    3  C   UNK N   1      30.348  13.897   4.262  0.00  0.00     0.089 C 
HETATM    4  C   UNK N   1      30.255  11.426   4.010  0.00  0.00     0.128 C 
HETATM    5  C   UNK N   1      31.962  12.817   2.712  0.00  0.00     0.222 C 
HETATM    6  N   UNK N   1      31.491  13.957   3.339  0.00  0.00    -0.343 N 
HETATM    7  O   UNK N   1      30.753  11.265   5.307  0.00  0.00    -0.395 OA
HETATM    8  O   UNK N   1      32.838  12.886   1.871  0.00  0.00    -0.273 OA
HETATM    9  H   UNK N   1      31.061  10.992   6.186  0.00  0.00     0.210 HD
ENDROOT
BRANCH   3  10
HETATM   10  C   UNK N   1      29.431  15.144   4.252  0.00  0.00     0.026 C 
BRANCH  10  11
HETATM   11  C   UNK N   1      29.172  15.564   5.676  0.00  0.00     0.008 C 
BRANCH  11  12
HETATM   12  C   UNK N   1      28.906  16.971   6.160  0.00  0.00     0.004 C 
HETATM   13  C   UNK N   1      29.357  16.917   7.669  0.00  0.00     0.009 C 
HETATM   14  C   UNK N   1      30.871  16.775   7.778  0.00  0.00     0.014 C 
HETATM   15  C   UNK N   1      28.919  18.092   8.519  0.00  0.00    -0.022 C 
HETATM   16  C   UNK N   1      28.130  19.056   8.038  0.00  0.00     0.004 C 
HETATM   17  C   UNK N   1      27.613  18.920   6.676  0.00  0.00    -0.055 C 
HETATM   18  C   UNK N   1      27.650  20.020   5.902  0.00  0.00    -0.015 C 
HETATM   19  C   UNK N   1      27.447  17.514   6.094  0.00  0.00     0.052 C 
HETATM   20  C   UNK N   1      27.519  19.988   4.399  0.00  0.00     0.007 C 
HETATM   21  C   UNK N   1      26.275  20.745   3.979  0.00  0.00     0.014 C 
HETATM   22  C   UNK N   1      27.498  18.569   3.829  0.00  0.00     0.041 C 
HETATM   23  C   UNK N   1      26.684  17.655   4.737  0.00  0.00     0.141 C 
BRANCH  23  24
HETATM   24  O   UNK N   1      26.345  16.468   4.100  0.00  0.00    -0.315 OA
BRANCH  24  25
HETATM   25  C   UNK N   1      25.306  15.679   4.535  0.00  0.00     0.263 C 
HETATM   26  O   UNK N   1      24.284  16.187   4.976  0.00  0.00    -0.265 OA
BRANCH  25  27
HETATM   27  C   UNK N   1      25.374  14.187   4.398  0.00  0.00     0.081 C 
HETATM   28  C   UNK N   1      26.083  13.620   5.621  0.00  0.00     0.020 C 
BRANCH  27  29
HETATM   29  C   UNK N   1      26.085  13.750   3.121  0.00  0.00     0.010 C 
HETATM   30  C   UNK N   1      25.192  13.951   1.901  0.00  0.00     0.006 C 
ENDBRANCH  27  29
ENDBRANCH  25  27
ENDBRANCH  24  25
ENDBRANCH  23  24
ENDBRANCH  11  12
ENDBRANCH  10  11
ENDBRANCH   3  10
BRANCH   6  31
HETATM   31  C   UNK N   1      32.061  15.261   3.002  0.00  0.00     0.164 C 
BRANCH  31  32
HETATM   32  C   UNK N   1      33.021  15.857   3.979  0.00  0.00    -0.039 C 
HETATM   33  C   UNK N   1      32.957  17.208   4.320  0.00  0.00     0.010 C 
HETATM   34  C   UNK N   1      33.511  17.648   5.509  0.00  0.00     0.013 C 
HETATM   35  C   UNK N   1      34.153  16.745   6.364  0.00  0.00    -0.015 A 
HETATM   36  C   UNK N   1      34.367  15.418   5.933  0.00  0.00    -0.025 A 
HETATM   37  C   UNK N   1      34.516  17.128   7.668  0.00  0.00     0.010 A 
HETATM   38  C   UNK N   1      35.040  14.516   6.748  0.00  0.00     0.015 A 
HETATM   39  C   UNK N   1      33.780  14.976   4.751  0.00  0.00     0.021 C 
HETATM   40  C   UNK N   1      35.444  14.902   8.024  0.00  0.00     0.038 A 
HETATM   41  C   UNK N   1      35.148  16.177   8.523  0.00  0.00     0.077 A 
BRANCH  41  42
HETATM   42  O   UNK N   1      35.459  16.415   9.824  0.00  0.00    -0.355 OA
HETATM   43  C   UNK N   1      34.887  15.802  10.915  0.00  0.00     0.210 C 
ENDBRANCH  41  42
BRANCH  37  44
HETATM   44  C   UNK N   1      34.145  18.504   8.144  0.00  0.00     0.206 C 
BRANCH  44  45
HETATM   45  O   UNK N   1      35.305  19.197   8.513  0.00  0.00    -0.396 OA
HETATM   46  H   UNK N   1      35.563  19.625   9.345  0.00  0.00     0.209 HD
ENDBRANCH  44  45
ENDBRANCH  37  44
ENDBRANCH  31  32
ENDBRANCH   6  31
TORSDOF 12
ENDMDL
MODEL 6
REMARK VINA RESULT:      -6.6     11.826     15.633
REMARK  12 active torsions:
REMARK  status: ('A' for Active; 'I' for Inactive)
REMARK    1  A    between atoms: C_23  and  C_6 
REMARK    2  A    between atoms: C_13  and  C_11 
REMARK    3  A    between atoms: C_28  and  C_11 
REMARK    4  A    between atoms: C_30  and  C_13 
REMARK    5  A    between atoms: C_25  and  C_20 
REMARK    6  A    between atoms: N_38  and  C_20 
REMARK    7  A    between atoms: C_32  and  C_21 
REMARK    8  A    between atoms: O_39  and  C_21 
REMARK    9  A    between atoms: C_37  and  C_23 
REMARK   10  A    between atoms: O_43  and  C_33 
REMARK   11  A    between atoms: C_34  and  O_44 
REMARK   12  A    between atoms: O_44  and  C_37 
ROOT
HETATM    1  C   UNK N   1      27.776  21.063  -8.927  0.00  0.00     0.057 C 
HETATM    2  C   UNK N   1      25.576  21.665  -9.873  0.00  0.00     0.134 C 
HETATM    3  C   UNK N   1      27.748  22.244  -7.970  0.00  0.00     0.089 C 
HETATM    4  C   UNK N   1      27.035  21.413 -10.203  0.00  0.00     0.128 C 
HETATM    5  C   UNK N   1      25.322  22.265  -8.507  0.00  0.00     0.222 C 
HETATM    6  N   UNK N   1      26.353  22.568  -7.636  0.00  0.00    -0.343 N 
HETATM    7  O   UNK N   1      27.606  22.534 -10.813  0.00  0.00    -0.395 OA
HETATM    8  O   UNK N   1      24.162  22.438  -8.183  0.00  0.00    -0.273 OA
HETATM    9  H   UNK N   1      27.972  23.232 -11.380  0.00  0.00     0.210 HD
ENDROOT
BRANCH   3  10
HETATM   10  C   UNK N   1      28.637  21.850  -6.767  0.00  0.00     0.026 C 
BRANCH  10  11
HETATM   11  C   UNK N   1      29.452  20.639  -7.144  0.00  0.00     0.008 C 
BRANCH  11  12
HETATM   12  C   UNK N   1      30.950  20.593  -7.338  0.00  0.00     0.004 C 
HETATM   13  C   UNK N   1      31.158  19.277  -8.180  0.00  0.00     0.009 C 
HETATM   14  C   UNK N   1      30.614  19.446  -9.594  0.00  0.00     0.014 C 
HETATM   15  C   UNK N   1      32.587  18.783  -8.268  0.00  0.00    -0.022 C 
HETATM   16  C   UNK N   1      33.581  19.374  -7.601  0.00  0.00     0.004 C 
HETATM   17  C   UNK N   1      33.256  20.479  -6.698  0.00  0.00    -0.055 C 
HETATM   18  C   UNK N   1      34.059  21.558  -6.749  0.00  0.00    -0.015 C 
HETATM   19  C   UNK N   1      31.859  20.526  -6.074  0.00  0.00     0.052 C 
HETATM   20  C   UNK N   1      33.680  22.907  -6.188  0.00  0.00     0.007 C 
HETATM   21  C   UNK N   1      34.632  23.280  -5.069  0.00  0.00     0.014 C 
HETATM   22  C   UNK N   1      32.232  22.969  -5.700  0.00  0.00     0.041 C 
HETATM   23  C   UNK N   1      31.862  21.665  -5.003  0.00  0.00     0.141 C 
BRANCH  23  24
HETATM   24  O   UNK N   1      30.703  21.796  -4.248  0.00  0.00    -0.315 OA
BRANCH  24  25
HETATM   25  C   UNK N   1      30.689  22.458  -3.044  0.00  0.00     0.263 C 
HETATM   26  O   UNK N   1      31.531  22.211  -2.190  0.00  0.00    -0.265 OA
BRANCH  25  27
HETATM   27  C   UNK N   1      29.695  23.552  -2.786  0.00  0.00     0.081 C 
HETATM   28  C   UNK N   1      28.643  23.031  -1.815  0.00  0.00     0.020 C 
BRANCH  27  29
HETATM   29  C   UNK N   1      29.035  24.053  -4.067  0.00  0.00     0.010 C 
HETATM   30  C   UNK N   1      29.508  25.461  -4.411  0.00  0.00     0.006 C 
ENDBRANCH  27  29
ENDBRANCH  25  27
ENDBRANCH  24  25
ENDBRANCH  23  24
ENDBRANCH  11  12
ENDBRANCH  10  11
ENDBRANCH   3  10
BRANCH   6  31
HETATM   31  C   UNK N   1      26.052  23.117  -6.315  0.00  0.00     0.164 C 
BRANCH  31  32
HETATM   32  C   UNK N   1      25.902  24.600  -6.212  0.00  0.00    -0.039 C 
HETATM   33  C   UNK N   1      25.217  25.183  -5.146  0.00  0.00     0.010 C 
HETATM   34  C   UNK N   1      25.458  26.504  -4.809  0.00  0.00     0.013 C 
HETATM   35  C   UNK N   1      26.374  27.263  -5.546  0.00  0.00    -0.015 A 
HETATM   36  C   UNK N   1      26.931  26.722  -6.724  0.00  0.00    -0.025 A 
HETATM   37  C   UNK N   1      26.798  28.521  -5.081  0.00  0.00     0.010 A 
HETATM   38  C   UNK N   1      27.809  27.474  -7.494  0.00  0.00     0.015 A 
HETATM   39  C   UNK N   1      26.708  25.384  -7.039  0.00  0.00     0.021 C 
HETATM   40  C   UNK N   1      28.197  28.741  -7.064  0.00  0.00     0.038 A 
HETATM   41  C   UNK N   1      27.750  29.261  -5.843  0.00  0.00     0.077 A 
BRANCH  41  42
HETATM   42  O   UNK N   1      28.289  30.442  -5.443  0.00  0.00    -0.355 OA
HETATM   43  C   UNK N   1      29.546  30.615  -4.909  0.00  0.00     0.210 C 
ENDBRANCH  41  42
BRANCH  37  44
HETATM   44  C   UNK N   1      26.293  29.006  -3.751  0.00  0.00     0.206 C 
BRANCH  44  45
HETATM   45  O   UNK N   1      25.941  30.357  -3.850  0.00  0.00    -0.396 OA
HETATM   46  H   UNK N   1      26.435  31.131  -4.164  0.00  0.00     0.209 HD
ENDBRANCH  44  45
ENDBRANCH  37  44
ENDBRANCH  31  32
ENDBRANCH   6  31
TORSDOF 12
ENDMDL
MODEL 7
REMARK VINA RESULT:      -6.6      2.927      6.455
REMARK  12 active torsions:
REMARK  status: ('A' for Active; 'I' for Inactive)
REMARK    1  A    between atoms: C_23  and  C_6 
REMARK    2  A    between atoms: C_13  and  C_11 
REMARK    3  A    between atoms: C_28  and  C_11 
REMARK    4  A    between atoms: C_30  and  C_13 
REMARK    5  A    between atoms: C_25  and  C_20 
REMARK    6  A    between atoms: N_38  and  C_20 
REMARK    7  A    between atoms: C_32  and  C_21 
REMARK    8  A    between atoms: O_39  and  C_21 
REMARK    9  A    between atoms: C_37  and  C_23 
REMARK   10  A    between atoms: O_43  and  C_33 
REMARK   11  A    between atoms: C_34  and  O_44 
REMARK   12  A    between atoms: O_44  and  C_37 
ROOT
HETATM    1  C   UNK N   1      25.733  13.261   5.129  0.00  0.00     0.057 C 
HETATM    2  C   UNK N   1      26.770  13.774   2.948  0.00  0.00     0.134 C 
HETATM    3  C   UNK N   1      26.531  14.352   5.825  0.00  0.00     0.089 C 
HETATM    4  C   UNK N   1      26.537  12.687   3.979  0.00  0.00     0.128 C 
HETATM    5  C   UNK N   1      26.901  15.173   3.510  0.00  0.00     0.222 C 
HETATM    6  N   UNK N   1      26.825  15.428   4.867  0.00  0.00    -0.343 N 
HETATM    7  O   UNK N   1      27.753  12.169   4.437  0.00  0.00    -0.395 OA
HETATM    8  O   UNK N   1      27.040  16.081   2.713  0.00  0.00    -0.273 OA
HETATM    9  H   UNK N   1      28.570  11.688   4.643  0.00  0.00     0.210 HD
ENDROOT
BRANCH   3  10
HETATM   10  C   UNK N   1      25.699  14.780   7.058  0.00  0.00     0.026 C 
BRANCH  10  11
HETATM   11  C   UNK N   1      24.855  13.612   7.501  0.00  0.00     0.008 C 
BRANCH  11  12
HETATM   12  C   UNK N   1      23.609  13.679   8.353  0.00  0.00     0.004 C 
HETATM   13  C   UNK N   1      23.779  12.450   9.325  0.00  0.00     0.009 C 
HETATM   14  C   UNK N   1      24.911  12.695  10.316  0.00  0.00     0.014 C 
HETATM   15  C   UNK N   1      22.536  12.059  10.098  0.00  0.00    -0.022 C 
HETATM   16  C   UNK N   1      21.361  12.659   9.896  0.00  0.00     0.004 C 
HETATM   17  C   UNK N   1      21.263  13.665   8.838  0.00  0.00    -0.055 C 
HETATM   18  C   UNK N   1      20.596  14.795   9.137  0.00  0.00    -0.015 C 
HETATM   19  C   UNK N   1      22.223  13.571   7.650  0.00  0.00     0.052 C 
HETATM   20  C   UNK N   1      20.707  16.068   8.334  0.00  0.00     0.007 C 
HETATM   21  C   UNK N   1      19.359  16.413   7.735  0.00  0.00     0.014 C 
HETATM   22  C   UNK N   1      21.774  15.996   7.241  0.00  0.00     0.041 C 
HETATM   23  C   UNK N   1      21.758  14.620   6.587  0.00  0.00     0.141 C 
BRANCH  23  24
HETATM   24  O   UNK N   1      22.448  14.615   5.381  0.00  0.00    -0.315 OA
BRANCH  24  25
HETATM   25  C   UNK N   1      21.836  14.924   4.190  0.00  0.00     0.263 C 
HETATM   26  O   UNK N   1      20.988  14.179   3.717  0.00  0.00    -0.265 OA
BRANCH  25  27
HETATM   27  C   UNK N   1      22.135  16.217   3.492  0.00  0.00     0.081 C 
HETATM   28  C   UNK N   1      23.499  16.713   3.956  0.00  0.00     0.020 C 
BRANCH  27  29
HETATM   29  C   UNK N   1      21.069  17.277   3.746  0.00  0.00     0.010 C 
HETATM   30  C   UNK N   1      21.654  18.478   4.481  0.00  0.00     0.006 C 
ENDBRANCH  27  29
ENDBRANCH  25  27
ENDBRANCH  24  25
ENDBRANCH  23  24
ENDBRANCH  11  12
ENDBRANCH  10  11
ENDBRANCH   3  10
BRANCH   6  31
HETATM   31  C   UNK N   1      26.927  16.802   5.357  0.00  0.00     0.164 C 
BRANCH  31  32
HETATM   32  C   UNK N   1      28.254  17.238   5.887  0.00  0.00    -0.039 C 
HETATM   33  C   UNK N   1      28.552  17.146   7.247  0.00  0.00     0.010 C 
HETATM   34  C   UNK N   1      29.871  17.111   7.665  0.00  0.00     0.013 C 
HETATM   35  C   UNK N   1      30.909  17.189   6.729  0.00  0.00    -0.015 A 
HETATM   36  C   UNK N   1      30.602  17.457   5.378  0.00  0.00    -0.025 A 
HETATM   37  C   UNK N   1      32.237  16.927   7.110  0.00  0.00     0.010 A 
HETATM   38  C   UNK N   1      31.619  17.581   4.439  0.00  0.00     0.015 A 
HETATM   39  C   UNK N   1      29.274  17.459   4.961  0.00  0.00     0.021 C 
HETATM   40  C   UNK N   1      32.942  17.369   4.820  0.00  0.00     0.038 A 
HETATM   41  C   UNK N   1      33.269  16.991   6.128  0.00  0.00     0.077 A 
BRANCH  41  42
HETATM   42  O   UNK N   1      34.568  16.672   6.370  0.00  0.00    -0.355 OA
HETATM   43  C   UNK N   1      35.155  15.449   6.137  0.00  0.00     0.210 C 
ENDBRANCH  41  42
BRANCH  37  44
HETATM   44  C   UNK N   1      32.511  16.504   8.526  0.00  0.00     0.206 C 
BRANCH  44  45
HETATM   45  O   UNK N   1      33.475  17.350   9.087  0.00  0.00    -0.396 OA
HETATM   46  H   UNK N   1      33.401  18.079   9.723  0.00  0.00     0.209 HD
ENDBRANCH  44  45
ENDBRANCH  37  44
ENDBRANCH  31  32
ENDBRANCH   6  31
TORSDOF 12
ENDMDL
MODEL 8
REMARK VINA RESULT:      -6.6     12.412     15.892
REMARK  12 active torsions:
REMARK  status: ('A' for Active; 'I' for Inactive)
REMARK    1  A    between atoms: C_23  and  C_6 
REMARK    2  A    between atoms: C_13  and  C_11 
REMARK    3  A    between atoms: C_28  and  C_11 
REMARK    4  A    between atoms: C_30  and  C_13 
REMARK    5  A    between atoms: C_25  and  C_20 
REMARK    6  A    between atoms: N_38  and  C_20 
REMARK    7  A    between atoms: C_32  and  C_21 
REMARK    8  A    between atoms: O_39  and  C_21 
REMARK    9  A    between atoms: C_37  and  C_23 
REMARK   10  A    between atoms: O_43  and  C_33 
REMARK   11  A    between atoms: C_34  and  O_44 
REMARK   12  A    between atoms: O_44  and  C_37 
ROOT
HETATM    1  C   UNK N   1      26.474  28.552  -5.711  0.00  0.00     0.057 C 
HETATM    2  C   UNK N   1      26.360  28.944  -3.276  0.00  0.00     0.134 C 
HETATM    3  C   UNK N   1      27.358  27.329  -5.527  0.00  0.00     0.089 C 
HETATM    4  C   UNK N   1      26.746  29.556  -4.609  0.00  0.00     0.128 C 
HETATM    5  C   UNK N   1      26.556  27.446  -3.179  0.00  0.00     0.222 C 
HETATM    6  N   UNK N   1      27.061  26.703  -4.230  0.00  0.00    -0.343 N 
HETATM    7  O   UNK N   1      28.091  29.937  -4.608  0.00  0.00    -0.395 OA
HETATM    8  O   UNK N   1      26.213  26.907  -2.143  0.00  0.00    -0.273 OA
HETATM    9  H   UNK N   1      28.967  30.354  -4.572  0.00  0.00     0.210 HD
ENDROOT
BRANCH   3  10
HETATM   10  C   UNK N   1      27.117  26.428  -6.762  0.00  0.00     0.026 C 
BRANCH  10  11
HETATM   11  C   UNK N   1      28.334  26.488  -7.650  0.00  0.00     0.008 C 
BRANCH  11  12
HETATM   12  C   UNK N   1      29.466  25.489  -7.686  0.00  0.00     0.004 C 
HETATM   13  C   UNK N   1      30.649  26.316  -8.319  0.00  0.00     0.009 C 
HETATM   14  C   UNK N   1      31.140  27.386  -7.350  0.00  0.00     0.014 C 
HETATM   15  C   UNK N   1      31.838  25.499  -8.780  0.00  0.00    -0.022 C 
HETATM   16  C   UNK N   1      31.838  24.165  -8.734  0.00  0.00     0.004 C 
HETATM   17  C   UNK N   1      30.619  23.480  -8.302  0.00  0.00    -0.055 C 
HETATM   18  C   UNK N   1      30.772  22.459  -7.440  0.00  0.00    -0.015 C 
HETATM   19  C   UNK N   1      29.275  24.181  -8.513  0.00  0.00     0.052 C 
HETATM   20  C   UNK N   1      29.645  21.891  -6.611  0.00  0.00     0.007 C 
HETATM   21  C   UNK N   1      29.408  20.445  -6.994  0.00  0.00     0.014 C 
HETATM   22  C   UNK N   1      28.349  22.694  -6.729  0.00  0.00     0.041 C 
HETATM   23  C   UNK N   1      28.150  23.151  -8.170  0.00  0.00     0.141 C 
BRANCH  23  24
HETATM   24  O   UNK N   1      26.846  23.570  -8.400  0.00  0.00    -0.315 OA
BRANCH  24  25
HETATM   25  C   UNK N   1      26.356  23.764  -9.669  0.00  0.00     0.263 C 
HETATM   26  O   UNK N   1      25.889  22.827 -10.304  0.00  0.00    -0.265 OA
BRANCH  25  27
HETATM   27  C   UNK N   1      26.308  25.140 -10.266  0.00  0.00     0.081 C 
HETATM   28  C   UNK N   1      24.861  25.468 -10.609  0.00  0.00     0.020 C 
BRANCH  27  29
HETATM   29  C   UNK N   1      27.192  25.270 -11.502  0.00  0.00     0.010 C 
HETATM   30  C   UNK N   1      28.286  26.310 -11.286  0.00  0.00     0.006 C 
ENDBRANCH  27  29
ENDBRANCH  25  27
ENDBRANCH  24  25
ENDBRANCH  23  24
ENDBRANCH  11  12
ENDBRANCH  10  11
ENDBRANCH   3  10
BRANCH   6  31
HETATM   31  C   UNK N   1      27.201  25.254  -4.096  0.00  0.00     0.164 C 
BRANCH  31  32
HETATM   32  C   UNK N   1      28.528  24.738  -3.643  0.00  0.00    -0.039 C 
HETATM   33  C   UNK N   1      28.622  23.614  -2.820  0.00  0.00     0.010 C 
HETATM   34  C   UNK N   1      29.798  22.886  -2.775  0.00  0.00     0.013 C 
HETATM   35  C   UNK N   1      30.902  23.285  -3.538  0.00  0.00    -0.015 A 
HETATM   36  C   UNK N   1      30.858  24.514  -4.230  0.00  0.00    -0.025 A 
HETATM   37  C   UNK N   1      32.016  22.437  -3.681  0.00  0.00     0.010 A 
HETATM   38  C   UNK N   1      31.958  24.949  -4.958  0.00  0.00     0.015 A 
HETATM   39  C   UNK N   1      29.662  25.224  -4.295  0.00  0.00     0.021 C 
HETATM   40  C   UNK N   1      33.084  24.136  -5.065  0.00  0.00     0.038 A 
HETATM   41  C   UNK N   1      33.116  22.862  -4.484  0.00  0.00     0.077 A 
BRANCH  41  42
HETATM   42  O   UNK N   1      34.199  22.088  -4.757  0.00  0.00    -0.355 OA
HETATM   43  C   UNK N   1      35.436  22.544  -5.154  0.00  0.00     0.210 C 
ENDBRANCH  41  42
BRANCH  37  44
HETATM   44  C   UNK N   1      31.971  21.075  -3.049  0.00  0.00     0.206 C 
BRANCH  44  45
HETATM   45  O   UNK N   1      32.980  20.976  -2.083  0.00  0.00    -0.396 OA
HETATM   46  H   UNK N   1      33.312  20.221  -1.573  0.00  0.00     0.209 HD
ENDBRANCH  44  45
ENDBRANCH  37  44
ENDBRANCH  31  32
ENDBRANCH   6  31
TORSDOF 12
ENDMDL
MODEL 9
REMARK VINA RESULT:      -6.5      2.896      8.491
REMARK  12 active torsions:
REMARK  status: ('A' for Active; 'I' for Inactive)
REMARK    1  A    between atoms: C_23  and  C_6 
REMARK    2  A    between atoms: C_13  and  C_11 
REMARK    3  A    between atoms: C_28  and  C_11 
REMARK    4  A    between atoms: C_30  and  C_13 
REMARK    5  A    between atoms: C_25  and  C_20 
REMARK    6  A    between atoms: N_38  and  C_20 
REMARK    7  A    between atoms: C_32  and  C_21 
REMARK    8  A    between atoms: O_39  and  C_21 
REMARK    9  A    between atoms: C_37  and  C_23 
REMARK   10  A    between atoms: O_43  and  C_33 
REMARK   11  A    between atoms: C_34  and  O_44 
REMARK   12  A    between atoms: O_44  and  C_37 
ROOT
HETATM    1  C   UNK N   1      26.242  14.300   1.987  0.00  0.00     0.057 C 
HETATM    2  C   UNK N   1      24.605  12.491   2.367  0.00  0.00     0.134 C 
HETATM    3  C   UNK N   1      26.056  14.838   3.397  0.00  0.00     0.089 C 
HETATM    4  C   UNK N   1      24.948  13.683   1.495  0.00  0.00     0.128 C 
HETATM    5  C   UNK N   1      25.037  12.610   3.813  0.00  0.00     0.222 C 
HETATM    6  N   UNK N   1      25.685  13.734   4.294  0.00  0.00    -0.343 N 
HETATM    7  O   UNK N   1      23.914  14.624   1.513  0.00  0.00    -0.395 OA
HETATM    8  O   UNK N   1      24.825  11.656   4.536  0.00  0.00    -0.273 OA
HETATM    9  H   UNK N   1      23.147  15.206   1.383  0.00  0.00     0.210 HD
ENDROOT
BRANCH   3  10
HETATM   10  C   UNK N   1      27.372  15.566   3.762  0.00  0.00     0.026 C 
BRANCH  10  11
HETATM   11  C   UNK N   1      27.173  17.048   3.572  0.00  0.00     0.008 C 
BRANCH  11  12
HETATM   12  C   UNK N   1      27.032  18.081   4.666  0.00  0.00     0.004 C 
HETATM   13  C   UNK N   1      26.147  19.196   3.990  0.00  0.00     0.009 C 
HETATM   14  C   UNK N   1      24.722  18.699   3.774  0.00  0.00     0.014 C 
HETATM   15  C   UNK N   1      26.092  20.516   4.729  0.00  0.00    -0.022 C 
HETATM   16  C   UNK N   1      26.818  20.742   5.826  0.00  0.00     0.004 C 
HETATM   17  C   UNK N   1      27.751  19.707   6.272  0.00  0.00    -0.055 C 
HETATM   18  C   UNK N   1      27.773  19.438   7.591  0.00  0.00    -0.015 C 
HETATM   19  C   UNK N   1      28.325  18.744   5.230  0.00  0.00     0.052 C 
HETATM   20  C   UNK N   1      28.372  18.183   8.177  0.00  0.00     0.007 C 
HETATM   21  C   UNK N   1      29.539  18.545   9.074  0.00  0.00     0.014 C 
HETATM   22  C   UNK N   1      28.809  17.174   7.115  0.00  0.00     0.041 C 
HETATM   23  C   UNK N   1      29.440  17.902   5.933  0.00  0.00     0.141 C 
BRANCH  23  24
HETATM   24  O   UNK N   1      30.156  17.035   5.118  0.00  0.00    -0.315 OA
BRANCH  24  25
HETATM   25  C   UNK N   1      31.530  17.048   5.070  0.00  0.00     0.263 C 
HETATM   26  O   UNK N   1      32.117  17.783   4.287  0.00  0.00    -0.265 OA
BRANCH  25  27
HETATM   27  C   UNK N   1      32.333  16.223   6.032  0.00  0.00     0.081 C 
HETATM   28  C   UNK N   1      31.646  14.875   6.206  0.00  0.00     0.020 C 
BRANCH  27  29
HETATM   29  C   UNK N   1      32.509  16.909   7.383  0.00  0.00     0.010 C 
HETATM   30  C   UNK N   1      33.650  17.920   7.339  0.00  0.00     0.006 C 
ENDBRANCH  27  29
ENDBRANCH  25  27
ENDBRANCH  24  25
ENDBRANCH  23  24
ENDBRANCH  11  12
ENDBRANCH  10  11
ENDBRANCH   3  10
BRANCH   6  31
HETATM   31  C   UNK N   1      26.108  13.786   5.693  0.00  0.00     0.164 C 
BRANCH  31  32
HETATM   32  C   UNK N   1      25.076  14.166   6.703  0.00  0.00    -0.039 C 
HETATM   33  C   UNK N   1      24.020  15.015   6.370  0.00  0.00     0.010 C 
HETATM   34  C   UNK N   1      22.859  15.005   7.125  0.00  0.00     0.013 C 
HETATM   35  C   UNK N   1      22.748  14.158   8.234  0.00  0.00    -0.015 A 
HETATM   36  C   UNK N   1      23.879  13.433   8.666  0.00  0.00    -0.025 A 
HETATM   37  C   UNK N   1      21.507  13.968   8.867  0.00  0.00     0.010 A 
HETATM   38  C   UNK N   1      23.803  12.620   9.791  0.00  0.00     0.015 A 
HETATM   39  C   UNK N   1      25.032  13.425   7.885  0.00  0.00     0.021 C 
HETATM   40  C   UNK N   1      22.587  12.464  10.452  0.00  0.00     0.038 A 
HETATM   41  C   UNK N   1      21.421  13.081   9.981  0.00  0.00     0.077 A 
BRANCH  41  42
HETATM   42  O   UNK N   1      20.259  12.761  10.608  0.00  0.00    -0.355 OA
HETATM   43  C   UNK N   1      20.144  12.022  11.764  0.00  0.00     0.210 C 
ENDBRANCH  41  42
BRANCH  37  44
HETATM   44  C   UNK N   1      20.294  14.645   8.293  0.00  0.00     0.206 C 
BRANCH  44  45
HETATM   45  O   UNK N   1      19.430  15.013   9.332  0.00  0.00    -0.396 OA
HETATM   46  H   UNK N   1      19.167  14.554  10.145  0.00  0.00     0.209 HD
ENDBRANCH  44  45
ENDBRANCH  37  44
ENDBRANCH  31  32
ENDBRANCH   6  31
TORSDOF 12
ENDMDL
