MODEL 1
REMARK VINA RESULT:      -3.6      0.000      0.000
REMARK  2 active torsions:
REMARK  status: ('A' for Active; 'I' for Inactive)
REMARK    1  A    between atoms: C_2  and  N_3 
REMARK       I    between atoms: N_3  and  C_4 
REMARK    2  A    between atoms: C_4  and  O_6 
ROOT
HETATM    1  N   UNK N   1      33.180  17.350   8.967  0.00  0.00    -0.337 N 
HETATM    2  C   UNK N   1      34.431  17.792   8.709  0.00  0.00     0.360 C 
HETATM    3  O   UNK N   1      34.699  18.306   7.627  0.00  0.00    -0.239 OA
HETATM    4  H   UNK N   1      32.998  16.943   9.845  0.00  0.00     0.164 HD
ENDROOT
BRANCH   1   5
HETATM    5  C   UNK N   1      32.103  17.447   8.018  0.00  0.00     0.120 C 
HETATM    6  C   UNK N   1      30.911  18.086   8.701  0.00  0.00     0.026 C 
ENDBRANCH   1   5
BRANCH   2   7
HETATM    7  O   UNK N   1      35.381  17.660   9.664  0.00  0.00    -0.309 OA
HETATM    8  C   UNK N   1      35.353  16.667  10.615  0.00  0.00     0.215 C 
ENDBRANCH   2   7
TORSDOF 2
ENDMDL
MODEL 2
REMARK VINA RESULT:      -3.5      2.010      3.440
REMARK  2 active torsions:
REMARK  status: ('A' for Active; 'I' for Inactive)
REMARK    1  A    between atoms: C_2  and  N_3 
REMARK       I    between atoms: N_3  and  C_4 
REMARK    2  A    between atoms: C_4  and  O_6 
ROOT
HETATM    1  N   UNK N   1      34.633  17.093   8.987  0.00  0.00    -0.337 N 
HETATM    2  C   UNK N   1      34.810  18.208   8.243  0.00  0.00     0.360 C 
HETATM    3  O   UNK N   1      35.381  19.187   8.714  0.00  0.00    -0.239 OA
HETATM    4  H   UNK N   1      34.171  16.325   8.580  0.00  0.00     0.164 HD
ENDROOT
BRANCH   1   5
HETATM    5  C   UNK N   1      35.088  16.978  10.347  0.00  0.00     0.120 C 
HETATM    6  C   UNK N   1      35.909  15.711  10.478  0.00  0.00     0.026 C 
ENDBRANCH   1   5
BRANCH   2   7
HETATM    7  O   UNK N   1      34.348  18.224   6.971  0.00  0.00    -0.309 OA
HETATM    8  C   UNK N   1      33.879  17.101   6.330  0.00  0.00     0.215 C 
ENDBRANCH   2   7
TORSDOF 2
ENDMDL
MODEL 3
REMARK VINA RESULT:      -3.4     12.843     14.241
REMARK  2 active torsions:
REMARK  status: ('A' for Active; 'I' for Inactive)
REMARK    1  A    between atoms: C_2  and  N_3 
REMARK       I    between atoms: N_3  and  C_4 
REMARK    2  A    between atoms: C_4  and  O_6 
ROOT
HETATM    1  N   UNK N   1      20.936  19.763   3.116  0.00  0.00    -0.337 N 
HETATM    2  C   UNK N   1      21.486  20.796   2.437  0.00  0.00     0.360 C 
HETATM    3  O   UNK N   1      20.923  21.263   1.452  0.00  0.00    -0.239 OA
HETATM    4  H   UNK N   1      21.413  19.412   3.902  0.00  0.00     0.164 HD
ENDROOT
BRANCH   1   5
HETATM    5  C   UNK N   1      19.688  19.155   2.741  0.00  0.00     0.120 C 
HETATM    6  C   UNK N   1      19.979  17.854   2.021  0.00  0.00     0.026 C 
ENDBRANCH   1   5
BRANCH   2   7
HETATM    7  O   UNK N   1      22.664  21.305   2.865  0.00  0.00    -0.309 OA
HETATM    8  C   UNK N   1      23.809  20.552   2.977  0.00  0.00     0.215 C 
ENDBRANCH   2   7
TORSDOF 2
ENDMDL
MODEL 4
REMARK VINA RESULT:      -3.4      1.331      1.473
REMARK  2 active torsions:
REMARK  status: ('A' for Active; 'I' for Inactive)
REMARK    1  A    between atoms: C_2  and  N_3 
REMARK       I    between atoms: N_3  and  C_4 
REMARK    2  A    between atoms: C_4  and  O_6 
ROOT
HETATM    1  N   UNK N   1      34.296  17.149   7.965  0.00  0.00    -0.337 N 
HETATM    2  C   UNK N   1      34.906  18.073   8.742  0.00  0.00     0.360 C 
HETATM    3  O   UNK N   1      35.014  19.234   8.359  0.00  0.00    -0.239 OA
HETATM    4  H   UNK N   1      34.225  16.227   8.301  0.00  0.00     0.164 HD
ENDROOT
BRANCH   1   5
HETATM    5  C   UNK N   1      33.747  17.452   6.670  0.00  0.00     0.120 C 
HETATM    6  C   UNK N   1      32.246  17.253   6.721  0.00  0.00     0.026 C 
ENDBRANCH   1   5
BRANCH   2   7
HETATM    7  O   UNK N   1      35.391  17.696   9.947  0.00  0.00    -0.309 OA
HETATM    8  C   UNK N   1      35.166  16.453  10.489  0.00  0.00     0.215 C 
ENDBRANCH   2   7
TORSDOF 2
ENDMDL
MODEL 5
REMARK VINA RESULT:      -3.3     12.844     13.672
REMARK  2 active torsions:
REMARK  status: ('A' for Active; 'I' for Inactive)
REMARK    1  A    between atoms: C_2  and  N_3 
REMARK       I    between atoms: N_3  and  C_4 
REMARK    2  A    between atoms: C_4  and  O_6 
ROOT
HETATM    1  N   UNK N   1      21.695  13.624  10.000  0.00  0.00    -0.337 N 
HETATM    2  C   UNK N   1      20.677  14.399   9.562  0.00  0.00     0.360 C 
HETATM    3  O   UNK N   1      19.512  14.066   9.757  0.00  0.00    -0.239 OA
HETATM    4  H   UNK N   1      22.618  13.920   9.828  0.00  0.00     0.164 HD
ENDROOT
BRANCH   1   5
HETATM    5  C   UNK N   1      21.491  12.388  10.705  0.00  0.00     0.120 C 
HETATM    6  C   UNK N   1      22.748  12.061  11.486  0.00  0.00     0.026 C 
ENDBRANCH   1   5
BRANCH   2   7
HETATM    7  O   UNK N   1      20.965  15.548   8.908  0.00  0.00    -0.309 OA
HETATM    8  C   UNK N   1      20.043  16.550   8.712  0.00  0.00     0.215 C 
ENDBRANCH   2   7
TORSDOF 2
ENDMDL
MODEL 6
REMARK VINA RESULT:      -3.2     12.755     13.526
REMARK  2 active torsions:
REMARK  status: ('A' for Active; 'I' for Inactive)
REMARK    1  A    between atoms: C_2  and  N_3 
REMARK       I    between atoms: N_3  and  C_4 
REMARK    2  A    between atoms: C_4  and  O_6 
ROOT
HETATM    1  N   UNK N   1      31.014  22.398  -3.954  0.00  0.00    -0.337 N 
HETATM    2  C   UNK N   1      31.309  22.304  -2.637  0.00  0.00     0.360 C 
HETATM    3  O   UNK N   1      32.269  21.638  -2.261  0.00  0.00    -0.239 OA
HETATM    4  H   UNK N   1      30.238  22.940  -4.223  0.00  0.00     0.164 HD
ENDROOT
BRANCH   1   5
HETATM    5  C   UNK N   1      31.783  21.743  -4.978  0.00  0.00     0.120 C 
HETATM    6  C   UNK N   1      31.021  20.521  -5.448  0.00  0.00     0.026 C 
ENDBRANCH   1   5
BRANCH   2   7
HETATM    7  O   UNK N   1      30.530  22.957  -1.745  0.00  0.00    -0.309 OA
HETATM    8  C   UNK N   1      29.162  23.036  -1.862  0.00  0.00     0.215 C 
ENDBRANCH   2   7
TORSDOF 2
ENDMDL
MODEL 7
REMARK VINA RESULT:      -3.1     11.843     12.267
REMARK  2 active torsions:
REMARK  status: ('A' for Active; 'I' for Inactive)
REMARK    1  A    between atoms: C_2  and  N_3 
REMARK       I    between atoms: N_3  and  C_4 
REMARK    2  A    between atoms: C_4  and  O_6 
ROOT
HETATM    1  N   UNK N   1      22.245  12.419  10.970  0.00  0.00    -0.337 N 
HETATM    2  C   UNK N   1      23.560  12.112  11.050  0.00  0.00     0.360 C 
HETATM    3  O   UNK N   1      24.232  11.981  10.031  0.00  0.00    -0.239 OA
HETATM    4  H   UNK N   1      21.735  12.516  11.806  0.00  0.00     0.164 HD
ENDROOT
BRANCH   1   5
HETATM    5  C   UNK N   1      21.559  12.608   9.720  0.00  0.00     0.120 C 
HETATM    6  C   UNK N   1      20.910  13.977   9.726  0.00  0.00     0.026 C 
ENDBRANCH   1   5
BRANCH   2   7
HETATM    7  O   UNK N   1      24.121  11.953  12.271  0.00  0.00    -0.309 OA
HETATM    8  C   UNK N   1      23.399  12.008  13.440  0.00  0.00     0.215 C 
ENDBRANCH   2   7
TORSDOF 2
ENDMDL
MODEL 8
REMARK VINA RESULT:      -3.0     13.048     13.996
REMARK  2 active torsions:
REMARK  status: ('A' for Active; 'I' for Inactive)
REMARK    1  A    between atoms: C_2  and  N_3 
REMARK       I    between atoms: N_3  and  C_4 
REMARK    2  A    between atoms: C_4  and  O_6 
ROOT
HETATM    1  N   UNK N   1      45.194  22.737   3.533  0.00  0.00    -0.337 N 
HETATM    2  C   UNK N   1      44.394  23.705   3.031  0.00  0.00     0.360 C 
HETATM    3  O   UNK N   1      43.190  23.509   2.893  0.00  0.00    -0.239 OA
HETATM    4  H   UNK N   1      46.154  22.927   3.631  0.00  0.00     0.164 HD
ENDROOT
BRANCH   1   5
HETATM    5  C   UNK N   1      44.705  21.444   3.930  0.00  0.00     0.120 C 
HETATM    6  C   UNK N   1      44.944  20.467   2.798  0.00  0.00     0.026 C 
ENDBRANCH   1   5
BRANCH   2   7
HETATM    7  O   UNK N   1      44.943  24.893   2.685  0.00  0.00    -0.309 OA
HETATM    8  C   UNK N   1      46.203  25.006   2.145  0.00  0.00     0.215 C 
ENDBRANCH   2   7
TORSDOF 2
ENDMDL
MODEL 9
REMARK VINA RESULT:      -3.0      3.722      5.769
REMARK  2 active torsions:
REMARK  status: ('A' for Active; 'I' for Inactive)
REMARK    1  A    between atoms: C_2  and  N_3 
REMARK       I    between atoms: N_3  and  C_4 
REMARK    2  A    between atoms: C_4  and  O_6 
ROOT
HETATM    1  N   UNK N   1      36.341  15.087  12.815  0.00  0.00    -0.337 N 
HETATM    2  C   UNK N   1      35.385  15.372  11.902  0.00  0.00     0.360 C 
HETATM    3  O   UNK N   1      34.428  14.619  11.748  0.00  0.00    -0.239 OA
HETATM    4  H   UNK N   1      37.095  15.711  12.915  0.00  0.00     0.164 HD
ENDROOT
BRANCH   1   5
HETATM    5  C   UNK N   1      36.306  13.914  13.647  0.00  0.00     0.120 C 
HETATM    6  C   UNK N   1      36.815  14.281  15.026  0.00  0.00     0.026 C 
ENDBRANCH   1   5
BRANCH   2   7
HETATM    7  O   UNK N   1      35.501  16.500  11.165  0.00  0.00    -0.309 OA
HETATM    8  C   UNK N   1      34.982  16.623   9.897  0.00  0.00     0.215 C 
ENDBRANCH   2   7
TORSDOF 2
ENDMDL
