MODEL 1
REMARK VINA RESULT:      -4.4      0.000      0.000
REMARK  9 active torsions:
REMARK  status: ('A' for Active; 'I' for Inactive)
REMARK    1  A    between atoms: C_2  and  N_1 
REMARK    2  A    between atoms: C_2  and  C_3 
REMARK    3  A    between atoms: C_2  and  C_11 
REMARK    4  A    between atoms: C_3  and  C_4 
REMARK    5  A    between atoms: C_4  and  C_5 
REMARK    6  A    between atoms: C_5  and  N_6 
REMARK    7  A    between atoms: C_8  and  N_9 
REMARK    8  A    between atoms: C_8  and  S_10 
REMARK    9  A    between atoms: C_11  and  O_12 
ROOT
HETATM    1  C   UNK N   1      31.291  16.630   8.437  0.00  0.00     0.022 C 
ENDROOT
BRANCH   1   2
HETATM    2  C   UNK N   1      32.790  16.439   8.269  0.00  0.00     0.037 C 
BRANCH   2   3
HETATM    3  C   UNK N   1      33.587  17.537   8.959  0.00  0.00     0.173 C 
BRANCH   3   4
HETATM    4  N   UNK N   1      34.404  16.935  10.002  0.00  0.00    -0.418 N 
HETATM    5  H   UNK N   1      34.729  17.495  10.790  0.00  0.00     0.150 HD
HETATM    6  H   UNK N   1      34.652  15.948   9.944  0.00  0.00     0.150 HD
ENDBRANCH   3   4
BRANCH   3   7
HETATM    7  C   UNK N   1      34.457  18.295   7.991  0.00  0.00     0.163 C 
HETATM    8  O   UNK N   1      35.242  19.133   8.403  0.00  0.00    -0.648 OA
BRANCH   7   9
HETATM    9  O   UNK N   1      34.396  18.037   6.668  0.00  0.00    -0.775 OA
HETATM   10  H   UNK N   1      35.039  17.516   6.229  0.00  0.00     0.167 HD
ENDBRANCH   7   9
ENDBRANCH   3   7
ENDBRANCH   2   3
ENDBRANCH   1   2
BRANCH   1  11
HETATM   11  C   UNK N   1      30.713  16.974   7.069  0.00  0.00     0.121 C 
BRANCH  11  12
HETATM   12  N   UNK N   1      31.593  16.869   5.911  0.00  0.00    -0.371 N 
HETATM   13  C   UNK N   1      31.389  17.262   4.695  0.00  0.00     0.130 C 
ATOM     14  HN  UNK N   1      32.495  16.423   6.083  1.00  0.00     0.161 HD
BRANCH  13  15
HETATM   15  N   UNK N   1      30.189  17.896   4.299  0.00  0.00    -0.380 N 
HETATM   16  H   UNK N   1      29.553  17.425   3.715  0.00  0.00     0.158 HD
HETATM   17  H   UNK N   1      29.991  18.809   4.608  0.00  0.00     0.158 HD
ENDBRANCH  13  15
BRANCH  13  18
HETATM   18  S   UNK N   1      32.685  17.026   3.484  0.00  0.00    -0.108 SA
HETATM   19  H   UNK N   1      32.910  17.974   2.534  0.00  0.00     0.110 HD
ENDBRANCH  13  18
ENDBRANCH  11  12
ENDBRANCH   1  11
TORSDOF 9
ENDMDL
MODEL 2
REMARK VINA RESULT:      -4.4      2.875      3.175
REMARK  9 active torsions:
REMARK  status: ('A' for Active; 'I' for Inactive)
REMARK    1  A    between atoms: C_2  and  N_1 
REMARK    2  A    between atoms: C_2  and  C_3 
REMARK    3  A    between atoms: C_2  and  C_11 
REMARK    4  A    between atoms: C_3  and  C_4 
REMARK    5  A    between atoms: C_4  and  C_5 
REMARK    6  A    between atoms: C_5  and  N_6 
REMARK    7  A    between atoms: C_8  and  N_9 
REMARK    8  A    between atoms: C_8  and  S_10 
REMARK    9  A    between atoms: C_11  and  O_12 
ROOT
HETATM    1  C   UNK N   1      30.786  17.401   8.519  0.00  0.00     0.022 C 
ENDROOT
BRANCH   1   2
HETATM    2  C   UNK N   1      32.155  17.097   7.929  0.00  0.00     0.037 C 
BRANCH   2   3
HETATM    3  C   UNK N   1      33.282  17.676   8.773  0.00  0.00     0.173 C 
BRANCH   3   4
HETATM    4  N   UNK N   1      33.823  16.619   9.615  0.00  0.00    -0.418 N 
HETATM    5  H   UNK N   1      34.374  15.865   9.205  0.00  0.00     0.150 HD
HETATM    6  H   UNK N   1      33.650  16.634  10.620  0.00  0.00     0.150 HD
ENDBRANCH   3   4
BRANCH   3   7
HETATM    7  C   UNK N   1      34.373  18.273   7.924  0.00  0.00     0.163 C 
HETATM    8  O   UNK N   1      34.465  17.968   6.746  0.00  0.00    -0.648 OA
BRANCH   7   9
HETATM    9  O   UNK N   1      35.237  19.167   8.447  0.00  0.00    -0.775 OA
HETATM   10  H   UNK N   1      35.218  19.412   9.351  0.00  0.00     0.167 HD
ENDBRANCH   7   9
ENDBRANCH   3   7
ENDBRANCH   2   3
ENDBRANCH   1   2
BRANCH   1  11
HETATM   11  C   UNK N   1      29.745  17.121   7.441  0.00  0.00     0.121 C 
BRANCH  11  12
HETATM   12  N   UNK N   1      28.996  18.253   6.906  0.00  0.00    -0.371 N 
HETATM   13  C   UNK N   1      28.085  18.970   7.480  0.00  0.00     0.130 C 
ATOM     14  HN  UNK N   1      29.221  18.515   5.946  1.00  0.00     0.161 HD
BRANCH  13  15
HETATM   15  N   UNK N   1      27.663  18.732   8.809  0.00  0.00    -0.380 N 
HETATM   16  H   UNK N   1      28.211  19.047   9.563  0.00  0.00     0.158 HD
HETATM   17  H   UNK N   1      26.821  18.251   8.978  0.00  0.00     0.158 HD
ENDBRANCH  13  15
BRANCH  13  18
HETATM   18  S   UNK N   1      27.361  20.332   6.572  0.00  0.00    -0.108 SA
HETATM   19  H   UNK N   1      26.225  20.927   7.028  0.00  0.00     0.110 HD
ENDBRANCH  13  18
ENDBRANCH  11  12
ENDBRANCH   1  11
TORSDOF 9
ENDMDL
MODEL 3
REMARK VINA RESULT:      -4.3      4.767      5.894
REMARK  9 active torsions:
REMARK  status: ('A' for Active; 'I' for Inactive)
REMARK    1  A    between atoms: C_2  and  N_1 
REMARK    2  A    between atoms: C_2  and  C_3 
REMARK    3  A    between atoms: C_2  and  C_11 
REMARK    4  A    between atoms: C_3  and  C_4 
REMARK    5  A    between atoms: C_4  and  C_5 
REMARK    6  A    between atoms: C_5  and  N_6 
REMARK    7  A    between atoms: C_8  and  N_9 
REMARK    8  A    between atoms: C_8  and  S_10 
REMARK    9  A    between atoms: C_11  and  O_12 
ROOT
HETATM    1  C   UNK N   1      33.387  14.860   9.563  0.00  0.00     0.022 C 
ENDROOT
BRANCH   1   2
HETATM    2  C   UNK N   1      34.124  15.815   8.636  0.00  0.00     0.037 C 
BRANCH   2   3
HETATM    3  C   UNK N   1      34.161  17.233   9.189  0.00  0.00     0.173 C 
BRANCH   3   4
HETATM    4  N   UNK N   1      35.013  17.251  10.368  0.00  0.00    -0.418 N 
HETATM    5  H   UNK N   1      34.994  16.476  11.030  0.00  0.00     0.150 HD
HETATM    6  H   UNK N   1      35.633  18.044  10.532  0.00  0.00     0.150 HD
ENDBRANCH   3   4
BRANCH   3   7
HETATM    7  C   UNK N   1      34.663  18.222   8.170  0.00  0.00     0.163 C 
HETATM    8  O   UNK N   1      35.275  19.213   8.532  0.00  0.00    -0.648 OA
BRANCH   7   9
HETATM    9  O   UNK N   1      34.465  18.008   6.852  0.00  0.00    -0.775 OA
HETATM   10  H   UNK N   1      33.609  17.933   6.480  0.00  0.00     0.167 HD
ENDBRANCH   7   9
ENDBRANCH   3   7
ENDBRANCH   2   3
ENDBRANCH   1   2
BRANCH   1  11
HETATM   11  C   UNK N   1      34.368  13.769   9.977  0.00  0.00     0.121 C 
BRANCH  11  12
HETATM   12  N   UNK N   1      34.580  13.549  11.403  0.00  0.00    -0.371 N 
HETATM   13  C   UNK N   1      35.619  13.826  12.124  0.00  0.00     0.130 C 
ATOM     14  HN  UNK N   1      33.802  13.116  11.902  1.00  0.00     0.161 HD
BRANCH  13  15
HETATM   15  N   UNK N   1      36.776  14.429  11.578  0.00  0.00    -0.380 N 
HETATM   16  H   UNK N   1      37.599  14.488  12.115  0.00  0.00     0.158 HD
HETATM   17  H   UNK N   1      36.758  14.788  10.663  0.00  0.00     0.158 HD
ENDBRANCH  13  15
BRANCH  13  18
HETATM   18  S   UNK N   1      35.572  13.468  13.877  0.00  0.00    -0.108 SA
HETATM   19  H   UNK N   1      34.678  14.108  14.679  0.00  0.00     0.110 HD
ENDBRANCH  13  18
ENDBRANCH  11  12
ENDBRANCH   1  11
TORSDOF 9
ENDMDL
MODEL 4
REMARK VINA RESULT:      -4.1      1.893      2.548
REMARK  9 active torsions:
REMARK  status: ('A' for Active; 'I' for Inactive)
REMARK    1  A    between atoms: C_2  and  N_1 
REMARK    2  A    between atoms: C_2  and  C_3 
REMARK    3  A    between atoms: C_2  and  C_11 
REMARK    4  A    between atoms: C_3  and  C_4 
REMARK    5  A    between atoms: C_4  and  C_5 
REMARK    6  A    between atoms: C_5  and  N_6 
REMARK    7  A    between atoms: C_8  and  N_9 
REMARK    8  A    between atoms: C_8  and  S_10 
REMARK    9  A    between atoms: C_11  and  O_12 
ROOT
HETATM    1  C   UNK N   1      34.073  14.483   8.855  0.00  0.00     0.022 C 
ENDROOT
BRANCH   1   2
HETATM    2  C   UNK N   1      34.936  15.675   8.470  0.00  0.00     0.037 C 
BRANCH   2   3
HETATM    3  C   UNK N   1      34.380  16.983   9.017  0.00  0.00     0.173 C 
BRANCH   3   4
HETATM    4  N   UNK N   1      34.957  17.221  10.331  0.00  0.00    -0.418 N 
HETATM    5  H   UNK N   1      35.039  16.460  11.004  0.00  0.00     0.150 HD
HETATM    6  H   UNK N   1      35.281  18.156  10.579  0.00  0.00     0.150 HD
ENDBRANCH   3   4
BRANCH   3   7
HETATM    7  C   UNK N   1      34.670  18.144   8.103  0.00  0.00     0.163 C 
HETATM    8  O   UNK N   1      34.334  18.097   6.931  0.00  0.00    -0.648 OA
BRANCH   7   9
HETATM    9  O   UNK N   1      35.276  19.253   8.576  0.00  0.00    -0.775 OA
HETATM   10  H   UNK N   1      36.050  19.215   9.101  0.00  0.00     0.167 HD
ENDBRANCH   7   9
ENDBRANCH   3   7
ENDBRANCH   2   3
ENDBRANCH   1   2
BRANCH   1  11
HETATM   11  C   UNK N   1      32.615  14.910   8.736  0.00  0.00     0.121 C 
BRANCH  11  12
HETATM   12  N   UNK N   1      31.887  14.523   7.533  0.00  0.00    -0.371 N 
HETATM   13  C   UNK N   1      31.456  15.268   6.567  0.00  0.00     0.130 C 
ATOM     14  HN  UNK N   1      31.689  13.526   7.441  1.00  0.00     0.161 HD
BRANCH  13  15
HETATM   15  N   UNK N   1      31.652  16.668   6.550  0.00  0.00    -0.380 N 
HETATM   16  H   UNK N   1      30.918  17.264   6.278  0.00  0.00     0.158 HD
HETATM   17  H   UNK N   1      32.523  17.046   6.809  0.00  0.00     0.158 HD
ENDBRANCH  13  15
BRANCH  13  18
HETATM   18  S   UNK N   1      30.617  14.493   5.189  0.00  0.00    -0.108 SA
HETATM   19  H   UNK N   1      29.981  13.303   5.362  0.00  0.00     0.110 HD
ENDBRANCH  13  18
ENDBRANCH  11  12
ENDBRANCH   1  11
TORSDOF 9
ENDMDL
MODEL 5
REMARK VINA RESULT:      -4.1      2.949      3.308
REMARK  9 active torsions:
REMARK  status: ('A' for Active; 'I' for Inactive)
REMARK    1  A    between atoms: C_2  and  N_1 
REMARK    2  A    between atoms: C_2  and  C_3 
REMARK    3  A    between atoms: C_2  and  C_11 
REMARK    4  A    between atoms: C_3  and  C_4 
REMARK    5  A    between atoms: C_4  and  C_5 
REMARK    6  A    between atoms: C_5  and  N_6 
REMARK    7  A    between atoms: C_8  and  N_9 
REMARK    8  A    between atoms: C_8  and  S_10 
REMARK    9  A    between atoms: C_11  and  O_12 
ROOT
HETATM    1  C   UNK N   1      31.647  17.835   8.489  0.00  0.00     0.022 C 
ENDROOT
BRANCH   1   2
HETATM    2  C   UNK N   1      32.634  16.678   8.461  0.00  0.00     0.037 C 
BRANCH   2   3
HETATM    3  C   UNK N   1      33.948  17.065   7.798  0.00  0.00     0.173 C 
BRANCH   3   4
HETATM    4  N   UNK N   1      33.657  17.710   6.527  0.00  0.00    -0.418 N 
HETATM    5  H   UNK N   1      34.124  18.580   6.270  0.00  0.00     0.150 HD
HETATM    6  H   UNK N   1      32.981  17.290   5.889  0.00  0.00     0.150 HD
ENDBRANCH   3   4
BRANCH   3   7
HETATM    7  C   UNK N   1      34.771  17.979   8.667  0.00  0.00     0.163 C 
HETATM    8  O   UNK N   1      34.977  19.130   8.320  0.00  0.00    -0.648 OA
BRANCH   7   9
HETATM    9  O   UNK N   1      35.262  17.544   9.846  0.00  0.00    -0.775 OA
HETATM   10  H   UNK N   1      35.232  18.065  10.625  0.00  0.00     0.167 HD
ENDBRANCH   7   9
ENDBRANCH   3   7
ENDBRANCH   2   3
ENDBRANCH   1   2
BRANCH   1  11
HETATM   11  C   UNK N   1      30.280  17.287   8.094  0.00  0.00     0.121 C 
BRANCH  11  12
HETATM   12  N   UNK N   1      29.398  18.150   7.317  0.00  0.00    -0.371 N 
HETATM   13  C   UNK N   1      28.305  18.738   7.684  0.00  0.00     0.130 C 
ATOM     14  HN  UNK N   1      29.680  18.312   6.350  1.00  0.00     0.161 HD
BRANCH  13  15
HETATM   15  N   UNK N   1      27.782  18.610   8.992  0.00  0.00    -0.380 N 
HETATM   16  H   UNK N   1      27.342  17.774   9.266  0.00  0.00     0.158 HD
HETATM   17  H   UNK N   1      27.859  19.358   9.627  0.00  0.00     0.158 HD
ENDBRANCH  13  15
BRANCH  13  18
HETATM   18  S   UNK N   1      27.447  19.776   6.506  0.00  0.00    -0.108 SA
HETATM   19  H   UNK N   1      27.791  21.086   6.375  0.00  0.00     0.110 HD
ENDBRANCH  13  18
ENDBRANCH  11  12
ENDBRANCH   1  11
TORSDOF 9
ENDMDL
MODEL 6
REMARK VINA RESULT:      -3.9     10.839     11.844
REMARK  9 active torsions:
REMARK  status: ('A' for Active; 'I' for Inactive)
REMARK    1  A    between atoms: C_2  and  N_1 
REMARK    2  A    between atoms: C_2  and  C_3 
REMARK    3  A    between atoms: C_2  and  C_11 
REMARK    4  A    between atoms: C_3  and  C_4 
REMARK    5  A    between atoms: C_4  and  C_5 
REMARK    6  A    between atoms: C_5  and  N_6 
REMARK    7  A    between atoms: C_8  and  N_9 
REMARK    8  A    between atoms: C_8  and  S_10 
REMARK    9  A    between atoms: C_11  and  O_12 
ROOT
HETATM    1  C   UNK N   1      43.881  19.555   3.071  0.00  0.00     0.022 C 
ENDROOT
BRANCH   1   2
HETATM    2  C   UNK N   1      44.352  20.928   2.616  0.00  0.00     0.037 C 
BRANCH   2   3
HETATM    3  C   UNK N   1      44.310  21.949   3.744  0.00  0.00     0.173 C 
BRANCH   3   4
HETATM    4  N   UNK N   1      45.671  22.204   4.191  0.00  0.00    -0.418 N 
HETATM    5  H   UNK N   1      46.171  21.509   4.746  0.00  0.00     0.150 HD
HETATM    6  H   UNK N   1      46.127  23.083   3.948  0.00  0.00     0.150 HD
ENDBRANCH   3   4
BRANCH   3   7
HETATM    7  C   UNK N   1      43.654  23.235   3.316  0.00  0.00     0.163 C 
HETATM    8  O   UNK N   1      44.268  24.287   3.390  0.00  0.00    -0.648 OA
BRANCH   7   9
HETATM    9  O   UNK N   1      42.398  23.233   2.824  0.00  0.00    -0.775 OA
HETATM   10  H   UNK N   1      42.080  22.551   2.266  0.00  0.00     0.167 HD
ENDBRANCH   7   9
ENDBRANCH   3   7
ENDBRANCH   2   3
ENDBRANCH   1   2
BRANCH   1  11
HETATM   11  C   UNK N   1      42.357  19.556   3.044  0.00  0.00     0.121 C 
BRANCH  11  12
HETATM   12  N   UNK N   1      41.698  19.823   1.770  0.00  0.00    -0.371 N 
HETATM   13  C   UNK N   1      40.630  20.515   1.535  0.00  0.00     0.130 C 
ATOM     14  HN  UNK N   1      42.140  19.405   0.950  1.00  0.00     0.161 HD
BRANCH  13  15
HETATM   15  N   UNK N   1      39.905  21.155   2.566  0.00  0.00    -0.380 N 
HETATM   16  H   UNK N   1      39.153  20.692   2.999  0.00  0.00     0.158 HD
HETATM   17  H   UNK N   1      40.153  22.065   2.849  0.00  0.00     0.158 HD
ENDBRANCH  13  15
BRANCH  13  18
HETATM   18  S   UNK N   1      40.076  20.696  -0.157  0.00  0.00    -0.108 SA
HETATM   19  H   UNK N   1      40.010  21.932  -0.723  0.00  0.00     0.110 HD
ENDBRANCH  13  18
ENDBRANCH  11  12
ENDBRANCH   1  11
TORSDOF 9
ENDMDL
MODEL 7
REMARK VINA RESULT:      -3.9      4.323      4.912
REMARK  9 active torsions:
REMARK  status: ('A' for Active; 'I' for Inactive)
REMARK    1  A    between atoms: C_2  and  N_1 
REMARK    2  A    between atoms: C_2  and  C_3 
REMARK    3  A    between atoms: C_2  and  C_11 
REMARK    4  A    between atoms: C_3  and  C_4 
REMARK    5  A    between atoms: C_4  and  C_5 
REMARK    6  A    between atoms: C_5  and  N_6 
REMARK    7  A    between atoms: C_8  and  N_9 
REMARK    8  A    between atoms: C_8  and  S_10 
REMARK    9  A    between atoms: C_11  and  O_12 
ROOT
HETATM    1  C   UNK N   1      29.147  16.832   6.127  0.00  0.00     0.022 C 
ENDROOT
BRANCH   1   2
HETATM    2  C   UNK N   1      29.836  17.701   7.169  0.00  0.00     0.037 C 
BRANCH   2   3
HETATM    3  C   UNK N   1      29.656  17.154   8.578  0.00  0.00     0.173 C 
BRANCH   3   4
HETATM    4  N   UNK N   1      30.967  16.850   9.130  0.00  0.00    -0.418 N 
HETATM    5  H   UNK N   1      31.749  17.488   8.984  0.00  0.00     0.150 HD
HETATM    6  H   UNK N   1      31.104  15.994   9.668  0.00  0.00     0.150 HD
ENDBRANCH   3   4
BRANCH   3   7
HETATM    7  C   UNK N   1      28.929  18.125   9.470  0.00  0.00     0.163 C 
HETATM    8  O   UNK N   1      29.552  18.800  10.273  0.00  0.00    -0.648 OA
BRANCH   7   9
HETATM    9  O   UNK N   1      27.592  18.276   9.372  0.00  0.00    -0.775 OA
HETATM   10  H   UNK N   1      27.088  17.856   8.704  0.00  0.00     0.167 HD
ENDBRANCH   7   9
ENDBRANCH   3   7
ENDBRANCH   2   3
ENDBRANCH   1   2
BRANCH   1  11
HETATM   11  C   UNK N   1      27.697  17.293   6.027  0.00  0.00     0.121 C 
BRANCH  11  12
HETATM   12  N   UNK N   1      27.411  18.702   6.271  0.00  0.00    -0.371 N 
HETATM   13  C   UNK N   1      27.520  19.707   5.462  0.00  0.00     0.130 C 
ATOM     14  HN  UNK N   1      27.080  18.928   7.210  1.00  0.00     0.161 HD
BRANCH  13  15
HETATM   15  N   UNK N   1      27.965  19.556   4.129  0.00  0.00    -0.380 N 
HETATM   16  H   UNK N   1      27.425  19.045   3.484  0.00  0.00     0.158 HD
HETATM   17  H   UNK N   1      28.816  19.963   3.845  0.00  0.00     0.158 HD
ENDBRANCH  13  15
BRANCH  13  18
HETATM   18  S   UNK N   1      27.056  21.335   6.042  0.00  0.00    -0.108 SA
HETATM   19  H   UNK N   1      25.793  21.562   6.493  0.00  0.00     0.110 HD
ENDBRANCH  13  18
ENDBRANCH  11  12
ENDBRANCH   1  11
TORSDOF 9
ENDMDL
MODEL 8
REMARK VINA RESULT:      -3.9     10.223     12.127
REMARK  9 active torsions:
REMARK  status: ('A' for Active; 'I' for Inactive)
REMARK    1  A    between atoms: C_2  and  N_1 
REMARK    2  A    between atoms: C_2  and  C_3 
REMARK    3  A    between atoms: C_2  and  C_11 
REMARK    4  A    between atoms: C_3  and  C_4 
REMARK    5  A    between atoms: C_4  and  C_5 
REMARK    6  A    between atoms: C_5  and  N_6 
REMARK    7  A    between atoms: C_8  and  N_9 
REMARK    8  A    between atoms: C_8  and  S_10 
REMARK    9  A    between atoms: C_11  and  O_12 
ROOT
HETATM    1  C   UNK N   1      21.607  18.193   4.027  0.00  0.00     0.022 C 
ENDROOT
BRANCH   1   2
HETATM    2  C   UNK N   1      21.527  19.542   3.329  0.00  0.00     0.037 C 
BRANCH   2   3
HETATM    3  C   UNK N   1      20.741  19.466   2.028  0.00  0.00     0.173 C 
BRANCH   3   4
HETATM    4  N   UNK N   1      19.335  19.268   2.344  0.00  0.00    -0.418 N 
HETATM    5  H   UNK N   1      18.637  19.948   2.044  0.00  0.00     0.150 HD
HETATM    6  H   UNK N   1      19.046  18.443   2.869  0.00  0.00     0.150 HD
ENDBRANCH   3   4
BRANCH   3   7
HETATM    7  C   UNK N   1      20.915  20.707   1.191  0.00  0.00     0.163 C 
HETATM    8  O   UNK N   1      21.090  20.611  -0.013  0.00  0.00    -0.648 OA
BRANCH   7   9
HETATM    9  O   UNK N   1      20.852  21.929   1.757  0.00  0.00    -0.775 OA
HETATM   10  H   UNK N   1      21.532  22.262   2.309  0.00  0.00     0.167 HD
ENDBRANCH   7   9
ENDBRANCH   3   7
ENDBRANCH   2   3
ENDBRANCH   1   2
BRANCH   1  11
HETATM   11  C   UNK N   1      23.074  17.919   4.337  0.00  0.00     0.121 C 
BRANCH  11  12
HETATM   12  N   UNK N   1      24.068  18.845   3.805  0.00  0.00    -0.371 N 
HETATM   13  C   UNK N   1      25.207  19.194   4.309  0.00  0.00     0.130 C 
ATOM     14  HN  UNK N   1      23.832  19.277   2.911  1.00  0.00     0.161 HD
BRANCH  13  15
HETATM   15  N   UNK N   1      25.676  18.682   5.541  0.00  0.00    -0.380 N 
HETATM   16  H   UNK N   1      25.998  17.754   5.597  0.00  0.00     0.158 HD
HETATM   17  H   UNK N   1      25.678  19.254   6.342  0.00  0.00     0.158 HD
ENDBRANCH  13  15
BRANCH  13  18
HETATM   18  S   UNK N   1      26.240  20.336   3.397  0.00  0.00    -0.108 SA
HETATM   19  H   UNK N   1      27.305  19.874   2.688  0.00  0.00     0.110 HD
ENDBRANCH  13  18
ENDBRANCH  11  12
ENDBRANCH   1  11
TORSDOF 9
ENDMDL
MODEL 9
REMARK VINA RESULT:      -3.8     11.443     12.785
REMARK  9 active torsions:
REMARK  status: ('A' for Active; 'I' for Inactive)
REMARK    1  A    between atoms: C_2  and  N_1 
REMARK    2  A    between atoms: C_2  and  C_3 
REMARK    3  A    between atoms: C_2  and  C_11 
REMARK    4  A    between atoms: C_3  and  C_4 
REMARK    5  A    between atoms: C_4  and  C_5 
REMARK    6  A    between atoms: C_5  and  N_6 
REMARK    7  A    between atoms: C_8  and  N_9 
REMARK    8  A    between atoms: C_8  and  S_10 
REMARK    9  A    between atoms: C_11  and  O_12 
ROOT
HETATM    1  C   UNK N   1      43.429  20.236   2.954  0.00  0.00     0.022 C 
ENDROOT
BRANCH   1   2
HETATM    2  C   UNK N   1      42.066  20.758   3.385  0.00  0.00     0.037 C 
BRANCH   2   3
HETATM    3  C   UNK N   1      41.177  21.085   2.194  0.00  0.00     0.173 C 
BRANCH   3   4
HETATM    4  N   UNK N   1      39.789  21.072   2.631  0.00  0.00    -0.418 N 
HETATM    5  H   UNK N   1      39.424  21.828   3.210  0.00  0.00     0.150 HD
HETATM    6  H   UNK N   1      39.179  20.302   2.357  0.00  0.00     0.150 HD
ENDBRANCH   3   4
BRANCH   3   7
HETATM    7  C   UNK N   1      41.517  22.419   1.585  0.00  0.00     0.163 C 
HETATM    8  O   UNK N   1      42.072  22.472   0.499  0.00  0.00    -0.648 OA
BRANCH   7   9
HETATM    9  O   UNK N   1      41.190  23.565   2.219  0.00  0.00    -0.775 OA
HETATM   10  H   UNK N   1      40.959  23.587   3.126  0.00  0.00     0.167 HD
ENDBRANCH   7   9
ENDBRANCH   3   7
ENDBRANCH   2   3
ENDBRANCH   1   2
BRANCH   1  11
HETATM   11  C   UNK N   1      44.488  21.129   3.590  0.00  0.00     0.121 C 
BRANCH  11  12
HETATM   12  N   UNK N   1      44.980  22.262   2.814  0.00  0.00    -0.371 N 
HETATM   13  C   UNK N   1      44.667  23.514   2.913  0.00  0.00     0.130 C 
ATOM     14  HN  UNK N   1      45.665  22.036   2.092  1.00  0.00     0.161 HD
BRANCH  13  15
HETATM   15  N   UNK N   1      43.733  23.984   3.865  0.00  0.00    -0.380 N 
HETATM   16  H   UNK N   1      43.859  23.782   4.820  0.00  0.00     0.158 HD
HETATM   17  H   UNK N   1      42.957  24.514   3.571  0.00  0.00     0.158 HD
ENDBRANCH  13  15
BRANCH  13  18
HETATM   18  S   UNK N   1      45.473  24.692   1.834  0.00  0.00    -0.108 SA
HETATM   19  H   UNK N   1      44.929  24.987   0.622  0.00  0.00     0.110 HD
ENDBRANCH  13  18
ENDBRANCH  11  12
ENDBRANCH   1  11
TORSDOF 9
ENDMDL
