MODEL 1
REMARK VINA RESULT:      -4.3      0.000      0.000
REMARK  6 active torsions:
REMARK  status: ('A' for Active; 'I' for Inactive)
REMARK    1  A    between atoms: O_1  and  C_2 
REMARK    2  A    between atoms: C_3  and  C_2 
REMARK    3  A    between atoms: C_5  and  S_6 
REMARK    4  A    between atoms: C_7  and  O_8 
REMARK    5  A    between atoms: C_9  and  O_10 
REMARK    6  A    between atoms: C_11  and  S_12 
ROOT
HETATM    1  C   UNK N   1      34.237  17.039   8.359  0.00  0.00     0.162 C 
HETATM    2  O   UNK N   1      35.238  16.792   9.319  0.00  0.00    -0.364 OA
HETATM    3  C   UNK N   1      35.274  15.405   9.563  0.00  0.00     0.211 C 
HETATM    4  C   UNK N   1      34.024  15.012  10.352  0.00  0.00     0.186 C 
HETATM    5  C   UNK N   1      32.809  15.319   9.484  0.00  0.00     0.166 C 
HETATM    6  C   UNK N   1      32.851  16.769   8.992  0.00  0.00     0.107 C 
ENDROOT
BRANCH   1   7
HETATM    7  C   UNK N   1      34.390  18.492   7.916  0.00  0.00     0.197 C 
BRANCH   7   8
HETATM    8  O   UNK N   1      35.400  19.139   8.628  0.00  0.00    -0.398 OA
HETATM    9  H   UNK N   1      35.443  20.075   8.881  0.00  0.00     0.209 HD
ENDBRANCH   7   8
ENDBRANCH   1   7
BRANCH   6  10
HETATM   10  S   UNK N   1      31.483  17.017   7.810  0.00  0.00    -0.172 SA
HETATM   11  H   UNK N   1      30.483  16.118   7.608  0.00  0.00     0.102 HD
ENDBRANCH   6  10
BRANCH   3  12
HETATM   12  S   UNK N   1      36.773  15.022  10.519  0.00  0.00    -0.148 SA
HETATM   13  H   UNK N   1      37.126  15.764  11.602  0.00  0.00     0.104 HD
ENDBRANCH   3  12
BRANCH   5  14
HETATM   14  O   UNK N   1      31.636  15.082  10.201  0.00  0.00    -0.392 OA
HETATM   15  H   UNK N   1      31.058  15.763  10.577  0.00  0.00     0.210 HD
ENDBRANCH   5  14
BRANCH   4  16
HETATM   16  O   UNK N   1      34.047  13.648  10.655  0.00  0.00    -0.390 OA
HETATM   17  H   UNK N   1      33.357  13.158  11.129  0.00  0.00     0.210 HD
ENDBRANCH   4  16
TORSDOF 6
ENDMDL
MODEL 2
REMARK VINA RESULT:      -4.1      1.890      4.585
REMARK  6 active torsions:
REMARK  status: ('A' for Active; 'I' for Inactive)
REMARK    1  A    between atoms: O_1  and  C_2 
REMARK    2  A    between atoms: C_3  and  C_2 
REMARK    3  A    between atoms: C_5  and  S_6 
REMARK    4  A    between atoms: C_7  and  O_8 
REMARK    5  A    between atoms: C_9  and  O_10 
REMARK    6  A    between atoms: C_11  and  S_12 
ROOT
HETATM    1  C   UNK N   1      33.713  15.291   8.820  0.00  0.00     0.162 C 
HETATM    2  O   UNK N   1      32.688  15.388   7.859  0.00  0.00    -0.364 OA
HETATM    3  C   UNK N   1      33.241  15.942   6.688  0.00  0.00     0.211 C 
HETATM    4  C   UNK N   1      33.536  17.422   6.936  0.00  0.00     0.186 C 
HETATM    5  C   UNK N   1      34.574  17.511   8.048  0.00  0.00     0.166 C 
HETATM    6  C   UNK N   1      34.118  16.713   9.274  0.00  0.00     0.107 C 
ENDROOT
BRANCH   1   7
HETATM    7  C   UNK N   1      33.167  14.455   9.975  0.00  0.00     0.197 C 
BRANCH   7   8
HETATM    8  O   UNK N   1      32.170  15.137  10.672  0.00  0.00    -0.398 OA
HETATM    9  H   UNK N   1      31.843  16.037  10.513  0.00  0.00     0.209 HD
ENDBRANCH   7   8
ENDBRANCH   1   7
BRANCH   6  10
HETATM   10  S   UNK N   1      35.478  16.698  10.491  0.00  0.00    -0.172 SA
HETATM   11  H   UNK N   1      36.763  17.033  10.196  0.00  0.00     0.102 HD
ENDBRANCH   6  10
BRANCH   3  12
HETATM   12  S   UNK N   1      32.041  15.754   5.334  0.00  0.00    -0.148 SA
HETATM   13  H   UNK N   1      31.311  14.616   5.194  0.00  0.00     0.104 HD
ENDBRANCH   3  12
BRANCH   5  14
HETATM   14  O   UNK N   1      34.797  18.844   8.390  0.00  0.00    -0.392 OA
HETATM   15  H   UNK N   1      34.110  19.491   8.615  0.00  0.00     0.210 HD
ENDBRANCH   5  14
BRANCH   4  16
HETATM   16  O   UNK N   1      34.043  18.020   5.778  0.00  0.00    -0.390 OA
HETATM   17  H   UNK N   1      34.471  18.888   5.726  0.00  0.00     0.210 HD
ENDBRANCH   4  16
TORSDOF 6
ENDMDL
MODEL 3
REMARK VINA RESULT:      -4.1      1.795      4.376
REMARK  6 active torsions:
REMARK  status: ('A' for Active; 'I' for Inactive)
REMARK    1  A    between atoms: O_1  and  C_2 
REMARK    2  A    between atoms: C_3  and  C_2 
REMARK    3  A    between atoms: C_5  and  S_6 
REMARK    4  A    between atoms: C_7  and  O_8 
REMARK    5  A    between atoms: C_9  and  O_10 
REMARK    6  A    between atoms: C_11  and  S_12 
ROOT
HETATM    1  C   UNK N   1      34.284  14.447   8.599  0.00  0.00     0.162 C 
HETATM    2  O   UNK N   1      33.559  15.328   7.774  0.00  0.00    -0.364 OA
HETATM    3  C   UNK N   1      34.344  16.479   7.569  0.00  0.00     0.211 C 
HETATM    4  C   UNK N   1      34.387  17.282   8.870  0.00  0.00     0.186 C 
HETATM    5  C   UNK N   1      35.061  16.419   9.929  0.00  0.00     0.166 C 
HETATM    6  C   UNK N   1      34.381  15.050  10.021  0.00  0.00     0.107 C 
ENDROOT
BRANCH   1   7
HETATM    7  C   UNK N   1      33.542  13.113   8.593  0.00  0.00     0.197 C 
BRANCH   7   8
HETATM    8  O   UNK N   1      32.308  13.212   9.236  0.00  0.00    -0.398 OA
HETATM    9  H   UNK N   1      31.546  13.754   8.979  0.00  0.00     0.209 HD
ENDBRANCH   7   8
ENDBRANCH   1   7
BRANCH   6  10
HETATM   10  S   UNK N   1      35.347  14.001  11.161  0.00  0.00    -0.172 SA
HETATM   11  H   UNK N   1      34.792  13.107  12.022  0.00  0.00     0.102 HD
ENDBRANCH   6  10
BRANCH   3  12
HETATM   12  S   UNK N   1      33.593  17.465   6.239  0.00  0.00    -0.148 SA
HETATM   13  H   UNK N   1      32.516  18.261   6.474  0.00  0.00     0.104 HD
ENDBRANCH   3  12
BRANCH   5  14
HETATM   14  O   UNK N   1      35.026  17.064  11.166  0.00  0.00    -0.392 OA
HETATM   15  H   UNK N   1      35.771  17.144  11.781  0.00  0.00     0.210 HD
ENDBRANCH   5  14
BRANCH   4  16
HETATM   16  O   UNK N   1      35.120  18.459   8.693  0.00  0.00    -0.390 OA
HETATM   17  H   UNK N   1      34.776  19.362   8.773  0.00  0.00     0.210 HD
ENDBRANCH   4  16
TORSDOF 6
ENDMDL
MODEL 4
REMARK VINA RESULT:      -4.1      3.394      4.257
REMARK  6 active torsions:
REMARK  status: ('A' for Active; 'I' for Inactive)
REMARK    1  A    between atoms: O_1  and  C_2 
REMARK    2  A    between atoms: C_3  and  C_2 
REMARK    3  A    between atoms: C_5  and  S_6 
REMARK    4  A    between atoms: C_7  and  O_8 
REMARK    5  A    between atoms: C_9  and  O_10 
REMARK    6  A    between atoms: C_11  and  S_12 
ROOT
HETATM    1  C   UNK N   1      36.962  13.409  10.220  0.00  0.00     0.162 C 
HETATM    2  O   UNK N   1      37.446  13.174  11.522  0.00  0.00    -0.364 OA
HETATM    3  C   UNK N   1      36.453  12.476  12.236  0.00  0.00     0.211 C 
HETATM    4  C   UNK N   1      35.298  13.434  12.533  0.00  0.00     0.186 C 
HETATM    5  C   UNK N   1      34.709  13.884  11.201  0.00  0.00     0.166 C 
HETATM    6  C   UNK N   1      35.807  14.437  10.287  0.00  0.00     0.107 C 
ENDROOT
BRANCH   1   7
HETATM    7  C   UNK N   1      38.137  13.923   9.391  0.00  0.00     0.197 C 
BRANCH   7   8
HETATM    8  O   UNK N   1      38.741  15.028   9.991  0.00  0.00    -0.398 OA
HETATM    9  H   UNK N   1      39.435  15.597   9.625  0.00  0.00     0.209 HD
ENDBRANCH   7   8
ENDBRANCH   1   7
BRANCH   6  10
HETATM   10  S   UNK N   1      35.078  14.777   8.650  0.00  0.00    -0.172 SA
HETATM   11  H   UNK N   1      33.952  15.516   8.460  0.00  0.00     0.102 HD
ENDBRANCH   6  10
BRANCH   3  12
HETATM   12  S   UNK N   1      37.177  11.857  13.784  0.00  0.00    -0.148 SA
HETATM   13  H   UNK N   1      37.067  10.549  14.139  0.00  0.00     0.104 HD
ENDBRANCH   3  12
BRANCH   5  14
HETATM   14  O   UNK N   1      33.722  14.846  11.414  0.00  0.00    -0.392 OA
HETATM   15  H   UNK N   1      33.865  15.725  11.798  0.00  0.00     0.210 HD
ENDBRANCH   5  14
BRANCH   4  16
HETATM   16  O   UNK N   1      34.310  12.789  13.284  0.00  0.00    -0.390 OA
HETATM   17  H   UNK N   1      33.360  12.982  13.261  0.00  0.00     0.210 HD
ENDBRANCH   4  16
TORSDOF 6
ENDMDL
MODEL 5
REMARK VINA RESULT:      -4.1      6.580      8.316
REMARK  6 active torsions:
REMARK  status: ('A' for Active; 'I' for Inactive)
REMARK    1  A    between atoms: O_1  and  C_2 
REMARK    2  A    between atoms: C_3  and  C_2 
REMARK    3  A    between atoms: C_5  and  S_6 
REMARK    4  A    between atoms: C_7  and  O_8 
REMARK    5  A    between atoms: C_9  and  O_10 
REMARK    6  A    between atoms: C_11  and  S_12 
ROOT
HETATM    1  C   UNK N   1      27.881  17.888   7.054  0.00  0.00     0.162 C 
HETATM    2  O   UNK N   1      27.884  19.296   7.093  0.00  0.00    -0.364 OA
HETATM    3  C   UNK N   1      27.254  19.764   5.923  0.00  0.00     0.211 C 
HETATM    4  C   UNK N   1      28.180  19.513   4.732  0.00  0.00     0.186 C 
HETATM    5  C   UNK N   1      28.379  18.007   4.605  0.00  0.00     0.166 C 
HETATM    6  C   UNK N   1      28.840  17.410   5.938  0.00  0.00     0.107 C 
ENDROOT
BRANCH   1   7
HETATM    7  C   UNK N   1      28.322  17.401   8.433  0.00  0.00     0.197 C 
BRANCH   7   8
HETATM    8  O   UNK N   1      27.512  17.924   9.441  0.00  0.00    -0.398 OA
HETATM    9  H   UNK N   1      27.725  18.026  10.382  0.00  0.00     0.209 HD
ENDBRANCH   7   8
ENDBRANCH   1   7
BRANCH   6  10
HETATM   10  S   UNK N   1      28.874  15.593   5.775  0.00  0.00    -0.172 SA
HETATM   11  H   UNK N   1      28.793  14.936   4.587  0.00  0.00     0.102 HD
ENDBRANCH   6  10
BRANCH   3  12
HETATM   12  S   UNK N   1      26.930  21.544   6.110  0.00  0.00    -0.148 SA
HETATM   13  H   UNK N   1      26.251  22.027   7.184  0.00  0.00     0.104 HD
ENDBRANCH   3  12
BRANCH   5  14
HETATM   14  O   UNK N   1      29.306  17.730   3.600  0.00  0.00    -0.392 OA
HETATM   15  H   UNK N   1      29.762  18.390   3.056  0.00  0.00     0.210 HD
ENDBRANCH   5  14
BRANCH   4  16
HETATM   16  O   UNK N   1      27.609  20.008   3.556  0.00  0.00    -0.390 OA
HETATM   17  H   UNK N   1      27.634  20.930   3.255  0.00  0.00     0.210 HD
ENDBRANCH   4  16
TORSDOF 6
ENDMDL
MODEL 6
REMARK VINA RESULT:      -4.0      2.665      4.231
REMARK  6 active torsions:
REMARK  status: ('A' for Active; 'I' for Inactive)
REMARK    1  A    between atoms: O_1  and  C_2 
REMARK    2  A    between atoms: C_3  and  C_2 
REMARK    3  A    between atoms: C_5  and  S_6 
REMARK    4  A    between atoms: C_7  and  O_8 
REMARK    5  A    between atoms: C_9  and  O_10 
REMARK    6  A    between atoms: C_11  and  S_12 
ROOT
HETATM    1  C   UNK N   1      34.004  14.225  10.120  0.00  0.00     0.162 C 
HETATM    2  O   UNK N   1      34.531  12.999  10.570  0.00  0.00    -0.364 OA
HETATM    3  C   UNK N   1      35.072  13.202  11.854  0.00  0.00     0.211 C 
HETATM    4  C   UNK N   1      36.352  14.028  11.723  0.00  0.00     0.186 C 
HETATM    5  C   UNK N   1      35.975  15.384  11.137  0.00  0.00     0.166 C 
HETATM    6  C   UNK N   1      35.168  15.207   9.847  0.00  0.00     0.107 C 
ENDROOT
BRANCH   1   7
HETATM    7  C   UNK N   1      33.196  13.931   8.859  0.00  0.00     0.197 C 
BRANCH   7   8
HETATM    8  O   UNK N   1      32.283  12.898   9.067  0.00  0.00    -0.398 OA
HETATM    9  H   UNK N   1      31.654  12.523   8.430  0.00  0.00     0.209 HD
ENDBRANCH   7   8
ENDBRANCH   1   7
BRANCH   6  10
HETATM   10  S   UNK N   1      34.586  16.848   9.302  0.00  0.00    -0.172 SA
HETATM   11  H   UNK N   1      35.403  17.819   8.813  0.00  0.00     0.102 HD
ENDBRANCH   6  10
BRANCH   3  12
HETATM   12  S   UNK N   1      35.436  11.582  12.595  0.00  0.00    -0.148 SA
HETATM   13  H   UNK N   1      35.655  10.487  11.819  0.00  0.00     0.104 HD
ENDBRANCH   3  12
BRANCH   5  14
HETATM   14  O   UNK N   1      37.124  16.137  10.893  0.00  0.00    -0.392 OA
HETATM   15  H   UNK N   1      37.145  17.020  10.495  0.00  0.00     0.210 HD
ENDBRANCH   5  14
BRANCH   4  16
HETATM   16  O   UNK N   1      36.946  14.211  12.975  0.00  0.00    -0.390 OA
HETATM   17  H   UNK N   1      36.987  15.045  13.470  0.00  0.00     0.210 HD
ENDBRANCH   4  16
TORSDOF 6
ENDMDL
MODEL 7
REMARK VINA RESULT:      -3.9     12.603     14.012
REMARK  6 active torsions:
REMARK  status: ('A' for Active; 'I' for Inactive)
REMARK    1  A    between atoms: O_1  and  C_2 
REMARK    2  A    between atoms: C_3  and  C_2 
REMARK    3  A    between atoms: C_5  and  S_6 
REMARK    4  A    between atoms: C_7  and  O_8 
REMARK    5  A    between atoms: C_9  and  O_10 
REMARK    6  A    between atoms: C_11  and  S_12 
ROOT
HETATM    1  C   UNK N   1      21.614  20.059   2.051  0.00  0.00     0.162 C 
HETATM    2  O   UNK N   1      22.761  20.718   2.530  0.00  0.00    -0.364 OA
HETATM    3  C   UNK N   1      23.672  19.740   2.975  0.00  0.00     0.211 C 
HETATM    4  C   UNK N   1      23.138  19.125   4.270  0.00  0.00     0.186 C 
HETATM    5  C   UNK N   1      21.813  18.444   3.952  0.00  0.00     0.166 C 
HETATM    6  C   UNK N   1      20.865  19.415   3.242  0.00  0.00     0.107 C 
ENDROOT
BRANCH   1   7
HETATM    7  C   UNK N   1      20.760  21.105   1.337  0.00  0.00     0.197 C 
BRANCH   7   8
HETATM    8  O   UNK N   1      20.743  20.894  -0.042  0.00  0.00    -0.398 OA
HETATM    9  H   UNK N   1      21.076  21.483  -0.737  0.00  0.00     0.209 HD
ENDBRANCH   7   8
ENDBRANCH   1   7
BRANCH   6  10
HETATM   10  S   UNK N   1      19.380  18.492   2.718  0.00  0.00    -0.172 SA
HETATM   11  H   UNK N   1      18.482  17.948   3.582  0.00  0.00     0.102 HD
ENDBRANCH   6  10
BRANCH   3  12
HETATM   12  S   UNK N   1      25.282  20.534   3.267  0.00  0.00    -0.148 SA
HETATM   13  H   UNK N   1      26.231  20.579   2.294  0.00  0.00     0.104 HD
ENDBRANCH   3  12
BRANCH   5  14
HETATM   14  O   UNK N   1      21.228  17.961   5.123  0.00  0.00    -0.392 OA
HETATM   15  H   UNK N   1      21.288  17.050   5.449  0.00  0.00     0.210 HD
ENDBRANCH   5  14
BRANCH   4  16
HETATM   16  O   UNK N   1      24.039  18.181   4.770  0.00  0.00    -0.390 OA
HETATM   17  H   UNK N   1      24.487  18.219   5.629  0.00  0.00     0.210 HD
ENDBRANCH   4  16
TORSDOF 6
ENDMDL
MODEL 8
REMARK VINA RESULT:      -3.9      3.630      5.366
REMARK  6 active torsions:
REMARK  status: ('A' for Active; 'I' for Inactive)
REMARK    1  A    between atoms: O_1  and  C_2 
REMARK    2  A    between atoms: C_3  and  C_2 
REMARK    3  A    between atoms: C_5  and  S_6 
REMARK    4  A    between atoms: C_7  and  O_8 
REMARK    5  A    between atoms: C_9  and  O_10 
REMARK    6  A    between atoms: C_11  and  S_12 
ROOT
HETATM    1  C   UNK N   1      35.794  14.673  11.788  0.00  0.00     0.162 C 
HETATM    2  O   UNK N   1      35.246  14.137  12.970  0.00  0.00    -0.364 OA
HETATM    3  C   UNK N   1      36.307  13.671  13.769  0.00  0.00     0.211 C 
HETATM    4  C   UNK N   1      36.886  12.408  13.129  0.00  0.00     0.186 C 
HETATM    5  C   UNK N   1      37.442  12.790  11.763  0.00  0.00     0.166 C 
HETATM    6  C   UNK N   1      36.381  13.523  10.936  0.00  0.00     0.107 C 
ENDROOT
BRANCH   1   7
HETATM    7  C   UNK N   1      34.668  15.405  11.063  0.00  0.00     0.197 C 
BRANCH   7   8
HETATM    8  O   UNK N   1      33.433  14.799  11.295  0.00  0.00    -0.398 OA
HETATM    9  H   UNK N   1      33.088  13.983  10.901  0.00  0.00     0.209 HD
ENDBRANCH   7   8
ENDBRANCH   1   7
BRANCH   6  10
HETATM   10  S   UNK N   1      37.160  14.120   9.397  0.00  0.00    -0.172 SA
HETATM   11  H   UNK N   1      38.334  14.806   9.358  0.00  0.00     0.102 HD
ENDBRANCH   6  10
BRANCH   3  12
HETATM   12  S   UNK N   1      35.665  13.302  15.430  0.00  0.00    -0.148 SA
HETATM   13  H   UNK N   1      36.001  12.154  16.076  0.00  0.00     0.104 HD
ENDBRANCH   3  12
BRANCH   5  14
HETATM   14  O   UNK N   1      37.883  11.651  11.089  0.00  0.00    -0.392 OA
HETATM   15  H   UNK N   1      37.394  10.817  11.012  0.00  0.00     0.210 HD
ENDBRANCH   5  14
BRANCH   4  16
HETATM   16  O   UNK N   1      37.913  11.886  13.920  0.00  0.00    -0.390 OA
HETATM   17  H   UNK N   1      38.225  10.967  13.917  0.00  0.00     0.210 HD
ENDBRANCH   4  16
TORSDOF 6
ENDMDL
MODEL 9
REMARK VINA RESULT:      -3.9     13.794     15.433
REMARK  6 active torsions:
REMARK  status: ('A' for Active; 'I' for Inactive)
REMARK    1  A    between atoms: O_1  and  C_2 
REMARK    2  A    between atoms: C_3  and  C_2 
REMARK    3  A    between atoms: C_5  and  S_6 
REMARK    4  A    between atoms: C_7  and  O_8 
REMARK    5  A    between atoms: C_9  and  O_10 
REMARK    6  A    between atoms: C_11  and  S_12 
ROOT
HETATM    1  C   UNK N   1      30.981  22.226  -5.375  0.00  0.00     0.162 C 
HETATM    2  O   UNK N   1      29.683  22.412  -4.861  0.00  0.00    -0.364 OA
HETATM    3  C   UNK N   1      29.779  23.236  -3.724  0.00  0.00     0.211 C 
HETATM    4  C   UNK N   1      30.419  22.435  -2.589  0.00  0.00     0.186 C 
HETATM    5  C   UNK N   1      31.827  22.048  -3.026  0.00  0.00     0.166 C 
HETATM    6  C   UNK N   1      31.795  21.352  -4.390  0.00  0.00     0.107 C 
ENDROOT
BRANCH   1   7
HETATM    7  C   UNK N   1      30.832  21.560  -6.741  0.00  0.00     0.197 C 
BRANCH   7   8
HETATM    8  O   UNK N   1      30.260  20.293  -6.631  0.00  0.00    -0.398 OA
HETATM    9  H   UNK N   1      29.694  19.956  -5.919  0.00  0.00     0.209 HD
ENDBRANCH   7   8
ENDBRANCH   1   7
BRANCH   6  10
HETATM   10  S   UNK N   1      33.514  21.089  -4.944  0.00  0.00    -0.172 SA
HETATM   11  H   UNK N   1      34.470  22.056  -4.934  0.00  0.00     0.102 HD
ENDBRANCH   6  10
BRANCH   3  12
HETATM   12  S   UNK N   1      28.108  23.776  -3.254  0.00  0.00    -0.148 SA
HETATM   13  H   UNK N   1      27.015  23.020  -3.546  0.00  0.00     0.104 HD
ENDBRANCH   3  12
BRANCH   5  14
HETATM   14  O   UNK N   1      32.415  21.220  -2.070  0.00  0.00    -0.392 OA
HETATM   15  H   UNK N   1      32.763  21.507  -1.213  0.00  0.00     0.210 HD
ENDBRANCH   5  14
BRANCH   4  16
HETATM   16  O   UNK N   1      30.488  23.205  -1.425  0.00  0.00    -0.390 OA
HETATM   17  H   UNK N   1      29.914  23.118  -0.648  0.00  0.00     0.210 HD
ENDBRANCH   4  16
TORSDOF 6
ENDMDL
