REMARK  9 active torsions:
REMARK  status: ('A' for Active; 'I' for Inactive)
REMARK    1  A    between atoms: C_16  and  C_13 
REMARK    2  A    between atoms: C_21  and  C_13 
REMARK    3  A    between atoms: C_17  and  C_14 
REMARK    4  A    between atoms: C_25  and  C_14 
REMARK    5  A    between atoms: C_22  and  C_18 
REMARK    6  A    between atoms: O_30  and  C_19 
REMARK    7  A    between atoms: O_31  and  C_20 
REMARK    8  A    between atoms: C_25  and  O_34 
REMARK    9  A    between atoms: O_34  and  O_33 
ROOT
HETATM    1  C   UNK N   1       2.147  -0.038   0.210  0.00  0.00     0.131 C 
HETATM    2  C   UNK N   1       1.795   2.868   0.068  0.00  0.00     0.150 C 
HETATM    3  C   UNK N   1       3.231   0.745   0.086  0.00  0.00     0.055 C 
HETATM    4  C   UNK N   1       0.653   1.891  -0.051  0.00  0.00     0.112 A 
HETATM    5  C   UNK N   1      -0.311  -0.062   0.132  0.00  0.00     0.288 A 
HETATM    6  C   UNK N   1      -1.413   0.950  -0.100  0.00  0.00     0.255 A 
HETATM    7  N   UNK N   1       3.079   2.171  -0.071  0.00  0.00    -0.377 N 
HETATM    8  N   UNK N   1      -0.601   2.173  -0.154  0.00  0.00    -0.336 N 
ATOM      9  HN  UNK N   1      -0.977   3.115  -0.258  1.00  0.00     0.164 HD
HETATM   10  N   UNK N   1       0.869   0.542   0.116  0.00  0.00    -0.274 N 
HETATM   11  O   UNK N   1      -0.456  -1.265   0.287  0.00  0.00    -0.267 OA
HETATM   12  H   UNK N   1       3.879   2.705  -0.282  0.00  0.00     0.160 HD
ENDROOT
BRANCH   6  13
HETATM   13  C   UNK N   1      -2.390   1.011   1.086  0.00  0.00     0.113 C 
BRANCH  13  14
HETATM   14  C   UNK N   1      -3.792   1.359   0.692  0.00  0.00    -0.053 A 
HETATM   15  C   UNK N   1      -4.130   2.630   0.205  0.00  0.00     0.010 A 
HETATM   16  C   UNK N   1      -5.449   2.895  -0.189  0.00  0.00     0.037 A 
HETATM   17  C   UNK N   1      -6.422   1.891  -0.104  0.00  0.00     0.065 A 
HETATM   18  C   UNK N   1      -6.081   0.628   0.383  0.00  0.00     0.037 A 
HETATM   19  C   UNK N   1      -4.770   0.365   0.781  0.00  0.00     0.010 A 
BRANCH  17  20
HETATM   20  O   UNK N   1      -7.684   2.139  -0.490  0.00  0.00    -0.361 OA
HETATM   21  H   UNK N   1      -7.974   2.988  -0.760  0.00  0.00     0.217 HD
ENDBRANCH  17  20
ENDBRANCH  13  14
ENDBRANCH   6  13
BRANCH   6  22
HETATM   22  O   UNK N   1      -2.049   0.738  -1.346  0.00  0.00    -0.199 OA
BRANCH  22  23
HETATM   23  O   UNK N   1      -2.566  -0.479  -1.325  0.00  0.00    -0.247 OA
HETATM   24  H   UNK N   1      -3.528  -0.597  -1.309  0.00  0.00     0.253 HD
ENDBRANCH  22  23
ENDBRANCH   6  22
BRANCH   2  25
HETATM   25  C   UNK N   1       1.708   4.082  -0.871  0.00  0.00     0.037 C 
BRANCH  25  26
HETATM   26  C   UNK N   1       0.428   4.934  -0.702  0.00  0.00    -0.012 C 
HETATM   27  C   UNK N   1       0.675   6.392  -1.018  0.00  0.00     0.005 C 
HETATM   28  C   UNK N   1      -0.453   7.143  -0.320  0.00  0.00     0.000 C 
HETATM   29  C   UNK N   1      -1.098   6.164   0.648  0.00  0.00     0.000 C 
HETATM   30  C   UNK N   1      -0.162   4.980   0.693  0.00  0.00     0.005 C 
ENDBRANCH  25  26
ENDBRANCH   2  25
BRANCH   3  31
HETATM   31  C   UNK N   1       4.574   0.110   0.083  0.00  0.00    -0.008 A 
HETATM   32  C   UNK N   1       4.697  -1.276   0.297  0.00  0.00     0.016 A 
HETATM   33  C   UNK N   1       5.946  -1.894   0.265  0.00  0.00     0.037 A 
HETATM   34  C   UNK N   1       7.089  -1.137   0.011  0.00  0.00     0.065 A 
HETATM   35  C   UNK N   1       6.982   0.242  -0.202  0.00  0.00     0.037 A 
HETATM   36  C   UNK N   1       5.728   0.866  -0.164  0.00  0.00     0.016 A 
BRANCH  34  37
HETATM   37  O   UNK N   1       8.291  -1.735  -0.031  0.00  0.00    -0.361 OA
HETATM   38  H   UNK N   1       8.348  -2.670  -0.061  0.00  0.00     0.217 HD
ENDBRANCH  34  37
ENDBRANCH   3  31
TORSDOF 9
