REMARK  8 active torsions:
REMARK  status: ('A' for Active; 'I' for Inactive)
REMARK    1  A    between atoms: C_1  and  O_7 
REMARK    2  A    between atoms: C_2  and  O_8 
REMARK    3  A    between atoms: C_3  and  C_5 
REMARK    4  A    between atoms: C_4  and  O_16 
REMARK    5  A    between atoms: O_10  and  C_5 
REMARK    6  A    between atoms: C_6  and  O_11 
REMARK    7  A    between atoms: S_17  and  O_12 
REMARK    8  A    between atoms: S_17  and  O_16 
ROOT
HETATM    1  C   UNK N   1       1.957   1.172  -0.272  0.00  0.00     0.189 C 
HETATM    2  C   UNK N   1       0.632   1.902   0.062  0.00  0.00     0.185 C 
HETATM    3  C   UNK N   1       2.041  -0.200   0.442  0.00  0.00     0.253 C 
HETATM    4  C   UNK N   1      -0.407   0.929   0.654  0.00  0.00     0.230 C 
HETATM    5  C   UNK N   1      -0.314  -0.458  -0.046  0.00  0.00     0.291 C 
HETATM    6  O   UNK N   1       0.984  -1.051   0.009  0.00  0.00    -0.340 OA
ENDROOT
BRANCH   4   7
HETATM    7  O   UNK N   1      -1.695   1.530   0.784  0.00  0.00    -0.251 OA
BRANCH   7   8
HETATM    8  S   UNK N   1      -2.745   1.199  -0.558  0.00  0.00     0.241 S 
HETATM    9  O   UNK N   1      -3.039   2.663  -0.195  0.00  0.00    -0.579 OA
HETATM   10  O   UNK N   1      -3.259   0.408   0.656  0.00  0.00    -0.579 OA
BRANCH   8  11
HETATM   11  O   UNK N   1      -4.456   1.307  -0.467  0.00  0.00    -0.274 OA
HETATM   12  H   UNK N   1      -4.887   2.174  -0.416  0.00  0.00     0.234 HD
ENDBRANCH   8  11
ENDBRANCH   7   8
ENDBRANCH   4   7
BRANCH   2  13
HETATM   13  O   UNK N   1       0.151   2.522  -1.094  0.00  0.00    -0.390 OA
HETATM   14  H   UNK N   1       0.357   3.026  -1.897  0.00  0.00     0.210 HD
ENDBRANCH   2  13
BRANCH   5  15
HETATM   15  O   UNK N   1      -1.209  -1.342   0.557  0.00  0.00    -0.368 OA
HETATM   16  H   UNK N   1      -2.053  -1.111   0.977  0.00  0.00     0.212 HD
ENDBRANCH   5  15
BRANCH   1  17
HETATM   17  O   UNK N   1       3.041   1.997   0.042  0.00  0.00    -0.390 OA
HETATM   18  H   UNK N   1       3.913   1.632   0.260  0.00  0.00     0.210 HD
ENDBRANCH   1  17
BRANCH   3  19
HETATM   19  C   UNK N   1       3.358  -0.881   0.156  0.00  0.00     0.172 C 
HETATM   20  O   UNK N   1       3.380  -1.971  -0.409  0.00  0.00    -0.648 OA
BRANCH  19  21
HETATM   21  O   UNK N   1       4.513  -0.319   0.546  0.00  0.00    -0.774 OA
HETATM   22  H   UNK N   1       5.256  -0.821   0.817  0.00  0.00     0.167 HD
ENDBRANCH  19  21
ENDBRANCH   3  19
TORSDOF 8
