MODEL 1
REMARK VINA RESULT:      -6.0      0.000      0.000
REMARK  16 active torsions:
REMARK  status: ('A' for Active; 'I' for Inactive)
REMARK    1  A    between atoms: O_1  and  C_2 
REMARK    2  A    between atoms: C_2  and  C_3 
REMARK    3  A    between atoms: C_3  and  O_4 
REMARK    4  A    between atoms: C_3  and  C_5 
REMARK    5  A    between atoms: C_5  and  O_6 
REMARK    6  A    between atoms: C_5  and  C_7 
REMARK    7  A    between atoms: C_7  and  O_8 
REMARK    8  A    between atoms: C_7  and  C_9 
REMARK    9  A    between atoms: C_9  and  N_10 
REMARK   10  A    between atoms: N_13  and  C_14 
REMARK   11  A    between atoms: C_14  and  C_15 
REMARK   12  A    between atoms: C_15  and  C_16 
REMARK   13  A    between atoms: C_16  and  O_17 
REMARK   14  A    between atoms: O_17  and  P_18 
REMARK   15  A    between atoms: P_18  and  O_19 
REMARK   16  A    between atoms: P_18  and  O_20 
ROOT
HETATM    1  N   UNK N   1      35.856  14.020  12.025  0.00  0.00    -0.280 N 
HETATM    2  C   UNK N   1      35.092  12.902  11.860  0.00  0.00     0.331 A 
HETATM    3  O   UNK N   1      34.654  12.534  10.784  0.00  0.00    -0.246 OA
HETATM    4  N   UNK N   1      34.894  12.239  13.040  0.00  0.00    -0.291 N 
HETATM    5  C   UNK N   1      35.558  12.966  13.957  0.00  0.00     0.152 A 
HETATM    6  C   UNK N   1      36.131  14.043  13.349  0.00  0.00     0.148 A 
HETATM    7  N   UNK N   1      36.853  14.961  14.033  0.00  0.00    -0.292 N 
HETATM    8  C   UNK N   1      37.013  14.786  15.394  0.00  0.00     0.328 A 
HETATM    9  O   UNK N   1      37.655  15.594  16.039  0.00  0.00    -0.247 OA
HETATM   10  N   UNK N   1      36.447  13.693  16.029  0.00  0.00    -0.273 N 
HETATM   11  C   UNK N   1      35.712  12.768  15.324  0.00  0.00     0.280 A 
HETATM   12  O   UNK N   1      35.217  11.810  15.889  0.00  0.00    -0.265 OA
HETATM   13  H   UNK N   1      37.255  15.734  13.574  0.00  0.00     0.172 HD
HETATM   14  H   UNK N   1      36.572  13.576  16.999  0.00  0.00     0.173 HD
ENDROOT
BRANCH   1  15
HETATM   15  C   UNK N   1      36.246  14.927  10.943  0.00  0.00     0.170 C 
BRANCH  15  16
HETATM   16  C   UNK N   1      35.207  15.996  10.638  0.00  0.00     0.168 C 
BRANCH  16  17
HETATM   17  C   UNK N   1      34.530  15.711   9.297  0.00  0.00     0.179 C 
BRANCH  17  18
HETATM   18  C   UNK N   1      33.033  15.477   9.497  0.00  0.00     0.173 C 
BRANCH  18  19
HETATM   19  C   UNK N   1      32.531  14.413   8.534  0.00  0.00     0.198 C 
BRANCH  19  20
HETATM   20  O   UNK N   1      32.383  13.196   9.198  0.00  0.00    -0.398 OA
HETATM   21  H   UNK N   1      31.505  12.794   9.287  0.00  0.00     0.209 HD
ENDBRANCH  19  20
ENDBRANCH  18  19
BRANCH  18  22
HETATM   22  O   UNK N   1      32.779  15.082  10.813  0.00  0.00    -0.391 OA
HETATM   23  H   UNK N   1      32.076  15.080  11.482  0.00  0.00     0.210 HD
ENDBRANCH  18  22
ENDBRANCH  17  18
BRANCH  17  24
HETATM   24  O   UNK N   1      35.109  14.592   8.688  0.00  0.00    -0.390 OA
HETATM   25  H   UNK N   1      35.575  13.744   8.747  0.00  0.00     0.210 HD
ENDBRANCH  17  24
ENDBRANCH  16  17
BRANCH  16  26
HETATM   26  O   UNK N   1      35.832  17.245  10.587  0.00  0.00    -0.391 OA
HETATM   27  H   UNK N   1      36.155  18.059  10.173  0.00  0.00     0.210 HD
ENDBRANCH  16  26
ENDBRANCH  15  16
ENDBRANCH   1  15
BRANCH   4  28
HETATM   28  C   UNK N   1      34.137  11.015  13.269  0.00  0.00     0.136 C 
BRANCH  28  29
HETATM   29  C   UNK N   1      34.996   9.793  12.987  0.00  0.00     0.047 C 
BRANCH  29  30
HETATM   30  C   UNK N   1      34.581   9.142  11.679  0.00  0.00     0.182 C 
BRANCH  30  31
HETATM   31  O   UNK N   1      33.236   9.411  11.430  0.00  0.00    -0.297 OA
BRANCH  31  32
HETATM   32  P   UNK N   1      33.076   9.475   9.693  0.00  0.00     0.390 P 
HETATM   33  O   UNK N   1      31.852  10.362   9.328  0.00  0.00    -0.632 OA
BRANCH  32  34
HETATM   34  O   UNK N   1      34.460  10.246   8.989  0.00  0.00    -0.307 OA
HETATM   35  H   UNK N   1      34.419  10.892   8.267  0.00  0.00     0.222 HD
ENDBRANCH  32  34
BRANCH  32  36
HETATM   36  O   UNK N   1      32.812   7.906   8.999  0.00  0.00    -0.307 OA
HETATM   37  H   UNK N   1      32.107   7.286   9.240  0.00  0.00     0.222 HD
ENDBRANCH  32  36
ENDBRANCH  31  32
ENDBRANCH  30  31
ENDBRANCH  29  30
ENDBRANCH  28  29
ENDBRANCH   4  28
TORSDOF 16
ENDMDL
MODEL 2
REMARK VINA RESULT:      -5.9     13.473     16.758
REMARK  16 active torsions:
REMARK  status: ('A' for Active; 'I' for Inactive)
REMARK    1  A    between atoms: O_1  and  C_2 
REMARK    2  A    between atoms: C_2  and  C_3 
REMARK    3  A    between atoms: C_3  and  O_4 
REMARK    4  A    between atoms: C_3  and  C_5 
REMARK    5  A    between atoms: C_5  and  O_6 
REMARK    6  A    between atoms: C_5  and  C_7 
REMARK    7  A    between atoms: C_7  and  O_8 
REMARK    8  A    between atoms: C_7  and  C_9 
REMARK    9  A    between atoms: C_9  and  N_10 
REMARK   10  A    between atoms: N_13  and  C_14 
REMARK   11  A    between atoms: C_14  and  C_15 
REMARK   12  A    between atoms: C_15  and  C_16 
REMARK   13  A    between atoms: C_16  and  O_17 
REMARK   14  A    between atoms: O_17  and  P_18 
REMARK   15  A    between atoms: P_18  and  O_19 
REMARK   16  A    between atoms: P_18  and  O_20 
ROOT
HETATM    1  N   UNK N   1      21.278  16.725   3.449  0.00  0.00    -0.280 N 
HETATM    2  C   UNK N   1      22.517  16.874   4.000  0.00  0.00     0.331 A 
HETATM    3  O   UNK N   1      22.796  17.735   4.815  0.00  0.00    -0.246 OA
HETATM    4  N   UNK N   1      23.398  15.934   3.540  0.00  0.00    -0.291 N 
HETATM    5  C   UNK N   1      22.682  15.181   2.685  0.00  0.00     0.152 A 
HETATM    6  C   UNK N   1      21.407  15.661   2.623  0.00  0.00     0.148 A 
HETATM    7  N   UNK N   1      20.463  15.105   1.828  0.00  0.00    -0.292 N 
HETATM    8  C   UNK N   1      20.814  14.011   1.062  0.00  0.00     0.328 A 
HETATM    9  O   UNK N   1      19.989  13.489   0.335  0.00  0.00    -0.247 OA
HETATM   10  N   UNK N   1      22.101  13.502   1.118  0.00  0.00    -0.273 N 
HETATM   11  C   UNK N   1      23.053  14.077   1.927  0.00  0.00     0.280 A 
HETATM   12  O   UNK N   1      24.182  13.625   1.972  0.00  0.00    -0.265 OA
HETATM   13  H   UNK N   1      19.549  15.471   1.796  0.00  0.00     0.172 HD
HETATM   14  H   UNK N   1      22.338  12.718   0.571  0.00  0.00     0.173 HD
ENDROOT
BRANCH   1  15
HETATM   15  C   UNK N   1      20.125  17.574   3.754  0.00  0.00     0.170 C 
BRANCH  15  16
HETATM   16  C   UNK N   1      19.829  18.611   2.681  0.00  0.00     0.168 C 
BRANCH  16  17
HETATM   17  C   UNK N   1      20.264  20.000   3.151  0.00  0.00     0.179 C 
BRANCH  17  18
HETATM   18  C   UNK N   1      21.282  20.595   2.178  0.00  0.00     0.173 C 
BRANCH  18  19
HETATM   19  C   UNK N   1      20.570  21.265   1.013  0.00  0.00     0.198 C 
BRANCH  19  20
HETATM   20  O   UNK N   1      20.632  20.451  -0.117  0.00  0.00    -0.398 OA
HETATM   21  H   UNK N   1      20.236  19.566  -0.101  0.00  0.00     0.209 HD
ENDBRANCH  19  20
ENDBRANCH  18  19
BRANCH  18  22
HETATM   22  O   UNK N   1      22.090  21.525   2.838  0.00  0.00    -0.391 OA
HETATM   23  H   UNK N   1      22.105  22.456   3.112  0.00  0.00     0.210 HD
ENDBRANCH  18  22
ENDBRANCH  17  18
BRANCH  17  24
HETATM   24  O   UNK N   1      20.817  19.928   4.434  0.00  0.00    -0.390 OA
HETATM   25  H   UNK N   1      20.747  19.695   5.373  0.00  0.00     0.210 HD
ENDBRANCH  17  24
ENDBRANCH  16  17
BRANCH  16  26
HETATM   26  O   UNK N   1      18.458  18.619   2.412  0.00  0.00    -0.391 OA
HETATM   27  H   UNK N   1      17.645  18.384   1.940  0.00  0.00     0.210 HD
ENDBRANCH  16  26
ENDBRANCH  15  16
ENDBRANCH   1  15
BRANCH   4  28
HETATM   28  C   UNK N   1      24.803  15.770   3.890  0.00  0.00     0.136 C 
BRANCH  28  29
HETATM   29  C   UNK N   1      25.677  16.675   3.036  0.00  0.00     0.047 C 
BRANCH  29  30
HETATM   30  C   UNK N   1      26.758  17.323   3.883  0.00  0.00     0.182 C 
BRANCH  30  31
HETATM   31  O   UNK N   1      26.172  17.986   4.961  0.00  0.00    -0.297 OA
BRANCH  31  32
HETATM   32  P   UNK N   1      26.008  19.652   4.465  0.00  0.00     0.390 P 
HETATM   33  O   UNK N   1      26.118  20.567   5.717  0.00  0.00    -0.632 OA
BRANCH  32  34
HETATM   34  O   UNK N   1      27.318  20.100   3.420  0.00  0.00    -0.307 OA
HETATM   35  H   UNK N   1      27.206  20.448   2.522  0.00  0.00     0.222 HD
ENDBRANCH  32  34
BRANCH  32  36
HETATM   36  O   UNK N   1      24.475  19.967   3.717  0.00  0.00    -0.307 OA
HETATM   37  H   UNK N   1      24.336  20.354   2.839  0.00  0.00     0.222 HD
ENDBRANCH  32  36
ENDBRANCH  31  32
ENDBRANCH  30  31
ENDBRANCH  29  30
ENDBRANCH  28  29
ENDBRANCH   4  28
TORSDOF 16
ENDMDL
MODEL 3
REMARK VINA RESULT:      -5.8      6.469      9.401
REMARK  16 active torsions:
REMARK  status: ('A' for Active; 'I' for Inactive)
REMARK    1  A    between atoms: O_1  and  C_2 
REMARK    2  A    between atoms: C_2  and  C_3 
REMARK    3  A    between atoms: C_3  and  O_4 
REMARK    4  A    between atoms: C_3  and  C_5 
REMARK    5  A    between atoms: C_5  and  O_6 
REMARK    6  A    between atoms: C_5  and  C_7 
REMARK    7  A    between atoms: C_7  and  O_8 
REMARK    8  A    between atoms: C_7  and  C_9 
REMARK    9  A    between atoms: C_9  and  N_10 
REMARK   10  A    between atoms: N_13  and  C_14 
REMARK   11  A    between atoms: C_14  and  C_15 
REMARK   12  A    between atoms: C_15  and  C_16 
REMARK   13  A    between atoms: C_16  and  O_17 
REMARK   14  A    between atoms: O_17  and  P_18 
REMARK   15  A    between atoms: P_18  and  O_19 
REMARK   16  A    between atoms: P_18  and  O_20 
ROOT
HETATM    1  N   UNK N   1      29.472  17.001   5.517  0.00  0.00    -0.280 N 
HETATM    2  C   UNK N   1      30.497  16.329   4.920  0.00  0.00     0.331 A 
HETATM    3  O   UNK N   1      30.606  16.192   3.714  0.00  0.00    -0.246 OA
HETATM    4  N   UNK N   1      31.391  15.842   5.834  0.00  0.00    -0.291 N 
HETATM    5  C   UNK N   1      30.905  16.230   7.028  0.00  0.00     0.152 A 
HETATM    6  C   UNK N   1      29.746  16.921   6.839  0.00  0.00     0.148 A 
HETATM    7  N   UNK N   1      29.026  17.423   7.871  0.00  0.00    -0.292 N 
HETATM    8  C   UNK N   1      29.497  17.226   9.154  0.00  0.00     0.328 A 
HETATM    9  O   UNK N   1      28.873  17.661  10.103  0.00  0.00    -0.247 OA
HETATM   10  N   UNK N   1      30.678  16.534   9.366  0.00  0.00    -0.273 N 
HETATM   11  C   UNK N   1      31.399  16.026   8.311  0.00  0.00     0.280 A 
HETATM   12  O   UNK N   1      32.437  15.419   8.505  0.00  0.00    -0.265 OA
HETATM   13  H   UNK N   1      28.189  17.916   7.711  0.00  0.00     0.172 HD
HETATM   14  H   UNK N   1      31.007  16.404  10.286  0.00  0.00     0.173 HD
ENDROOT
BRANCH   1  15
HETATM   15  C   UNK N   1      28.368  17.643   4.798  0.00  0.00     0.170 C 
BRANCH  15  16
HETATM   16  C   UNK N   1      28.272  19.142   5.040  0.00  0.00     0.168 C 
BRANCH  16  17
HETATM   17  C   UNK N   1      26.981  19.478   5.787  0.00  0.00     0.179 C 
BRANCH  17  18
HETATM   18  C   UNK N   1      27.285  20.340   7.012  0.00  0.00     0.173 C 
BRANCH  18  19
HETATM   19  C   UNK N   1      26.258  21.454   7.142  0.00  0.00     0.198 C 
BRANCH  19  20
HETATM   20  O   UNK N   1      25.570  21.334   8.349  0.00  0.00    -0.398 OA
HETATM   21  H   UNK N   1      25.483  20.466   8.774  0.00  0.00     0.209 HD
ENDBRANCH  19  20
ENDBRANCH  18  19
BRANCH  18  22
HETATM   22  O   UNK N   1      27.278  19.553   8.167  0.00  0.00    -0.391 OA
HETATM   23  H   UNK N   1      26.846  19.481   9.033  0.00  0.00     0.210 HD
ENDBRANCH  18  22
ENDBRANCH  17  18
BRANCH  17  24
HETATM   24  O   UNK N   1      26.327  18.306   6.179  0.00  0.00    -0.390 OA
HETATM   25  H   UNK N   1      25.528  17.841   6.472  0.00  0.00     0.210 HD
ENDBRANCH  17  24
ENDBRANCH  16  17
BRANCH  16  26
HETATM   26  O   UNK N   1      28.288  19.810   3.813  0.00  0.00    -0.391 OA
HETATM   27  H   UNK N   1      27.977  20.039   2.924  0.00  0.00     0.210 HD
ENDBRANCH  16  26
ENDBRANCH  15  16
ENDBRANCH   1  15
BRANCH   4  28
HETATM   28  C   UNK N   1      32.604  15.074   5.586  0.00  0.00     0.136 C 
BRANCH  28  29
HETATM   29  C   UNK N   1      33.732  15.987   5.131  0.00  0.00     0.047 C 
BRANCH  29  30
HETATM   30  C   UNK N   1      34.581  16.413   6.315  0.00  0.00     0.182 C 
BRANCH  30  31
HETATM   31  O   UNK N   1      34.555  17.802   6.432  0.00  0.00    -0.297 OA
BRANCH  31  32
HETATM   32  P   UNK N   1      34.419  18.135   8.140  0.00  0.00     0.390 P 
HETATM   33  O   UNK N   1      35.372  19.308   8.506  0.00  0.00    -0.632 OA
BRANCH  32  34
HETATM   34  O   UNK N   1      32.816  18.675   8.522  0.00  0.00    -0.307 OA
HETATM   35  H   UNK N   1      32.035  18.101   8.540  0.00  0.00     0.222 HD
ENDBRANCH  32  34
BRANCH  32  36
HETATM   36  O   UNK N   1      34.868  16.770   9.113  0.00  0.00    -0.307 OA
HETATM   37  H   UNK N   1      35.281  16.804   9.990  0.00  0.00     0.222 HD
ENDBRANCH  32  36
ENDBRANCH  31  32
ENDBRANCH  30  31
ENDBRANCH  29  30
ENDBRANCH  28  29
ENDBRANCH   4  28
TORSDOF 16
ENDMDL
MODEL 4
REMARK VINA RESULT:      -5.7      3.957      7.388
REMARK  16 active torsions:
REMARK  status: ('A' for Active; 'I' for Inactive)
REMARK    1  A    between atoms: O_1  and  C_2 
REMARK    2  A    between atoms: C_2  and  C_3 
REMARK    3  A    between atoms: C_3  and  O_4 
REMARK    4  A    between atoms: C_3  and  C_5 
REMARK    5  A    between atoms: C_5  and  O_6 
REMARK    6  A    between atoms: C_5  and  C_7 
REMARK    7  A    between atoms: C_7  and  O_8 
REMARK    8  A    between atoms: C_7  and  C_9 
REMARK    9  A    between atoms: C_9  and  N_10 
REMARK   10  A    between atoms: N_13  and  C_14 
REMARK   11  A    between atoms: C_14  and  C_15 
REMARK   12  A    between atoms: C_15  and  C_16 
REMARK   13  A    between atoms: C_16  and  O_17 
REMARK   14  A    between atoms: O_17  and  P_18 
REMARK   15  A    between atoms: P_18  and  O_19 
REMARK   16  A    between atoms: P_18  and  O_20 
ROOT
HETATM    1  N   UNK N   1      33.892  13.799   8.086  0.00  0.00    -0.280 N 
HETATM    2  C   UNK N   1      33.015  13.906   7.048  0.00  0.00     0.331 A 
HETATM    3  O   UNK N   1      32.567  12.951   6.438  0.00  0.00    -0.246 OA
HETATM    4  N   UNK N   1      32.689  15.209   6.786  0.00  0.00    -0.291 N 
HETATM    5  C   UNK N   1      33.382  15.924   7.691  0.00  0.00     0.152 A 
HETATM    6  C   UNK N   1      34.112  15.077   8.470  0.00  0.00     0.148 A 
HETATM    7  N   UNK N   1      34.921  15.521   9.461  0.00  0.00    -0.292 N 
HETATM    8  C   UNK N   1      34.993  16.882   9.686  0.00  0.00     0.328 A 
HETATM    9  O   UNK N   1      35.712  17.314  10.568  0.00  0.00    -0.247 OA
HETATM   10  N   UNK N   1      34.251  17.759   8.913  0.00  0.00    -0.273 N 
HETATM   11  C   UNK N   1      33.436  17.296   7.906  0.00  0.00     0.280 A 
HETATM   12  O   UNK N   1      32.786  18.073   7.229  0.00  0.00    -0.265 OA
HETATM   13  H   UNK N   1      35.443  14.892  10.009  0.00  0.00     0.172 HD
HETATM   14  H   UNK N   1      34.307  18.727   9.085  0.00  0.00     0.173 HD
ENDROOT
BRANCH   1  15
HETATM   15  C   UNK N   1      34.416  12.533   8.605  0.00  0.00     0.170 C 
BRANCH  15  16
HETATM   16  C   UNK N   1      34.072  12.283  10.065  0.00  0.00     0.168 C 
BRANCH  16  17
HETATM   17  C   UNK N   1      35.341  12.281  10.917  0.00  0.00     0.179 C 
BRANCH  17  18
HETATM   18  C   UNK N   1      35.124  13.092  12.195  0.00  0.00     0.173 C 
BRANCH  18  19
HETATM   19  C   UNK N   1      36.436  13.704  12.662  0.00  0.00     0.198 C 
BRANCH  19  20
HETATM   20  O   UNK N   1      36.602  14.968  12.098  0.00  0.00    -0.398 OA
HETATM   21  H   UNK N   1      35.827  15.489  11.836  0.00  0.00     0.209 HD
ENDBRANCH  19  20
ENDBRANCH  18  19
BRANCH  18  22
HETATM   22  O   UNK N   1      34.184  14.101  11.971  0.00  0.00    -0.391 OA
HETATM   23  H   UNK N   1      33.489  14.603  12.426  0.00  0.00     0.210 HD
ENDBRANCH  18  22
ENDBRANCH  17  18
BRANCH  17  24
HETATM   24  O   UNK N   1      36.414  12.813  10.193  0.00  0.00    -0.390 OA
HETATM   25  H   UNK N   1      37.229  12.695   9.681  0.00  0.00     0.210 HD
ENDBRANCH  17  24
ENDBRANCH  16  17
BRANCH  16  26
HETATM   26  O   UNK N   1      33.431  11.046  10.183  0.00  0.00    -0.391 OA
HETATM   27  H   UNK N   1      33.037  10.292  10.647  0.00  0.00     0.210 HD
ENDBRANCH  16  26
ENDBRANCH  15  16
ENDBRANCH   1  15
BRANCH   4  28
HETATM   28  C   UNK N   1      31.792  15.724   5.759  0.00  0.00     0.136 C 
BRANCH  28  29
HETATM   29  C   UNK N   1      30.341  15.536   6.173  0.00  0.00     0.047 C 
BRANCH  29  30
HETATM   30  C   UNK N   1      29.645  16.879   6.297  0.00  0.00     0.182 C 
BRANCH  30  31
HETATM   31  O   UNK N   1      28.586  16.776   7.198  0.00  0.00    -0.297 OA
BRANCH  31  32
HETATM   32  P   UNK N   1      28.642  18.226   8.168  0.00  0.00     0.390 P 
HETATM   33  O   UNK N   1      28.250  19.444   7.285  0.00  0.00    -0.632 OA
BRANCH  32  34
HETATM   34  O   UNK N   1      27.463  18.147   9.437  0.00  0.00    -0.307 OA
HETATM   35  H   UNK N   1      26.521  17.964   9.298  0.00  0.00     0.222 HD
ENDBRANCH  32  34
BRANCH  32  36
HETATM   36  O   UNK N   1      30.228  18.528   8.806  0.00  0.00    -0.307 OA
HETATM   37  H   UNK N   1      30.775  17.898   9.299  0.00  0.00     0.222 HD
ENDBRANCH  32  36
ENDBRANCH  31  32
ENDBRANCH  30  31
ENDBRANCH  29  30
ENDBRANCH  28  29
ENDBRANCH   4  28
TORSDOF 16
ENDMDL
MODEL 5
REMARK VINA RESULT:      -5.6      3.655      7.337
REMARK  16 active torsions:
REMARK  status: ('A' for Active; 'I' for Inactive)
REMARK    1  A    between atoms: O_1  and  C_2 
REMARK    2  A    between atoms: C_2  and  C_3 
REMARK    3  A    between atoms: C_3  and  O_4 
REMARK    4  A    between atoms: C_3  and  C_5 
REMARK    5  A    between atoms: C_5  and  O_6 
REMARK    6  A    between atoms: C_5  and  C_7 
REMARK    7  A    between atoms: C_7  and  O_8 
REMARK    8  A    between atoms: C_7  and  C_9 
REMARK    9  A    between atoms: C_9  and  N_10 
REMARK   10  A    between atoms: N_13  and  C_14 
REMARK   11  A    between atoms: C_14  and  C_15 
REMARK   12  A    between atoms: C_15  and  C_16 
REMARK   13  A    between atoms: C_16  and  O_17 
REMARK   14  A    between atoms: O_17  and  P_18 
REMARK   15  A    between atoms: P_18  and  O_19 
REMARK   16  A    between atoms: P_18  and  O_20 
ROOT
HETATM    1  N   UNK N   1      34.940  15.279  10.310  0.00  0.00    -0.280 N 
HETATM    2  C   UNK N   1      34.799  16.500   9.720  0.00  0.00     0.331 A 
HETATM    3  O   UNK N   1      35.372  17.506  10.100  0.00  0.00    -0.246 OA
HETATM    4  N   UNK N   1      33.952  16.455   8.646  0.00  0.00    -0.291 N 
HETATM    5  C   UNK N   1      33.565  15.168   8.569  0.00  0.00     0.152 A 
HETATM    6  C   UNK N   1      34.153  14.461   9.575  0.00  0.00     0.148 A 
HETATM    7  N   UNK N   1      33.932  13.137   9.752  0.00  0.00    -0.292 N 
HETATM    8  C   UNK N   1      33.086  12.491   8.873  0.00  0.00     0.328 A 
HETATM    9  O   UNK N   1      32.864  11.301   9.006  0.00  0.00    -0.247 OA
HETATM   10  N   UNK N   1      32.486  13.190   7.839  0.00  0.00    -0.273 N 
HETATM   11  C   UNK N   1      32.715  14.536   7.670  0.00  0.00     0.280 A 
HETATM   12  O   UNK N   1      32.184  15.144   6.759  0.00  0.00    -0.265 OA
HETATM   13  H   UNK N   1      34.365  12.646  10.488  0.00  0.00     0.172 HD
HETATM   14  H   UNK N   1      31.888  12.717   7.216  0.00  0.00     0.173 HD
ENDROOT
BRANCH   1  15
HETATM   15  C   UNK N   1      35.789  15.011  11.473  0.00  0.00     0.170 C 
BRANCH  15  16
HETATM   16  C   UNK N   1      36.343  13.594  11.511  0.00  0.00     0.168 C 
BRANCH  16  17
HETATM   17  C   UNK N   1      35.739  12.818  12.681  0.00  0.00     0.179 C 
BRANCH  17  18
HETATM   18  C   UNK N   1      35.768  11.317  12.394  0.00  0.00     0.173 C 
BRANCH  18  19
HETATM   19  C   UNK N   1      34.456  10.673  12.815  0.00  0.00     0.198 C 
BRANCH  19  20
HETATM   20  O   UNK N   1      33.567  10.653  11.742  0.00  0.00    -0.398 OA
HETATM   21  H   UNK N   1      33.841  10.278  10.891  0.00  0.00     0.209 HD
ENDBRANCH  19  20
ENDBRANCH  18  19
BRANCH  18  22
HETATM   22  O   UNK N   1      35.991  11.091  11.034  0.00  0.00    -0.391 OA
HETATM   23  H   UNK N   1      35.662  11.350  10.159  0.00  0.00     0.210 HD
ENDBRANCH  18  22
ENDBRANCH  17  18
BRANCH  17  24
HETATM   24  O   UNK N   1      34.424  13.233  12.912  0.00  0.00    -0.390 OA
HETATM   25  H   UNK N   1      33.649  13.763  12.668  0.00  0.00     0.210 HD
ENDBRANCH  17  24
ENDBRANCH  16  17
BRANCH  16  26
HETATM   26  O   UNK N   1      37.732  13.647  11.655  0.00  0.00    -0.391 OA
HETATM   27  H   UNK N   1      38.624  14.008  11.535  0.00  0.00     0.210 HD
ENDBRANCH  16  26
ENDBRANCH  15  16
ENDBRANCH   1  15
BRANCH   4  28
HETATM   28  C   UNK N   1      33.551  17.548   7.770  0.00  0.00     0.136 C 
BRANCH  28  29
HETATM   29  C   UNK N   1      32.574  18.472   8.479  0.00  0.00     0.047 C 
BRANCH  29  30
HETATM   30  C   UNK N   1      31.197  17.836   8.548  0.00  0.00     0.182 C 
BRANCH  30  31
HETATM   31  O   UNK N   1      30.276  18.768   9.026  0.00  0.00    -0.297 OA
BRANCH  31  32
HETATM   32  P   UNK N   1      28.751  18.357   8.282  0.00  0.00     0.390 P 
HETATM   33  O   UNK N   1      28.917  17.035   7.480  0.00  0.00    -0.632 OA
BRANCH  32  34
HETATM   34  O   UNK N   1      27.555  18.040   9.497  0.00  0.00    -0.307 OA
HETATM   35  H   UNK N   1      27.696  18.158  10.448  0.00  0.00     0.222 HD
ENDBRANCH  32  34
BRANCH  32  36
HETATM   36  O   UNK N   1      28.210  19.579   7.175  0.00  0.00    -0.307 OA
HETATM   37  H   UNK N   1      27.523  20.241   7.345  0.00  0.00     0.222 HD
ENDBRANCH  32  36
ENDBRANCH  31  32
ENDBRANCH  30  31
ENDBRANCH  29  30
ENDBRANCH  28  29
ENDBRANCH   4  28
TORSDOF 16
ENDMDL
MODEL 6
REMARK VINA RESULT:      -5.6      1.180      1.750
REMARK  16 active torsions:
REMARK  status: ('A' for Active; 'I' for Inactive)
REMARK    1  A    between atoms: O_1  and  C_2 
REMARK    2  A    between atoms: C_2  and  C_3 
REMARK    3  A    between atoms: C_3  and  O_4 
REMARK    4  A    between atoms: C_3  and  C_5 
REMARK    5  A    between atoms: C_5  and  O_6 
REMARK    6  A    between atoms: C_5  and  C_7 
REMARK    7  A    between atoms: C_7  and  O_8 
REMARK    8  A    between atoms: C_7  and  C_9 
REMARK    9  A    between atoms: C_9  and  N_10 
REMARK   10  A    between atoms: N_13  and  C_14 
REMARK   11  A    between atoms: C_14  and  C_15 
REMARK   12  A    between atoms: C_15  and  C_16 
REMARK   13  A    between atoms: C_16  and  O_17 
REMARK   14  A    between atoms: O_17  and  P_18 
REMARK   15  A    between atoms: P_18  and  O_19 
REMARK   16  A    between atoms: P_18  and  O_20 
ROOT
HETATM    1  N   UNK N   1      35.753  14.051  11.857  0.00  0.00    -0.280 N 
HETATM    2  C   UNK N   1      35.027  12.927  11.597  0.00  0.00     0.331 A 
HETATM    3  O   UNK N   1      34.573  12.654  10.499  0.00  0.00    -0.246 OA
HETATM    4  N   UNK N   1      34.884  12.141  12.707  0.00  0.00    -0.291 N 
HETATM    5  C   UNK N   1      35.545  12.797  13.679  0.00  0.00     0.152 A 
HETATM    6  C   UNK N   1      36.062  13.951  13.170  0.00  0.00     0.148 A 
HETATM    7  N   UNK N   1      36.770  14.822  13.928  0.00  0.00    -0.292 N 
HETATM    8  C   UNK N   1      36.972  14.517  15.259  0.00  0.00     0.328 A 
HETATM    9  O   UNK N   1      37.601  15.280  15.969  0.00  0.00    -0.247 OA
HETATM   10  N   UNK N   1      36.463  13.344  15.793  0.00  0.00    -0.273 N 
HETATM   11  C   UNK N   1      35.743  12.468  15.014  0.00  0.00     0.280 A 
HETATM   12  O   UNK N   1      35.298  11.439  15.489  0.00  0.00    -0.265 OA
HETATM   13  H   UNK N   1      37.131  15.652  13.541  0.00  0.00     0.172 HD
HETATM   14  H   UNK N   1      36.618  13.135  16.742  0.00  0.00     0.173 HD
ENDROOT
BRANCH   1  15
HETATM   15  C   UNK N   1      36.082  15.078  10.865  0.00  0.00     0.170 C 
BRANCH  15  16
HETATM   16  C   UNK N   1      34.939  16.041  10.582  0.00  0.00     0.168 C 
BRANCH  16  17
HETATM   17  C   UNK N   1      34.705  16.159   9.076  0.00  0.00     0.179 C 
BRANCH  17  18
HETATM   18  C   UNK N   1      33.700  17.273   8.780  0.00  0.00     0.173 C 
BRANCH  18  19
HETATM   19  C   UNK N   1      34.318  18.309   7.853  0.00  0.00     0.198 C 
BRANCH  19  20
HETATM   20  O   UNK N   1      35.251  19.078   8.548  0.00  0.00    -0.398 OA
HETATM   21  H   UNK N   1      34.963  19.860   9.043  0.00  0.00     0.209 HD
ENDBRANCH  19  20
ENDBRANCH  18  19
BRANCH  18  22
HETATM   22  O   UNK N   1      32.549  16.740   8.195  0.00  0.00    -0.391 OA
HETATM   23  H   UNK N   1      31.661  16.422   8.422  0.00  0.00     0.210 HD
ENDBRANCH  18  22
ENDBRANCH  17  18
BRANCH  17  24
HETATM   24  O   UNK N   1      34.236  14.947   8.560  0.00  0.00    -0.390 OA
HETATM   25  H   UNK N   1      34.313  13.985   8.457  0.00  0.00     0.210 HD
ENDBRANCH  17  24
ENDBRANCH  16  17
BRANCH  16  26
HETATM   26  O   UNK N   1      35.254  17.298  11.104  0.00  0.00    -0.391 OA
HETATM   27  H   UNK N   1      35.825  18.050  11.322  0.00  0.00     0.210 HD
ENDBRANCH  16  26
ENDBRANCH  15  16
ENDBRANCH   1  15
BRANCH   4  28
HETATM   28  C   UNK N   1      34.177  10.872  12.827  0.00  0.00     0.136 C 
BRANCH  28  29
HETATM   29  C   UNK N   1      35.020   9.735  12.271  0.00  0.00     0.047 C 
BRANCH  29  30
HETATM   30  C   UNK N   1      34.375   9.157  11.024  0.00  0.00     0.182 C 
BRANCH  30  31
HETATM   31  O   UNK N   1      33.023   9.496  10.997  0.00  0.00    -0.297 OA
BRANCH  31  32
HETATM   32  P   UNK N   1      32.608   9.671   9.311  0.00  0.00     0.390 P 
HETATM   33  O   UNK N   1      31.124   9.257   9.108  0.00  0.00    -0.632 OA
BRANCH  32  34
HETATM   34  O   UNK N   1      32.717  11.334   8.832  0.00  0.00    -0.307 OA
HETATM   35  H   UNK N   1      33.340  11.673   8.171  0.00  0.00     0.222 HD
ENDBRANCH  32  34
BRANCH  32  36
HETATM   36  O   UNK N   1      33.580   8.661   8.287  0.00  0.00    -0.307 OA
HETATM   37  H   UNK N   1      34.176   7.955   8.581  0.00  0.00     0.222 HD
ENDBRANCH  32  36
ENDBRANCH  31  32
ENDBRANCH  30  31
ENDBRANCH  29  30
ENDBRANCH  28  29
ENDBRANCH   4  28
TORSDOF 16
ENDMDL
MODEL 7
REMARK VINA RESULT:      -5.5      3.503      7.504
REMARK  16 active torsions:
REMARK  status: ('A' for Active; 'I' for Inactive)
REMARK    1  A    between atoms: O_1  and  C_2 
REMARK    2  A    between atoms: C_2  and  C_3 
REMARK    3  A    between atoms: C_3  and  O_4 
REMARK    4  A    between atoms: C_3  and  C_5 
REMARK    5  A    between atoms: C_5  and  O_6 
REMARK    6  A    between atoms: C_5  and  C_7 
REMARK    7  A    between atoms: C_7  and  O_8 
REMARK    8  A    between atoms: C_7  and  C_9 
REMARK    9  A    between atoms: C_9  and  N_10 
REMARK   10  A    between atoms: N_13  and  C_14 
REMARK   11  A    between atoms: C_14  and  C_15 
REMARK   12  A    between atoms: C_15  and  C_16 
REMARK   13  A    between atoms: C_16  and  O_17 
REMARK   14  A    between atoms: O_17  and  P_18 
REMARK   15  A    between atoms: P_18  and  O_19 
REMARK   16  A    between atoms: P_18  and  O_20 
ROOT
HETATM    1  N   UNK N   1      35.223  14.985   9.869  0.00  0.00    -0.280 N 
HETATM    2  C   UNK N   1      34.893  16.226   9.409  0.00  0.00     0.331 A 
HETATM    3  O   UNK N   1      35.342  17.260   9.871  0.00  0.00    -0.246 OA
HETATM    4  N   UNK N   1      34.015  16.167   8.362  0.00  0.00    -0.291 N 
HETATM    5  C   UNK N   1      33.800  14.853   8.168  0.00  0.00     0.152 A 
HETATM    6  C   UNK N   1      34.521  14.141   9.080  0.00  0.00     0.148 A 
HETATM    7  N   UNK N   1      34.488  12.788   9.130  0.00  0.00    -0.292 N 
HETATM    8  C   UNK N   1      33.698  12.118   8.216  0.00  0.00     0.328 A 
HETATM    9  O   UNK N   1      33.644  10.903   8.236  0.00  0.00    -0.247 OA
HETATM   10  N   UNK N   1      32.966  12.824   7.276  0.00  0.00    -0.273 N 
HETATM   11  C   UNK N   1      33.004  14.198   7.236  0.00  0.00     0.280 A 
HETATM   12  O   UNK N   1      32.358  14.812   6.407  0.00  0.00    -0.265 OA
HETATM   13  H   UNK N   1      35.013  12.293   9.800  0.00  0.00     0.172 HD
HETATM   14  H   UNK N   1      32.410  12.335   6.626  0.00  0.00     0.173 HD
ENDROOT
BRANCH   1  15
HETATM   15  C   UNK N   1      36.149  14.727  10.974  0.00  0.00     0.170 C 
BRANCH  15  16
HETATM   16  C   UNK N   1      35.462  14.567  12.322  0.00  0.00     0.168 C 
BRANCH  16  17
HETATM   17  C   UNK N   1      36.425  13.956  13.340  0.00  0.00     0.179 C 
BRANCH  17  18
HETATM   18  C   UNK N   1      35.736  12.834  14.116  0.00  0.00     0.173 C 
BRANCH  18  19
HETATM   19  C   UNK N   1      36.752  12.064  14.945  0.00  0.00     0.198 C 
BRANCH  19  20
HETATM   20  O   UNK N   1      38.025  12.201  14.390  0.00  0.00    -0.398 OA
HETATM   21  H   UNK N   1      38.151  12.734  13.591  0.00  0.00     0.209 HD
ENDBRANCH  19  20
ENDBRANCH  18  19
BRANCH  18  22
HETATM   22  O   UNK N   1      34.747  13.362  14.950  0.00  0.00    -0.391 OA
HETATM   23  H   UNK N   1      33.837  13.696  14.928  0.00  0.00     0.210 HD
ENDBRANCH  18  22
ENDBRANCH  17  18
BRANCH  17  24
HETATM   24  O   UNK N   1      36.881  14.937  14.227  0.00  0.00    -0.390 OA
HETATM   25  H   UNK N   1      37.329  15.781  14.397  0.00  0.00     0.210 HD
ENDBRANCH  17  24
ENDBRANCH  16  17
BRANCH  16  26
HETATM   26  O   UNK N   1      34.349  13.735  12.177  0.00  0.00    -0.391 OA
HETATM   27  H   UNK N   1      33.502  13.443  11.808  0.00  0.00     0.210 HD
ENDBRANCH  16  26
ENDBRANCH  15  16
ENDBRANCH   1  15
BRANCH   4  28
HETATM   28  C   UNK N   1      33.433  17.273   7.612  0.00  0.00     0.136 C 
BRANCH  28  29
HETATM   29  C   UNK N   1      32.231  17.845   8.347  0.00  0.00     0.047 C 
BRANCH  29  30
HETATM   30  C   UNK N   1      30.955  17.570   7.572  0.00  0.00     0.182 C 
BRANCH  30  31
HETATM   31  O   UNK N   1      30.068  16.852   8.373  0.00  0.00    -0.297 OA
BRANCH  31  32
HETATM   32  P   UNK N   1      28.995  18.035   9.076  0.00  0.00     0.390 P 
HETATM   33  O   UNK N   1      28.681  19.129   8.017  0.00  0.00    -0.632 OA
BRANCH  32  34
HETATM   34  O   UNK N   1      27.475  17.304   9.483  0.00  0.00    -0.307 OA
HETATM   35  H   UNK N   1      26.677  17.362   8.936  0.00  0.00     0.222 HD
ENDBRANCH  32  34
BRANCH  32  36
HETATM   36  O   UNK N   1      29.697  18.823  10.454  0.00  0.00    -0.307 OA
HETATM   37  H   UNK N   1      29.223  19.355  11.111  0.00  0.00     0.222 HD
ENDBRANCH  32  36
ENDBRANCH  31  32
ENDBRANCH  30  31
ENDBRANCH  29  30
ENDBRANCH  28  29
ENDBRANCH   4  28
TORSDOF 16
ENDMDL
MODEL 8
REMARK VINA RESULT:      -5.5     17.961     21.332
REMARK  16 active torsions:
REMARK  status: ('A' for Active; 'I' for Inactive)
REMARK    1  A    between atoms: O_1  and  C_2 
REMARK    2  A    between atoms: C_2  and  C_3 
REMARK    3  A    between atoms: C_3  and  O_4 
REMARK    4  A    between atoms: C_3  and  C_5 
REMARK    5  A    between atoms: C_5  and  O_6 
REMARK    6  A    between atoms: C_5  and  C_7 
REMARK    7  A    between atoms: C_7  and  O_8 
REMARK    8  A    between atoms: C_7  and  C_9 
REMARK    9  A    between atoms: C_9  and  N_10 
REMARK   10  A    between atoms: N_13  and  C_14 
REMARK   11  A    between atoms: C_14  and  C_15 
REMARK   12  A    between atoms: C_15  and  C_16 
REMARK   13  A    between atoms: C_16  and  O_17 
REMARK   14  A    between atoms: O_17  and  P_18 
REMARK   15  A    between atoms: P_18  and  O_19 
REMARK   16  A    between atoms: P_18  and  O_20 
ROOT
HETATM    1  N   UNK N   1      29.619  23.189  -5.882  0.00  0.00    -0.280 N 
HETATM    2  C   UNK N   1      28.471  23.593  -6.498  0.00  0.00     0.331 A 
HETATM    3  O   UNK N   1      28.328  23.628  -7.708  0.00  0.00    -0.246 OA
HETATM    4  N   UNK N   1      27.501  23.939  -5.597  0.00  0.00    -0.291 N 
HETATM    5  C   UNK N   1      28.065  23.737  -4.392  0.00  0.00     0.152 A 
HETATM    6  C   UNK N   1      29.343  23.293  -4.563  0.00  0.00     0.148 A 
HETATM    7  N   UNK N   1      30.159  23.019  -3.517  0.00  0.00    -0.292 N 
HETATM    8  C   UNK N   1      29.666  23.193  -2.239  0.00  0.00     0.328 A 
HETATM    9  O   UNK N   1      30.374  22.958  -1.278  0.00  0.00    -0.247 OA
HETATM   10  N   UNK N   1      28.367  23.634  -2.045  0.00  0.00    -0.273 N 
HETATM   11  C   UNK N   1      27.549  23.913  -3.114  0.00  0.00     0.280 A 
HETATM   12  O   UNK N   1      26.408  24.301  -2.936  0.00  0.00    -0.265 OA
HETATM   13  H   UNK N   1      31.080  22.703  -3.663  0.00  0.00     0.172 HD
HETATM   14  H   UNK N   1      28.025  23.750  -1.129  0.00  0.00     0.173 HD
ENDROOT
BRANCH   1  15
HETATM   15  C   UNK N   1      30.827  22.748  -6.583  0.00  0.00     0.170 C 
BRANCH  15  16
HETATM   16  C   UNK N   1      31.265  21.338  -6.217  0.00  0.00     0.168 C 
BRANCH  16  17
HETATM   17  C   UNK N   1      32.610  21.371  -5.490  0.00  0.00     0.179 C 
BRANCH  17  18
HETATM   18  C   UNK N   1      32.617  20.365  -4.338  0.00  0.00     0.173 C 
BRANCH  18  19
HETATM   19  C   UNK N   1      33.451  20.892  -3.182  0.00  0.00     0.198 C 
BRANCH  19  20
HETATM   20  O   UNK N   1      32.621  21.301  -2.139  0.00  0.00    -0.398 OA
HETATM   21  H   UNK N   1      32.090  22.108  -2.228  0.00  0.00     0.209 HD
ENDBRANCH  19  20
ENDBRANCH  18  19
BRANCH  18  22
HETATM   22  O   UNK N   1      31.311  20.119  -3.907  0.00  0.00    -0.391 OA
HETATM   23  H   UNK N   1      30.665  19.401  -3.817  0.00  0.00     0.210 HD
ENDBRANCH  18  22
ENDBRANCH  17  18
BRANCH  17  24
HETATM   24  O   UNK N   1      32.866  22.657  -5.000  0.00  0.00    -0.390 OA
HETATM   25  H   UNK N   1      32.901  23.618  -5.126  0.00  0.00     0.210 HD
ENDBRANCH  17  24
ENDBRANCH  16  17
BRANCH  16  26
HETATM   26  O   UNK N   1      31.385  20.575  -7.381  0.00  0.00    -0.391 OA
HETATM   27  H   UNK N   1      31.548  20.413  -8.322  0.00  0.00     0.210 HD
ENDBRANCH  16  26
ENDBRANCH  15  16
ENDBRANCH   1  15
BRANCH   4  28
HETATM   28  C   UNK N   1      26.152  24.419  -5.867  0.00  0.00     0.136 C 
BRANCH  28  29
HETATM   29  C   UNK N   1      26.185  25.852  -6.373  0.00  0.00     0.047 C 
BRANCH  29  30
HETATM   30  C   UNK N   1      25.819  26.817  -5.260  0.00  0.00     0.182 C 
BRANCH  30  31
HETATM   31  O   UNK N   1      26.754  27.850  -5.213  0.00  0.00    -0.297 OA
BRANCH  31  32
HETATM   32  P   UNK N   1      26.550  28.607  -3.653  0.00  0.00     0.390 P 
HETATM   33  O   UNK N   1      25.551  27.767  -2.808  0.00  0.00    -0.632 OA
BRANCH  32  34
HETATM   34  O   UNK N   1      28.048  28.601  -2.780  0.00  0.00    -0.307 OA
HETATM   35  H   UNK N   1      28.401  29.363  -2.294  0.00  0.00     0.222 HD
ENDBRANCH  32  34
BRANCH  32  36
HETATM   36  O   UNK N   1      25.907  30.214  -3.781  0.00  0.00    -0.307 OA
HETATM   37  H   UNK N   1      25.025  30.452  -4.107  0.00  0.00     0.222 HD
ENDBRANCH  32  36
ENDBRANCH  31  32
ENDBRANCH  30  31
ENDBRANCH  29  30
ENDBRANCH  28  29
ENDBRANCH   4  28
TORSDOF 16
ENDMDL
MODEL 9
REMARK VINA RESULT:      -5.5      6.219      8.896
REMARK  16 active torsions:
REMARK  status: ('A' for Active; 'I' for Inactive)
REMARK    1  A    between atoms: O_1  and  C_2 
REMARK    2  A    between atoms: C_2  and  C_3 
REMARK    3  A    between atoms: C_3  and  O_4 
REMARK    4  A    between atoms: C_3  and  C_5 
REMARK    5  A    between atoms: C_5  and  O_6 
REMARK    6  A    between atoms: C_5  and  C_7 
REMARK    7  A    between atoms: C_7  and  O_8 
REMARK    8  A    between atoms: C_7  and  C_9 
REMARK    9  A    between atoms: C_9  and  N_10 
REMARK   10  A    between atoms: N_13  and  C_14 
REMARK   11  A    between atoms: C_14  and  C_15 
REMARK   12  A    between atoms: C_15  and  C_16 
REMARK   13  A    between atoms: C_16  and  O_17 
REMARK   14  A    between atoms: O_17  and  P_18 
REMARK   15  A    between atoms: P_18  and  O_19 
REMARK   16  A    between atoms: P_18  and  O_20 
ROOT
HETATM    1  N   UNK N   1      30.019  17.433   5.450  0.00  0.00    -0.280 N 
HETATM    2  C   UNK N   1      31.282  17.241   4.972  0.00  0.00     0.331 A 
HETATM    3  O   UNK N   1      31.543  17.089   3.792  0.00  0.00    -0.246 OA
HETATM    4  N   UNK N   1      32.216  17.256   5.972  0.00  0.00    -0.291 N 
HETATM    5  C   UNK N   1      31.509  17.468   7.098  0.00  0.00     0.152 A 
HETATM    6  C   UNK N   1      30.185  17.567   6.785  0.00  0.00     0.148 A 
HETATM    7  N   UNK N   1      29.233  17.768   7.727  0.00  0.00    -0.292 N 
HETATM    8  C   UNK N   1      29.630  17.881   9.045  0.00  0.00     0.328 A 
HETATM    9  O   UNK N   1      28.799  18.059   9.916  0.00  0.00    -0.247 OA
HETATM   10  N   UNK N   1      30.970  17.793   9.382  0.00  0.00    -0.273 N 
HETATM   11  C   UNK N   1      31.929  17.585   8.417  0.00  0.00     0.280 A 
HETATM   12  O   UNK N   1      33.105  17.508   8.720  0.00  0.00    -0.265 OA
HETATM   13  H   UNK N   1      28.282  17.833   7.480  0.00  0.00     0.172 HD
HETATM   14  H   UNK N   1      31.241  17.879  10.324  0.00  0.00     0.173 HD
ENDROOT
BRANCH   1  15
HETATM   15  C   UNK N   1      28.814  17.478   4.619  0.00  0.00     0.170 C 
BRANCH  15  16
HETATM   16  C   UNK N   1      28.057  18.795   4.713  0.00  0.00     0.168 C 
BRANCH  16  17
HETATM   17  C   UNK N   1      26.645  18.559   5.250  0.00  0.00     0.179 C 
BRANCH  17  18
HETATM   18  C   UNK N   1      26.065  19.858   5.809  0.00  0.00     0.173 C 
BRANCH  18  19
HETATM   19  C   UNK N   1      27.051  20.507   6.768  0.00  0.00     0.198 C 
BRANCH  19  20
HETATM   20  O   UNK N   1      27.005  19.868   8.007  0.00  0.00    -0.398 OA
HETATM   21  H   UNK N   1      26.208  19.931   8.557  0.00  0.00     0.209 HD
ENDBRANCH  19  20
ENDBRANCH  18  19
BRANCH  18  22
HETATM   22  O   UNK N   1      25.768  20.741   4.767  0.00  0.00    -0.391 OA
HETATM   23  H   UNK N   1      25.850  20.831   3.804  0.00  0.00     0.210 HD
ENDBRANCH  18  22
ENDBRANCH  17  18
BRANCH  17  24
HETATM   24  O   UNK N   1      26.662  17.578   6.246  0.00  0.00    -0.390 OA
HETATM   25  H   UNK N   1      27.032  17.209   7.064  0.00  0.00     0.210 HD
ENDBRANCH  17  24
ENDBRANCH  16  17
BRANCH  16  26
HETATM   26  O   UNK N   1      27.981  19.374   3.443  0.00  0.00    -0.391 OA
HETATM   27  H   UNK N   1      28.059  19.410   2.478  0.00  0.00     0.210 HD
ENDBRANCH  16  26
ENDBRANCH  15  16
ENDBRANCH   1  15
BRANCH   4  28
HETATM   28  C   UNK N   1      33.658  17.083   5.860  0.00  0.00     0.136 C 
BRANCH  28  29
HETATM   29  C   UNK N   1      34.006  15.621   5.630  0.00  0.00     0.047 C 
BRANCH  29  30
HETATM   30  C   UNK N   1      34.176  14.901   6.956  0.00  0.00     0.182 C 
BRANCH  30  31
HETATM   31  O   UNK N   1      32.968  14.312   7.325  0.00  0.00    -0.297 OA
BRANCH  31  32
HETATM   32  P   UNK N   1      33.175  13.796   8.980  0.00  0.00     0.390 P 
HETATM   33  O   UNK N   1      34.693  13.768   9.317  0.00  0.00    -0.632 OA
BRANCH  32  34
HETATM   34  O   UNK N   1      32.460  14.946  10.063  0.00  0.00    -0.307 OA
HETATM   35  H   UNK N   1      32.422  15.901   9.900  0.00  0.00     0.222 HD
ENDBRANCH  32  34
BRANCH  32  36
HETATM   36  O   UNK N   1      32.546  12.202   9.255  0.00  0.00    -0.307 OA
HETATM   37  H   UNK N   1      31.649  11.899   9.049  0.00  0.00     0.222 HD
ENDBRANCH  32  36
ENDBRANCH  31  32
ENDBRANCH  30  31
ENDBRANCH  29  30
ENDBRANCH  28  29
ENDBRANCH   4  28
TORSDOF 16
ENDMDL
