REMARK  20 active torsions:
REMARK  status: ('A' for Active; 'I' for Inactive)
REMARK    1  A    between atoms: C_9  and  C_5 
REMARK    2  A    between atoms: O_45  and  C_5 
REMARK    3  A    between atoms: C_10  and  C_6 
REMARK    4  A    between atoms: O_46  and  C_6 
REMARK    5  A    between atoms: C_17  and  C_8 
REMARK    6  A    between atoms: C_12  and  O_34 
REMARK    7  A    between atoms: C_13  and  O_35 
REMARK    8  A    between atoms: C_14  and  O_36 
REMARK    9  A    between atoms: C_15  and  O_49 
REMARK   10  A    between atoms: N_23  and  C_16 
REMARK   11  A    between atoms: O_37  and  C_17 
REMARK   12  A    between atoms: C_19  and  N_32 
REMARK   13  A    between atoms: C_20  and  N_33 
REMARK   14  A    between atoms: P_51  and  O_39 
REMARK   15  A    between atoms: P_52  and  O_41 
REMARK   16  A    between atoms: P_52  and  O_45 
REMARK   17  A    between atoms: P_53  and  O_46 
REMARK   18  A    between atoms: P_51  and  O_49 
REMARK   19  A    between atoms: P_52  and  O_50 
REMARK   20  A    between atoms: P_53  and  O_50 
ROOT
HETATM    1  O   UNK N   1       3.508  -3.729   1.234  0.00  0.00    -0.632 OA
HETATM    2  O   UNK N   1       4.374  -2.471  -0.927  0.00  0.00    -0.307 OA
HETATM    3  P   UNK N   1       4.127  -2.376   0.791  0.00  0.00     0.391 P 
HETATM    4  H   UNK N   1       4.397  -2.616  -1.886  0.00  0.00     0.222 HD
ENDROOT
BRANCH   3   5
HETATM    5  O   UNK N   1       5.647  -2.235   1.615  0.00  0.00    -0.307 OA
HETATM    6  H   UNK N   1       6.141  -2.932   2.076  0.00  0.00     0.222 HD
ENDBRANCH   3   5
BRANCH   3   7
HETATM    7  O   UNK N   1       3.006  -1.111   1.275  0.00  0.00    -0.284 OA
BRANCH   7   8
HETATM    8  C   UNK N   1       2.192  -0.757   0.176  0.00  0.00     0.214 C 
HETATM    9  C   UNK N   1       1.263  -1.842  -0.324  0.00  0.00     0.183 C 
HETATM   10  C   UNK N   1       0.379  -0.943  -1.176  0.00  0.00     0.180 C 
HETATM   11  O   UNK N   1       0.048   0.155  -0.363  0.00  0.00    -0.353 OA
HETATM   12  C   UNK N   1       1.144   0.328   0.531  0.00  0.00     0.264 C 
BRANCH   9  13
HETATM   13  O   UNK N   1       0.547  -2.395   0.746  0.00  0.00    -0.390 OA
HETATM   14  H   UNK N   1      -0.032  -2.157   1.487  0.00  0.00     0.210 HD
ENDBRANCH   9  13
BRANCH  10  15
HETATM   15  C   UNK N   1      -0.835  -1.596  -1.829  0.00  0.00     0.216 C 
BRANCH  15  16
HETATM   16  O   UNK N   1      -1.628  -2.318  -0.936  0.00  0.00    -0.287 OA
BRANCH  16  17
HETATM   17  P   UNK N   1      -2.209  -3.671  -1.874  0.00  0.00     0.417 P 
HETATM   18  O   UNK N   1      -3.446  -2.761  -1.641  0.00  0.00    -0.624 OA
HETATM   19  O   UNK N   1      -1.135  -4.207  -0.615  0.00  0.00    -0.624 OA
BRANCH  17  20
HETATM   20  O   UNK N   1      -3.237  -4.778  -0.932  0.00  0.00    -0.188 OA
BRANCH  20  21
HETATM   21  P   UNK N   1      -3.549  -4.258   0.739  0.00  0.00     0.402 P 
HETATM   22  O   UNK N   1      -4.882  -4.943   1.154  0.00  0.00    -0.631 OA
BRANCH  21  23
HETATM   23  O   UNK N   1      -2.335  -4.887   1.810  0.00  0.00    -0.307 OA
HETATM   24  H   UNK N   1      -2.301  -5.650   2.408  0.00  0.00     0.222 HD
ENDBRANCH  21  23
BRANCH  21  25
HETATM   25  O   UNK N   1      -3.699  -2.519   0.925  0.00  0.00    -0.294 OA
BRANCH  25  26
HETATM   26  C   UNK N   1      -4.867  -2.255   1.644  0.00  0.00     0.215 C 
BRANCH  26  27
HETATM   27  C   UNK N   1      -5.901  -1.577   0.753  0.00  0.00     0.180 C 
HETATM   28  C   UNK N   1      -5.533  -0.164   0.340  0.00  0.00     0.182 C 
HETATM   29  C   UNK N   1      -6.861   0.272  -0.228  0.00  0.00     0.198 C 
HETATM   30  C   UNK N   1      -7.813  -0.371   0.806  0.00  0.00     0.259 C 
HETATM   31  O   UNK N   1      -7.107  -1.428   1.451  0.00  0.00    -0.353 OA
BRANCH  28  32
HETATM   32  O   UNK N   1      -4.495  -0.111  -0.593  0.00  0.00    -0.390 OA
HETATM   33  H   UNK N   1      -4.102  -0.717  -1.241  0.00  0.00     0.210 HD
ENDBRANCH  28  32
BRANCH  29  34
HETATM   34  O   UNK N   1      -7.037  -0.316  -1.489  0.00  0.00    -0.388 OA
HETATM   35  H   UNK N   1      -7.450  -0.414  -2.361  0.00  0.00     0.210 HD
ENDBRANCH  29  34
BRANCH  30  36
HETATM   36  N   UNK N   1      -9.040  -0.902   0.188  0.00  0.00    -0.336 N 
HETATM   37  C   UNK N   1      -9.945  -0.079  -0.417  0.00  0.00     0.093 A 
HETATM   38  C   UNK N   1     -11.099  -0.615  -1.004  0.00  0.00     0.018 A 
HETATM   39  C   UNK N   1     -11.313  -1.997  -0.971  0.00  0.00     0.018 A 
HETATM   40  C   UNK N   1     -10.372  -2.828  -0.354  0.00  0.00     0.030 A 
HETATM   41  C   UNK N   1      -9.248  -2.250   0.220  0.00  0.00     0.108 A 
BRANCH  40  42
HETATM   42  C   UNK N   1     -10.528  -4.296  -0.298  0.00  0.00     0.145 C 
HETATM   43  N   UNK N   1     -11.567  -4.862  -0.791  0.00  0.00    -0.379 N 
HETATM   44  H   UNK N   1     -12.343  -4.388  -1.169  0.00  0.00     0.158 HD
ATOM     45  HN  UNK N   1     -11.593  -5.882  -0.791  1.00  0.00     0.158 HD
BRANCH  42  46
HETATM   46  O   UNK N   1      -9.567  -5.054   0.270  0.00  0.00    -0.346 OA
HETATM   47  H   UNK N   1      -9.689  -5.894   0.665  0.00  0.00     0.219 HD
ENDBRANCH  42  46
ENDBRANCH  40  42
ENDBRANCH  30  36
ENDBRANCH  26  27
ENDBRANCH  25  26
ENDBRANCH  21  25
ENDBRANCH  20  21
ENDBRANCH  17  20
ENDBRANCH  16  17
ENDBRANCH  15  16
ENDBRANCH  10  15
BRANCH  12  48
HETATM   48  N   UNK N   1       1.624   1.721   0.434  0.00  0.00    -0.281 N 
HETATM   49  C   UNK N   1       2.847   2.225   0.169  0.00  0.00     0.143 A 
HETATM   50  C   UNK N   1       2.773   3.574   0.112  0.00  0.00     0.123 A 
HETATM   51  N   UNK N   1       4.011   1.561  -0.032  0.00  0.00    -0.336 N 
HETATM   52  C   UNK N   1       3.901   4.324  -0.182  0.00  0.00     0.131 A 
HETATM   53  N   UNK N   1       1.517   3.980   0.354  0.00  0.00    -0.330 N 
HETATM   54  N   UNK N   1       5.076   3.660  -0.388  0.00  0.00    -0.337 N 
HETATM   55  C   UNK N   1       5.136   2.290  -0.307  0.00  0.00     0.183 A 
ATOM     56  HN  UNK N   1       5.921   4.189  -0.604  1.00  0.00     0.168 HD
HETATM   57  C   UNK N   1       0.832   2.824   0.557  0.00  0.00     0.160 A 
ATOM     58  HN  UNK N   1       1.159   4.935   0.380  1.00  0.00     0.168 HD
HETATM   59 Br   UNK N   1      -1.047   2.790   0.925  0.00  0.00    -0.010 Br
ATOM     60  HN  UNK N   1       4.047   0.543   0.021  1.00  0.00     0.168 HD
BRANCH  52  61
HETATM   61  N   UNK N   1       3.841   5.729  -0.280  0.00  0.00    -0.383 N 
HETATM   62  H   UNK N   1       4.670   6.255  -0.348  0.00  0.00     0.157 HD
HETATM   63  H   UNK N   1       2.968   6.184  -0.280  0.00  0.00     0.157 HD
ENDBRANCH  52  61
ENDBRANCH  12  48
ENDBRANCH   7   8
ENDBRANCH   3   7
TORSDOF 20
