REMARK  5 active torsions:
REMARK  status: ('A' for Active; 'I' for Inactive)
REMARK    1  A    between atoms: C_6  and  C_3 
REMARK    2  A    between atoms: C_3  and  O_17 
REMARK    3  A    between atoms: C_4  and  C_6 
REMARK    4  A    between atoms: C_6  and  O_18 
REMARK    5  A    between atoms: O_19  and  C_8 
REMARK       I    between atoms: N_10  and  C_9 
ROOT
HETATM    1  C   UNK N   1      -1.062  -2.098   0.466  0.00  0.00     0.149 C 
HETATM    2  C   UNK N   1      -1.229  -0.723  -0.214  0.00  0.00     0.131 C 
HETATM    3  C   UNK N   1       1.273  -0.573  -0.057  0.00  0.00     0.125 A 
HETATM    4  C   UNK N   1       1.371  -1.959   0.019  0.00  0.00     0.148 A 
HETATM    5  C   UNK N   1       2.443   0.184  -0.089  0.00  0.00     0.185 A 
HETATM    6  C   UNK N   1       3.728  -1.799   0.011  0.00  0.00     0.679 A 
HETATM    7  N   UNK N   1       4.873  -2.368   0.048  0.00  0.00    -0.234 N 
ATOM      8  HN  UNK N   1       5.722  -1.803   0.048  1.00  0.00     0.174 HD
HETATM    9  N   UNK N   1       0.189  -2.732   0.099  0.00  0.00    -0.372 N 
HETATM   10  N   UNK N   1       0.000   0.044  -0.107  0.00  0.00    -0.375 N 
HETATM   11  N   UNK N   1       2.594  -2.552   0.044  0.00  0.00    -0.175 N 
HETATM   12  N   UNK N   1       3.648  -0.442  -0.051  0.00  0.00    -0.168 N 
ATOM     13  HN  UNK N   1       4.504   0.112  -0.070  1.00  0.00     0.186 HD
HETATM   14  H   UNK N   1       4.934  -3.350   0.076  0.00  0.00     0.174 HD
HETATM   15  H   UNK N   1       0.216  -3.697  -0.094  0.00  0.00     0.161 HD
HETATM   16  H   UNK N   1      -0.054   1.026  -0.069  0.00  0.00     0.160 HD
HETATM   17  H   UNK N   1       2.660  -3.534   0.087  0.00  0.00     0.186 HD
ENDROOT
BRANCH   2  18
HETATM   18  C   UNK N   1      -2.380   0.062   0.453  0.00  0.00     0.170 C 
BRANCH  18  19
HETATM   19  C   UNK N   1      -2.645   1.437  -0.202  0.00  0.00     0.145 C 
HETATM   20  C   UNK N   1      -3.747   2.172   0.543  0.00  0.00     0.042 C 
BRANCH  19  21
HETATM   21  O   UNK N   1      -1.502   2.238  -0.180  0.00  0.00    -0.393 OA
HETATM   22  H   UNK N   1      -0.623   1.829  -0.164  0.00  0.00     0.210 HD
ENDBRANCH  19  21
ENDBRANCH  18  19
BRANCH  18  23
HETATM   23  O   UNK N   1      -3.554  -0.699   0.396  0.00  0.00    -0.391 OA
HETATM   24  H   UNK N   1      -4.417  -0.258   0.357  0.00  0.00     0.210 HD
ENDBRANCH  18  23
ENDBRANCH   2  18
BRANCH   5  25
HETATM   25  O   UNK N   1       2.385   1.525  -0.157  0.00  0.00    -0.344 OA
HETATM   26  H   UNK N   1       3.174   2.028  -0.205  0.00  0.00     0.219 HD
ENDBRANCH   5  25
TORSDOF 5
