MODEL 1
REMARK VINA RESULT:      -5.2      0.000      0.000
REMARK  16 active torsions:
REMARK  status: ('A' for Active; 'I' for Inactive)
REMARK    1  A    between atoms: N_2  and  C_4 
REMARK    2  A    between atoms: C_4  and  C_5 
REMARK    3  A    between atoms: C_5  and  C_6 
REMARK    4  A    between atoms: C_6  and  C_7 
REMARK    5  A    between atoms: C_9  and  C_10 
REMARK    6  A    between atoms: C_10  and  C_11 
REMARK    7  A    between atoms: C_11  and  C_12 
REMARK    8  A    between atoms: C_14  and  C_15 
REMARK    9  A    between atoms: C_15  and  C_16 
REMARK   10  A    between atoms: C_16  and  C_17 
REMARK   11  A    between atoms: C_18  and  C_20 
REMARK   12  A    between atoms: C_20  and  C_21 
REMARK   13  A    between atoms: C_21  and  C_22 
REMARK   14  A    between atoms: C_23  and  C_25 
REMARK   15  A    between atoms: C_25  and  C_26 
REMARK   16  A    between atoms: C_26  and  C_27 
ROOT
HETATM    1  C   UNK N   1      25.875  28.139  -3.338  0.00  0.00     0.031 C 
ENDROOT
BRANCH   1   2
HETATM    2  C   UNK N   1      26.232  26.730  -3.722  0.00  0.00    -0.024 C 
HETATM    3  C   UNK N   1      25.769  26.111  -4.823  0.00  0.00    -0.087 C 
HETATM    4  C   UNK N   1      24.822  26.782  -5.767  0.00  0.00     0.043 C 
BRANCH   3   5
HETATM    5  C   UNK N   1      26.162  24.694  -5.096  0.00  0.00     0.037 C 
BRANCH   5   6
HETATM    6  C   UNK N   1      27.613  24.602  -5.543  0.00  0.00     0.031 C 
BRANCH   6   7
HETATM    7  C   UNK N   1      27.977  23.171  -5.806  0.00  0.00    -0.024 C 
HETATM    8  C   UNK N   1      28.801  22.790  -6.792  0.00  0.00    -0.087 C 
HETATM    9  C   UNK N   1      29.437  23.783  -7.715  0.00  0.00     0.043 C 
BRANCH   8  10
HETATM   10  C   UNK N   1      29.071  21.335  -6.985  0.00  0.00     0.035 C 
BRANCH  10  11
HETATM   11  C   UNK N   1      30.501  21.005  -6.609  0.00  0.00     0.034 C 
BRANCH  11  12
HETATM   12  C   UNK N   1      30.613  20.911  -5.100  0.00  0.00     0.271 C 
BRANCH  12  13
HETATM   13  N   UNK N   1      31.506  21.944  -4.600  0.00  0.00     0.080 N 
HETATM   14  C   UNK N   1      32.277  21.354  -3.523  0.00  0.00     0.309 C 
HETATM   15  C   UNK N   1      32.445  22.263  -5.664  0.00  0.00     0.309 C 
ENDBRANCH  12  13
ENDBRANCH  11  12
ENDBRANCH  10  11
ENDBRANCH   8  10
ENDBRANCH   6   7
ENDBRANCH   5   6
ENDBRANCH   3   5
ENDBRANCH   1   2
BRANCH   1  16
HETATM   16  C   UNK N   1      27.007  29.121  -3.623  0.00  0.00     0.031 C 
BRANCH  16  17
HETATM   17  C   UNK N   1      27.259  29.352  -5.087  0.00  0.00    -0.024 C 
HETATM   18  C   UNK N   1      28.305  28.854  -5.768  0.00  0.00    -0.087 C 
HETATM   19  C   UNK N   1      29.349  28.010  -5.114  0.00  0.00     0.043 C 
BRANCH  18  20
HETATM   20  C   UNK N   1      28.511  29.251  -7.191  0.00  0.00     0.037 C 
BRANCH  20  21
HETATM   21  C   UNK N   1      28.773  28.063  -8.100  0.00  0.00     0.031 C 
BRANCH  21  22
HETATM   22  C   UNK N   1      27.576  27.159  -8.099  0.00  0.00    -0.024 C 
HETATM   23  C   UNK N   1      27.090  26.542  -9.195  0.00  0.00    -0.087 C 
HETATM   24  C   UNK N   1      27.751  26.706 -10.526  0.00  0.00     0.043 C 
BRANCH  23  25
HETATM   25  C   UNK N   1      25.865  25.666  -9.119  0.00  0.00     0.037 C 
BRANCH  25  26
HETATM   26  C   UNK N   1      26.150  24.180  -9.306  0.00  0.00     0.031 C 
BRANCH  26  27
HETATM   27  C   UNK N   1      25.404  23.375  -8.287  0.00  0.00    -0.024 C 
HETATM   28  C   UNK N   1      25.377  22.036  -8.302  0.00  0.00    -0.091 C 
HETATM   29  C   UNK N   1      26.125  21.244  -9.327  0.00  0.00     0.042 C 
HETATM   30  C   UNK N   1      24.589  21.313  -7.267  0.00  0.00     0.042 C 
ENDBRANCH  26  27
ENDBRANCH  25  26
ENDBRANCH  23  25
ENDBRANCH  21  22
ENDBRANCH  20  21
ENDBRANCH  18  20
ENDBRANCH  16  17
ENDBRANCH   1  16
TORSDOF 16
ENDMDL
MODEL 2
REMARK VINA RESULT:      -5.1      1.834      4.132
REMARK  16 active torsions:
REMARK  status: ('A' for Active; 'I' for Inactive)
REMARK    1  A    between atoms: N_2  and  C_4 
REMARK    2  A    between atoms: C_4  and  C_5 
REMARK    3  A    between atoms: C_5  and  C_6 
REMARK    4  A    between atoms: C_6  and  C_7 
REMARK    5  A    between atoms: C_9  and  C_10 
REMARK    6  A    between atoms: C_10  and  C_11 
REMARK    7  A    between atoms: C_11  and  C_12 
REMARK    8  A    between atoms: C_14  and  C_15 
REMARK    9  A    between atoms: C_15  and  C_16 
REMARK   10  A    between atoms: C_16  and  C_17 
REMARK   11  A    between atoms: C_18  and  C_20 
REMARK   12  A    between atoms: C_20  and  C_21 
REMARK   13  A    between atoms: C_21  and  C_22 
REMARK   14  A    between atoms: C_23  and  C_25 
REMARK   15  A    between atoms: C_25  and  C_26 
REMARK   16  A    between atoms: C_26  and  C_27 
ROOT
HETATM    1  C   UNK N   1      29.822  29.653  -5.769  0.00  0.00     0.031 C 
ENDROOT
BRANCH   1   2
HETATM    2  C   UNK N   1      29.696  28.165  -5.939  0.00  0.00    -0.024 C 
HETATM    3  C   UNK N   1      29.824  27.280  -4.934  0.00  0.00    -0.087 C 
HETATM    4  C   UNK N   1      30.131  27.714  -3.535  0.00  0.00     0.043 C 
BRANCH   3   5
HETATM    5  C   UNK N   1      29.711  25.817  -5.217  0.00  0.00     0.037 C 
BRANCH   5   6
HETATM    6  C   UNK N   1      30.548  25.002  -4.243  0.00  0.00     0.031 C 
BRANCH   6   7
HETATM    7  C   UNK N   1      30.483  23.547  -4.603  0.00  0.00    -0.024 C 
HETATM    8  C   UNK N   1      30.379  22.568  -3.694  0.00  0.00    -0.087 C 
HETATM    9  C   UNK N   1      30.311  22.859  -2.226  0.00  0.00     0.043 C 
BRANCH   8  10
HETATM   10  C   UNK N   1      30.355  21.151  -4.160  0.00  0.00     0.035 C 
BRANCH  10  11
HETATM   11  C   UNK N   1      30.185  21.088  -5.665  0.00  0.00     0.034 C 
BRANCH  11  12
HETATM   12  C   UNK N   1      31.299  20.250  -6.260  0.00  0.00     0.271 C 
BRANCH  12  13
HETATM   13  N   UNK N   1      30.881  19.700  -7.539  0.00  0.00     0.080 N 
HETATM   14  C   UNK N   1      29.436  19.583  -7.500  0.00  0.00     0.309 C 
HETATM   15  C   UNK N   1      31.195  20.685  -8.563  0.00  0.00     0.309 C 
ENDBRANCH  12  13
ENDBRANCH  11  12
ENDBRANCH  10  11
ENDBRANCH   8  10
ENDBRANCH   6   7
ENDBRANCH   5   6
ENDBRANCH   3   5
ENDBRANCH   1   2
BRANCH   1  16
HETATM   16  C   UNK N   1      28.465  30.348  -5.725  0.00  0.00     0.031 C 
BRANCH  16  17
HETATM   17  C   UNK N   1      27.321  29.430  -5.395  0.00  0.00    -0.024 C 
HETATM   18  C   UNK N   1      26.691  29.393  -4.209  0.00  0.00    -0.087 C 
HETATM   19  C   UNK N   1      27.088  30.275  -3.072  0.00  0.00     0.043 C 
BRANCH  18  20
HETATM   20  C   UNK N   1      25.648  28.356  -3.964  0.00  0.00     0.037 C 
BRANCH  20  21
HETATM   21  C   UNK N   1      26.234  27.028  -3.514  0.00  0.00     0.031 C 
BRANCH  21  22
HETATM   22  C   UNK N   1      25.981  25.989  -4.566  0.00  0.00    -0.024 C 
HETATM   23  C   UNK N   1      26.351  24.696  -4.459  0.00  0.00    -0.087 C 
HETATM   24  C   UNK N   1      27.038  24.191  -3.231  0.00  0.00     0.043 C 
BRANCH  23  25
HETATM   25  C   UNK N   1      26.083  23.714  -5.572  0.00  0.00     0.037 C 
BRANCH  25  26
HETATM   26  C   UNK N   1      27.018  23.856  -6.767  0.00  0.00     0.031 C 
BRANCH  26  27
HETATM   27  C   UNK N   1      26.245  24.245  -7.989  0.00  0.00    -0.024 C 
HETATM   28  C   UNK N   1      26.247  25.491  -8.481  0.00  0.00    -0.091 C 
HETATM   29  C   UNK N   1      27.055  26.583  -7.856  0.00  0.00     0.042 C 
HETATM   30  C   UNK N   1      25.429  25.798  -9.686  0.00  0.00     0.042 C 
ENDBRANCH  26  27
ENDBRANCH  25  26
ENDBRANCH  23  25
ENDBRANCH  21  22
ENDBRANCH  20  21
ENDBRANCH  18  20
ENDBRANCH  16  17
ENDBRANCH   1  16
TORSDOF 16
ENDMDL
MODEL 3
REMARK VINA RESULT:      -5.1      2.508      6.938
REMARK  16 active torsions:
REMARK  status: ('A' for Active; 'I' for Inactive)
REMARK    1  A    between atoms: N_2  and  C_4 
REMARK    2  A    between atoms: C_4  and  C_5 
REMARK    3  A    between atoms: C_5  and  C_6 
REMARK    4  A    between atoms: C_6  and  C_7 
REMARK    5  A    between atoms: C_9  and  C_10 
REMARK    6  A    between atoms: C_10  and  C_11 
REMARK    7  A    between atoms: C_11  and  C_12 
REMARK    8  A    between atoms: C_14  and  C_15 
REMARK    9  A    between atoms: C_15  and  C_16 
REMARK   10  A    between atoms: C_16  and  C_17 
REMARK   11  A    between atoms: C_18  and  C_20 
REMARK   12  A    between atoms: C_20  and  C_21 
REMARK   13  A    between atoms: C_21  and  C_22 
REMARK   14  A    between atoms: C_23  and  C_25 
REMARK   15  A    between atoms: C_25  and  C_26 
REMARK   16  A    between atoms: C_26  and  C_27 
ROOT
HETATM    1  C   UNK N   1      27.495  22.624  -7.786  0.00  0.00     0.031 C 
ENDROOT
BRANCH   1   2
HETATM    2  C   UNK N   1      26.884  23.396  -6.650  0.00  0.00    -0.024 C 
HETATM    3  C   UNK N   1      26.180  24.532  -6.805  0.00  0.00    -0.087 C 
HETATM    4  C   UNK N   1      25.962  25.147  -8.153  0.00  0.00     0.043 C 
BRANCH   3   5
HETATM    5  C   UNK N   1      25.642  25.239  -5.604  0.00  0.00     0.037 C 
BRANCH   5   6
HETATM    6  C   UNK N   1      25.107  26.616  -5.969  0.00  0.00     0.031 C 
BRANCH   6   7
HETATM    7  C   UNK N   1      25.281  27.556  -4.814  0.00  0.00    -0.024 C 
HETATM    8  C   UNK N   1      26.246  28.485  -4.760  0.00  0.00    -0.087 C 
HETATM    9  C   UNK N   1      27.232  28.663  -5.873  0.00  0.00     0.043 C 
BRANCH   8  10
HETATM   10  C   UNK N   1      26.349  29.348  -3.547  0.00  0.00     0.035 C 
BRANCH  10  11
HETATM   11  C   UNK N   1      27.589  28.997  -2.748  0.00  0.00     0.034 C 
BRANCH  11  12
HETATM   12  C   UNK N   1      28.126  30.249  -2.084  0.00  0.00     0.271 C 
BRANCH  12  13
HETATM   13  N   UNK N   1      29.547  30.391  -2.361  0.00  0.00     0.080 N 
HETATM   14  C   UNK N   1      30.091  29.052  -2.482  0.00  0.00     0.309 C 
HETATM   15  C   UNK N   1      29.678  31.016  -3.668  0.00  0.00     0.309 C 
ENDBRANCH  12  13
ENDBRANCH  11  12
ENDBRANCH  10  11
ENDBRANCH   8  10
ENDBRANCH   6   7
ENDBRANCH   5   6
ENDBRANCH   3   5
ENDBRANCH   1   2
BRANCH   1  16
HETATM   16  C   UNK N   1      28.945  22.239  -7.510  0.00  0.00     0.031 C 
BRANCH  16  17
HETATM   17  C   UNK N   1      29.207  21.825  -6.089  0.00  0.00    -0.024 C 
HETATM   18  C   UNK N   1      30.395  21.930  -5.471  0.00  0.00    -0.087 C 
HETATM   19  C   UNK N   1      31.603  22.473  -6.161  0.00  0.00     0.043 C 
BRANCH  18  20
HETATM   20  C   UNK N   1      30.559  21.376  -4.096  0.00  0.00     0.037 C 
BRANCH  20  21
HETATM   21  C   UNK N   1      30.012  22.300  -3.022  0.00  0.00     0.031 C 
BRANCH  21  22
HETATM   22  C   UNK N   1      29.964  23.704  -3.548  0.00  0.00    -0.024 C 
HETATM   23  C   UNK N   1      28.854  24.470  -3.563  0.00  0.00    -0.087 C 
HETATM   24  C   UNK N   1      27.560  23.961  -3.015  0.00  0.00     0.043 C 
BRANCH  23  25
HETATM   25  C   UNK N   1      28.879  25.867  -4.131  0.00  0.00     0.037 C 
BRANCH  25  26
HETATM   26  C   UNK N   1      29.984  26.105  -5.153  0.00  0.00     0.031 C 
BRANCH  26  27
HETATM   27  C   UNK N   1      29.486  25.818  -6.536  0.00  0.00    -0.024 C 
HETATM   28  C   UNK N   1      30.288  25.816  -7.608  0.00  0.00    -0.091 C 
HETATM   29  C   UNK N   1      31.757  26.069  -7.494  0.00  0.00     0.042 C 
HETATM   30  C   UNK N   1      29.706  25.547  -8.951  0.00  0.00     0.042 C 
ENDBRANCH  26  27
ENDBRANCH  25  26
ENDBRANCH  23  25
ENDBRANCH  21  22
ENDBRANCH  20  21
ENDBRANCH  18  20
ENDBRANCH  16  17
ENDBRANCH   1  16
TORSDOF 16
ENDMDL
MODEL 4
REMARK VINA RESULT:      -4.9      2.338      6.822
REMARK  16 active torsions:
REMARK  status: ('A' for Active; 'I' for Inactive)
REMARK    1  A    between atoms: N_2  and  C_4 
REMARK    2  A    between atoms: C_4  and  C_5 
REMARK    3  A    between atoms: C_5  and  C_6 
REMARK    4  A    between atoms: C_6  and  C_7 
REMARK    5  A    between atoms: C_9  and  C_10 
REMARK    6  A    between atoms: C_10  and  C_11 
REMARK    7  A    between atoms: C_11  and  C_12 
REMARK    8  A    between atoms: C_14  and  C_15 
REMARK    9  A    between atoms: C_15  and  C_16 
REMARK   10  A    between atoms: C_16  and  C_17 
REMARK   11  A    between atoms: C_18  and  C_20 
REMARK   12  A    between atoms: C_20  and  C_21 
REMARK   13  A    between atoms: C_21  and  C_22 
REMARK   14  A    between atoms: C_23  and  C_25 
REMARK   15  A    between atoms: C_25  and  C_26 
REMARK   16  A    between atoms: C_26  and  C_27 
ROOT
HETATM    1  C   UNK N   1      29.880  27.960  -4.300  0.00  0.00     0.031 C 
ENDROOT
BRANCH   1   2
HETATM    2  C   UNK N   1      28.464  28.275  -3.903  0.00  0.00    -0.024 C 
HETATM    3  C   UNK N   1      27.587  28.916  -4.695  0.00  0.00    -0.087 C 
HETATM    4  C   UNK N   1      27.962  29.400  -6.061  0.00  0.00     0.043 C 
BRANCH   3   5
HETATM    5  C   UNK N   1      26.210  29.209  -4.190  0.00  0.00     0.037 C 
BRANCH   5   6
HETATM    6  C   UNK N   1      25.410  27.929  -4.001  0.00  0.00     0.031 C 
BRANCH   6   7
HETATM    7  C   UNK N   1      25.412  27.132  -5.271  0.00  0.00    -0.024 C 
HETATM    8  C   UNK N   1      25.833  25.861  -5.342  0.00  0.00    -0.087 C 
HETATM    9  C   UNK N   1      26.333  25.129  -4.135  0.00  0.00     0.043 C 
BRANCH   8  10
HETATM   10  C   UNK N   1      25.823  25.170  -6.664  0.00  0.00     0.035 C 
BRANCH  10  11
HETATM   11  C   UNK N   1      25.737  26.180  -7.792  0.00  0.00     0.034 C 
BRANCH  11  12
HETATM   12  C   UNK N   1      27.027  26.152  -8.587  0.00  0.00     0.271 C 
BRANCH  12  13
HETATM   13  N   UNK N   1      26.741  25.921  -9.994  0.00  0.00     0.080 N 
HETATM   14  C   UNK N   1      27.068  24.535 -10.272  0.00  0.00     0.309 C 
HETATM   15  C   UNK N   1      25.305  26.058 -10.177  0.00  0.00     0.309 C 
ENDBRANCH  12  13
ENDBRANCH  11  12
ENDBRANCH  10  11
ENDBRANCH   8  10
ENDBRANCH   6   7
ENDBRANCH   5   6
ENDBRANCH   3   5
ENDBRANCH   1   2
BRANCH   1  16
HETATM   16  C   UNK N   1      30.024  26.546  -4.856  0.00  0.00     0.031 C 
BRANCH  16  17
HETATM   17  C   UNK N   1      29.963  25.470  -3.808  0.00  0.00    -0.024 C 
HETATM   18  C   UNK N   1      30.897  24.519  -3.637  0.00  0.00    -0.087 C 
HETATM   19  C   UNK N   1      32.109  24.432  -4.504  0.00  0.00     0.043 C 
BRANCH  18  20
HETATM   20  C   UNK N   1      30.666  23.435  -2.639  0.00  0.00     0.037 C 
BRANCH  20  21
HETATM   21  C   UNK N   1      29.647  22.411  -3.109  0.00  0.00     0.031 C 
BRANCH  21  22
HETATM   22  C   UNK N   1      30.328  21.387  -3.968  0.00  0.00    -0.024 C 
HETATM   23  C   UNK N   1      30.184  21.303  -5.307  0.00  0.00    -0.087 C 
HETATM   24  C   UNK N   1      29.326  22.275  -6.051  0.00  0.00     0.043 C 
BRANCH  23  25
HETATM   25  C   UNK N   1      30.884  20.229  -6.101  0.00  0.00     0.037 C 
BRANCH  25  26
HETATM   26  C   UNK N   1      32.199  19.760  -5.490  0.00  0.00     0.031 C 
BRANCH  26  27
HETATM   27  C   UNK N   1      33.276  20.772  -5.732  0.00  0.00    -0.024 C 
HETATM   28  C   UNK N   1      34.055  21.249  -4.753  0.00  0.00    -0.091 C 
HETATM   29  C   UNK N   1      33.923  20.775  -3.340  0.00  0.00     0.042 C 
HETATM   30  C   UNK N   1      35.085  22.273  -5.076  0.00  0.00     0.042 C 
ENDBRANCH  26  27
ENDBRANCH  25  26
ENDBRANCH  23  25
ENDBRANCH  21  22
ENDBRANCH  20  21
ENDBRANCH  18  20
ENDBRANCH  16  17
ENDBRANCH   1  16
TORSDOF 16
ENDMDL
MODEL 5
REMARK VINA RESULT:      -4.9      1.866      4.033
REMARK  16 active torsions:
REMARK  status: ('A' for Active; 'I' for Inactive)
REMARK    1  A    between atoms: N_2  and  C_4 
REMARK    2  A    between atoms: C_4  and  C_5 
REMARK    3  A    between atoms: C_5  and  C_6 
REMARK    4  A    between atoms: C_6  and  C_7 
REMARK    5  A    between atoms: C_9  and  C_10 
REMARK    6  A    between atoms: C_10  and  C_11 
REMARK    7  A    between atoms: C_11  and  C_12 
REMARK    8  A    between atoms: C_14  and  C_15 
REMARK    9  A    between atoms: C_15  and  C_16 
REMARK   10  A    between atoms: C_16  and  C_17 
REMARK   11  A    between atoms: C_18  and  C_20 
REMARK   12  A    between atoms: C_20  and  C_21 
REMARK   13  A    between atoms: C_21  and  C_22 
REMARK   14  A    between atoms: C_23  and  C_25 
REMARK   15  A    between atoms: C_25  and  C_26 
REMARK   16  A    between atoms: C_26  and  C_27 
ROOT
HETATM    1  C   UNK N   1      29.391  29.000  -6.639  0.00  0.00     0.031 C 
ENDROOT
BRANCH   1   2
HETATM    2  C   UNK N   1      29.373  27.540  -6.280  0.00  0.00    -0.024 C 
HETATM    3  C   UNK N   1      30.023  27.018  -5.225  0.00  0.00    -0.087 C 
HETATM    4  C   UNK N   1      30.857  27.863  -4.313  0.00  0.00     0.043 C 
BRANCH   3   5
HETATM    5  C   UNK N   1      29.965  25.545  -4.975  0.00  0.00     0.037 C 
BRANCH   5   6
HETATM    6  C   UNK N   1      30.414  25.209  -3.561  0.00  0.00     0.031 C 
BRANCH   6   7
HETATM    7  C   UNK N   1      31.128  23.889  -3.551  0.00  0.00    -0.024 C 
HETATM    8  C   UNK N   1      30.647  22.797  -2.941  0.00  0.00    -0.087 C 
HETATM    9  C   UNK N   1      29.334  22.811  -2.220  0.00  0.00     0.043 C 
BRANCH   8  10
HETATM   10  C   UNK N   1      31.455  21.543  -2.964  0.00  0.00     0.035 C 
BRANCH  10  11
HETATM   11  C   UNK N   1      32.728  21.745  -3.762  0.00  0.00     0.034 C 
BRANCH  11  12
HETATM   12  C   UNK N   1      33.660  20.574  -3.520  0.00  0.00     0.271 C 
BRANCH  12  13
HETATM   13  N   UNK N   1      34.678  20.524  -4.557  0.00  0.00     0.080 N 
HETATM   14  C   UNK N   1      34.012  20.786  -5.819  0.00  0.00     0.309 C 
HETATM   15  C   UNK N   1      35.592  21.632  -4.328  0.00  0.00     0.309 C 
ENDBRANCH  12  13
ENDBRANCH  11  12
ENDBRANCH  10  11
ENDBRANCH   8  10
ENDBRANCH   6   7
ENDBRANCH   5   6
ENDBRANCH   3   5
ENDBRANCH   1   2
BRANCH   1  16
HETATM   16  C   UNK N   1      28.162  29.739  -6.120  0.00  0.00     0.031 C 
BRANCH  16  17
HETATM   17  C   UNK N   1      27.053  28.833  -5.662  0.00  0.00    -0.024 C 
HETATM   18  C   UNK N   1      26.615  28.746  -4.395  0.00  0.00    -0.087 C 
HETATM   19  C   UNK N   1      27.211  29.555  -3.291  0.00  0.00     0.043 C 
BRANCH  18  20
HETATM   20  C   UNK N   1      25.588  27.722  -4.042  0.00  0.00     0.037 C 
BRANCH  20  21
HETATM   21  C   UNK N   1      25.178  26.870  -5.231  0.00  0.00     0.031 C 
BRANCH  21  22
HETATM   22  C   UNK N   1      25.788  25.506  -5.102  0.00  0.00    -0.024 C 
HETATM   23  C   UNK N   1      26.431  24.864  -6.100  0.00  0.00    -0.087 C 
HETATM   24  C   UNK N   1      26.603  25.504  -7.440  0.00  0.00     0.043 C 
BRANCH  23  25
HETATM   25  C   UNK N   1      26.999  23.482  -5.900  0.00  0.00     0.037 C 
BRANCH  25  26
HETATM   26  C   UNK N   1      27.956  23.037  -7.000  0.00  0.00     0.031 C 
BRANCH  26  27
HETATM   27  C   UNK N   1      29.061  22.206  -6.424  0.00  0.00    -0.024 C 
HETATM   28  C   UNK N   1      29.340  20.971  -6.860  0.00  0.00    -0.091 C 
HETATM   29  C   UNK N   1      28.581  20.342  -7.986  0.00  0.00     0.042 C 
HETATM   30  C   UNK N   1      30.439  20.203  -6.215  0.00  0.00     0.042 C 
ENDBRANCH  26  27
ENDBRANCH  25  26
ENDBRANCH  23  25
ENDBRANCH  21  22
ENDBRANCH  20  21
ENDBRANCH  18  20
ENDBRANCH  16  17
ENDBRANCH   1  16
TORSDOF 16
ENDMDL
MODEL 6
REMARK VINA RESULT:      -4.8      2.564      6.265
REMARK  16 active torsions:
REMARK  status: ('A' for Active; 'I' for Inactive)
REMARK    1  A    between atoms: N_2  and  C_4 
REMARK    2  A    between atoms: C_4  and  C_5 
REMARK    3  A    between atoms: C_5  and  C_6 
REMARK    4  A    between atoms: C_6  and  C_7 
REMARK    5  A    between atoms: C_9  and  C_10 
REMARK    6  A    between atoms: C_10  and  C_11 
REMARK    7  A    between atoms: C_11  and  C_12 
REMARK    8  A    between atoms: C_14  and  C_15 
REMARK    9  A    between atoms: C_15  and  C_16 
REMARK   10  A    between atoms: C_16  and  C_17 
REMARK   11  A    between atoms: C_18  and  C_20 
REMARK   12  A    between atoms: C_20  and  C_21 
REMARK   13  A    between atoms: C_21  and  C_22 
REMARK   14  A    between atoms: C_23  and  C_25 
REMARK   15  A    between atoms: C_25  and  C_26 
REMARK   16  A    between atoms: C_26  and  C_27 
ROOT
HETATM    1  C   UNK N   1      29.239  22.639  -6.940  0.00  0.00     0.031 C 
ENDROOT
BRANCH   1   2
HETATM    2  C   UNK N   1      29.673  21.877  -5.720  0.00  0.00    -0.024 C 
HETATM    3  C   UNK N   1      29.885  22.441  -4.517  0.00  0.00    -0.087 C 
HETATM    4  C   UNK N   1      29.721  23.912  -4.295  0.00  0.00     0.043 C 
BRANCH   3   5
HETATM    5  C   UNK N   1      30.347  21.596  -3.374  0.00  0.00     0.037 C 
BRANCH   5   6
HETATM    6  C   UNK N   1      31.621  22.153  -2.758  0.00  0.00     0.031 C 
BRANCH   6   7
HETATM    7  C   UNK N   1      32.756  21.197  -2.977  0.00  0.00    -0.024 C 
HETATM    8  C   UNK N   1      33.642  21.322  -3.974  0.00  0.00    -0.087 C 
HETATM    9  C   UNK N   1      33.570  22.451  -4.956  0.00  0.00     0.043 C 
BRANCH   8  10
HETATM   10  C   UNK N   1      34.715  20.295  -4.120  0.00  0.00     0.035 C 
BRANCH  10  11
HETATM   11  C   UNK N   1      34.120  18.901  -4.123  0.00  0.00     0.034 C 
BRANCH  11  12
HETATM   12  C   UNK N   1      34.776  18.079  -5.215  0.00  0.00     0.271 C 
BRANCH  12  13
HETATM   13  N   UNK N   1      35.803  17.222  -4.645  0.00  0.00     0.080 N 
HETATM   14  C   UNK N   1      35.132  16.048  -4.119  0.00  0.00     0.309 C 
HETATM   15  C   UNK N   1      36.650  16.767  -5.737  0.00  0.00     0.309 C 
ENDBRANCH  12  13
ENDBRANCH  11  12
ENDBRANCH  10  11
ENDBRANCH   8  10
ENDBRANCH   6   7
ENDBRANCH   5   6
ENDBRANCH   3   5
ENDBRANCH   1   2
BRANCH   1  16
HETATM   16  C   UNK N   1      27.725  22.616  -7.128  0.00  0.00     0.031 C 
BRANCH  16  17
HETATM   17  C   UNK N   1      27.110  23.977  -7.298  0.00  0.00    -0.024 C 
HETATM   18  C   UNK N   1      26.360  24.596  -6.370  0.00  0.00    -0.087 C 
HETATM   19  C   UNK N   1      26.049  23.966  -5.053  0.00  0.00     0.043 C 
BRANCH  18  20
HETATM   20  C   UNK N   1      25.707  25.895  -6.702  0.00  0.00     0.037 C 
BRANCH  20  21
HETATM   21  C   UNK N   1      24.841  26.422  -5.570  0.00  0.00     0.031 C 
BRANCH  21  22
HETATM   22  C   UNK N   1      25.273  27.815  -5.219  0.00  0.00    -0.024 C 
HETATM   23  C   UNK N   1      25.901  28.149  -4.072  0.00  0.00    -0.087 C 
HETATM   24  C   UNK N   1      26.243  27.110  -3.052  0.00  0.00     0.043 C 
BRANCH  23  25
HETATM   25  C   UNK N   1      26.283  29.578  -3.779  0.00  0.00     0.037 C 
BRANCH  25  26
HETATM   26  C   UNK N   1      27.719  29.928  -4.154  0.00  0.00     0.031 C 
BRANCH  26  27
HETATM   27  C   UNK N   1      27.906  29.843  -5.637  0.00  0.00    -0.024 C 
HETATM   28  C   UNK N   1      28.592  28.854  -6.224  0.00  0.00    -0.091 C 
HETATM   29  C   UNK N   1      29.195  27.736  -5.434  0.00  0.00     0.042 C 
HETATM   30  C   UNK N   1      28.753  28.859  -7.703  0.00  0.00     0.042 C 
ENDBRANCH  26  27
ENDBRANCH  25  26
ENDBRANCH  23  25
ENDBRANCH  21  22
ENDBRANCH  20  21
ENDBRANCH  18  20
ENDBRANCH  16  17
ENDBRANCH   1  16
TORSDOF 16
ENDMDL
MODEL 7
REMARK VINA RESULT:      -4.8     13.846     16.730
REMARK  16 active torsions:
REMARK  status: ('A' for Active; 'I' for Inactive)
REMARK    1  A    between atoms: N_2  and  C_4 
REMARK    2  A    between atoms: C_4  and  C_5 
REMARK    3  A    between atoms: C_5  and  C_6 
REMARK    4  A    between atoms: C_6  and  C_7 
REMARK    5  A    between atoms: C_9  and  C_10 
REMARK    6  A    between atoms: C_10  and  C_11 
REMARK    7  A    between atoms: C_11  and  C_12 
REMARK    8  A    between atoms: C_14  and  C_15 
REMARK    9  A    between atoms: C_15  and  C_16 
REMARK   10  A    between atoms: C_16  and  C_17 
REMARK   11  A    between atoms: C_18  and  C_20 
REMARK   12  A    between atoms: C_20  and  C_21 
REMARK   13  A    between atoms: C_21  and  C_22 
REMARK   14  A    between atoms: C_23  and  C_25 
REMARK   15  A    between atoms: C_25  and  C_26 
REMARK   16  A    between atoms: C_26  and  C_27 
ROOT
HETATM    1  C   UNK N   1      23.677  11.626   7.270  0.00  0.00     0.031 C 
ENDROOT
BRANCH   1   2
HETATM    2  C   UNK N   1      24.299  12.942   6.896  0.00  0.00    -0.024 C 
HETATM    3  C   UNK N   1      24.959  13.734   7.759  0.00  0.00    -0.087 C 
HETATM    4  C   UNK N   1      25.113  13.371   9.204  0.00  0.00     0.043 C 
BRANCH   3   5
HETATM    5  C   UNK N   1      25.514  15.041   7.291  0.00  0.00     0.037 C 
BRANCH   5   6
HETATM    6  C   UNK N   1      26.054  14.933   5.873  0.00  0.00     0.031 C 
BRANCH   6   7
HETATM    7  C   UNK N   1      26.774  16.195   5.502  0.00  0.00    -0.024 C 
HETATM    8  C   UNK N   1      26.867  16.647   4.243  0.00  0.00    -0.087 C 
HETATM    9  C   UNK N   1      26.238  15.917   3.096  0.00  0.00     0.043 C 
BRANCH   8  10
HETATM   10  C   UNK N   1      27.635  17.898   3.981  0.00  0.00     0.035 C 
BRANCH  10  11
HETATM   11  C   UNK N   1      26.700  19.087   3.886  0.00  0.00     0.034 C 
BRANCH  11  12
HETATM   12  C   UNK N   1      26.407  19.606   5.280  0.00  0.00     0.271 C 
BRANCH  12  13
HETATM   13  N   UNK N   1      27.622  20.132   5.882  0.00  0.00     0.080 N 
HETATM   14  C   UNK N   1      27.393  21.541   6.138  0.00  0.00     0.309 C 
HETATM   15  C   UNK N   1      27.782  19.490   7.178  0.00  0.00     0.309 C 
ENDBRANCH  12  13
ENDBRANCH  11  12
ENDBRANCH  10  11
ENDBRANCH   8  10
ENDBRANCH   6   7
ENDBRANCH   5   6
ENDBRANCH   3   5
ENDBRANCH   1   2
BRANCH   1  16
HETATM   16  C   UNK N   1      22.190  11.756   7.584  0.00  0.00     0.031 C 
BRANCH  16  17
HETATM   17  C   UNK N   1      21.705  13.177   7.658  0.00  0.00    -0.024 C 
HETATM   18  C   UNK N   1      21.361  13.807   8.793  0.00  0.00    -0.087 C 
HETATM   19  C   UNK N   1      21.418  13.132  10.124  0.00  0.00     0.043 C 
BRANCH  18  20
HETATM   20  C   UNK N   1      20.781  15.180   8.725  0.00  0.00     0.037 C 
BRANCH  20  21
HETATM   21  C   UNK N   1      20.475  15.617   7.302  0.00  0.00     0.031 C 
BRANCH  21  22
HETATM   22  C   UNK N   1      21.515  16.597   6.846  0.00  0.00    -0.024 C 
HETATM   23  C   UNK N   1      22.289  16.429   5.755  0.00  0.00    -0.087 C 
HETATM   24  C   UNK N   1      22.138  15.223   4.883  0.00  0.00     0.043 C 
BRANCH  23  25
HETATM   25  C   UNK N   1      23.332  17.449   5.373  0.00  0.00     0.037 C 
BRANCH  25  26
HETATM   26  C   UNK N   1      23.260  17.898   3.918  0.00  0.00     0.031 C 
BRANCH  26  27
HETATM   27  C   UNK N   1      22.417  19.129   3.793  0.00  0.00    -0.024 C 
HETATM   28  C   UNK N   1      21.211  19.125   3.210  0.00  0.00    -0.091 C 
HETATM   29  C   UNK N   1      20.603  17.870   2.667  0.00  0.00     0.042 C 
HETATM   30  C   UNK N   1      20.449  20.399   3.105  0.00  0.00     0.042 C 
ENDBRANCH  26  27
ENDBRANCH  25  26
ENDBRANCH  23  25
ENDBRANCH  21  22
ENDBRANCH  20  21
ENDBRANCH  18  20
ENDBRANCH  16  17
ENDBRANCH   1  16
TORSDOF 16
ENDMDL
MODEL 8
REMARK VINA RESULT:      -4.7      2.286      4.468
REMARK  16 active torsions:
REMARK  status: ('A' for Active; 'I' for Inactive)
REMARK    1  A    between atoms: N_2  and  C_4 
REMARK    2  A    between atoms: C_4  and  C_5 
REMARK    3  A    between atoms: C_5  and  C_6 
REMARK    4  A    between atoms: C_6  and  C_7 
REMARK    5  A    between atoms: C_9  and  C_10 
REMARK    6  A    between atoms: C_10  and  C_11 
REMARK    7  A    between atoms: C_11  and  C_12 
REMARK    8  A    between atoms: C_14  and  C_15 
REMARK    9  A    between atoms: C_15  and  C_16 
REMARK   10  A    between atoms: C_16  and  C_17 
REMARK   11  A    between atoms: C_18  and  C_20 
REMARK   12  A    between atoms: C_20  and  C_21 
REMARK   13  A    between atoms: C_21  and  C_22 
REMARK   14  A    between atoms: C_23  and  C_25 
REMARK   15  A    between atoms: C_25  and  C_26 
REMARK   16  A    between atoms: C_26  and  C_27 
ROOT
HETATM    1  C   UNK N   1      25.409  26.926  -4.795  0.00  0.00     0.031 C 
ENDROOT
BRANCH   1   2
HETATM    2  C   UNK N   1      26.518  26.173  -4.114  0.00  0.00    -0.024 C 
HETATM    3  C   UNK N   1      26.790  24.875  -4.333  0.00  0.00    -0.087 C 
HETATM    4  C   UNK N   1      25.978  24.046  -5.280  0.00  0.00     0.043 C 
BRANCH   3   5
HETATM    5  C   UNK N   1      27.897  24.213  -3.578  0.00  0.00     0.037 C 
BRANCH   5   6
HETATM    6  C   UNK N   1      28.991  23.727  -4.518  0.00  0.00     0.031 C 
BRANCH   6   7
HETATM    7  C   UNK N   1      29.828  22.687  -3.835  0.00  0.00    -0.024 C 
HETATM    8  C   UNK N   1      31.167  22.725  -3.802  0.00  0.00    -0.087 C 
HETATM    9  C   UNK N   1      31.940  23.834  -4.447  0.00  0.00     0.043 C 
BRANCH   8  10
HETATM   10  C   UNK N   1      31.904  21.620  -3.123  0.00  0.00     0.035 C 
BRANCH  10  11
HETATM   11  C   UNK N   1      31.859  20.357  -3.960  0.00  0.00     0.034 C 
BRANCH  11  12
HETATM   12  C   UNK N   1      33.115  20.271  -4.805  0.00  0.00     0.271 C 
BRANCH  12  13
HETATM   13  N   UNK N   1      34.219  19.765  -4.006  0.00  0.00     0.080 N 
HETATM   14  C   UNK N   1      34.404  18.373  -4.370  0.00  0.00     0.309 C 
HETATM   15  C   UNK N   1      35.421  20.471  -4.421  0.00  0.00     0.309 C 
ENDBRANCH  12  13
ENDBRANCH  11  12
ENDBRANCH  10  11
ENDBRANCH   8  10
ENDBRANCH   6   7
ENDBRANCH   5   6
ENDBRANCH   3   5
ENDBRANCH   1   2
BRANCH   1  16
HETATM   16  C   UNK N   1      25.506  28.431  -4.568  0.00  0.00     0.031 C 
BRANCH  16  17
HETATM   17  C   UNK N   1      26.288  28.814  -3.343  0.00  0.00    -0.024 C 
HETATM   18  C   UNK N   1      27.002  29.945  -3.216  0.00  0.00    -0.087 C 
HETATM   19  C   UNK N   1      27.097  30.950  -4.316  0.00  0.00     0.043 C 
BRANCH  18  20
HETATM   20  C   UNK N   1      27.832  30.157  -1.995  0.00  0.00     0.037 C 
BRANCH  20  21
HETATM   21  C   UNK N   1      29.309  29.900  -2.239  0.00  0.00     0.031 C 
BRANCH  21  22
HETATM   22  C   UNK N   1      29.480  28.576  -2.923  0.00  0.00    -0.024 C 
HETATM   23  C   UNK N   1      30.133  28.404  -4.091  0.00  0.00    -0.087 C 
HETATM   24  C   UNK N   1      30.772  29.560  -4.792  0.00  0.00     0.043 C 
BRANCH  23  25
HETATM   25  C   UNK N   1      30.243  27.043  -4.730  0.00  0.00     0.037 C 
BRANCH  25  26
HETATM   26  C   UNK N   1      30.376  27.076  -6.248  0.00  0.00     0.031 C 
BRANCH  26  27
HETATM   27  C   UNK N   1      29.157  26.491  -6.891  0.00  0.00    -0.024 C 
HETATM   28  C   UNK N   1      28.133  27.242  -7.317  0.00  0.00    -0.091 C 
HETATM   29  C   UNK N   1      28.151  28.733  -7.209  0.00  0.00     0.042 C 
HETATM   30  C   UNK N   1      26.947  26.577  -7.922  0.00  0.00     0.042 C 
ENDBRANCH  26  27
ENDBRANCH  25  26
ENDBRANCH  23  25
ENDBRANCH  21  22
ENDBRANCH  20  21
ENDBRANCH  18  20
ENDBRANCH  16  17
ENDBRANCH   1  16
TORSDOF 16
ENDMDL
MODEL 9
REMARK VINA RESULT:      -4.7      2.324      7.303
REMARK  16 active torsions:
REMARK  status: ('A' for Active; 'I' for Inactive)
REMARK    1  A    between atoms: N_2  and  C_4 
REMARK    2  A    between atoms: C_4  and  C_5 
REMARK    3  A    between atoms: C_5  and  C_6 
REMARK    4  A    between atoms: C_6  and  C_7 
REMARK    5  A    between atoms: C_9  and  C_10 
REMARK    6  A    between atoms: C_10  and  C_11 
REMARK    7  A    between atoms: C_11  and  C_12 
REMARK    8  A    between atoms: C_14  and  C_15 
REMARK    9  A    between atoms: C_15  and  C_16 
REMARK   10  A    between atoms: C_16  and  C_17 
REMARK   11  A    between atoms: C_18  and  C_20 
REMARK   12  A    between atoms: C_20  and  C_21 
REMARK   13  A    between atoms: C_21  and  C_22 
REMARK   14  A    between atoms: C_23  and  C_25 
REMARK   15  A    between atoms: C_25  and  C_26 
REMARK   16  A    between atoms: C_26  and  C_27 
ROOT
HETATM    1  C   UNK N   1      28.244  21.808  -8.040  0.00  0.00     0.031 C 
ENDROOT
BRANCH   1   2
HETATM    2  C   UNK N   1      28.048  22.687  -6.836  0.00  0.00    -0.024 C 
HETATM    3  C   UNK N   1      26.844  23.018  -6.336  0.00  0.00    -0.087 C 
HETATM    4  C   UNK N   1      25.570  22.545  -6.965  0.00  0.00     0.043 C 
BRANCH   3   5
HETATM    5  C   UNK N   1      26.758  23.927  -5.152  0.00  0.00     0.037 C 
BRANCH   5   6
HETATM    6  C   UNK N   1      25.608  24.912  -5.296  0.00  0.00     0.031 C 
BRANCH   6   7
HETATM    7  C   UNK N   1      26.116  26.218  -5.832  0.00  0.00    -0.024 C 
HETATM    8  C   UNK N   1      26.469  27.247  -5.050  0.00  0.00    -0.087 C 
HETATM    9  C   UNK N   1      26.390  27.165  -3.556  0.00  0.00     0.043 C 
BRANCH   8  10
HETATM   10  C   UNK N   1      26.930  28.514  -5.689  0.00  0.00     0.035 C 
BRANCH  10  11
HETATM   11  C   UNK N   1      26.994  29.632  -4.668  0.00  0.00     0.034 C 
BRANCH  11  12
HETATM   12  C   UNK N   1      28.183  30.522  -4.974  0.00  0.00     0.271 C 
BRANCH  12  13
HETATM   13  N   UNK N   1      29.143  29.806  -5.798  0.00  0.00     0.080 N 
HETATM   14  C   UNK N   1      29.494  30.682  -6.900  0.00  0.00     0.309 C 
HETATM   15  C   UNK N   1      30.349  29.622  -5.007  0.00  0.00     0.309 C 
ENDBRANCH  12  13
ENDBRANCH  11  12
ENDBRANCH  10  11
ENDBRANCH   8  10
ENDBRANCH   6   7
ENDBRANCH   5   6
ENDBRANCH   3   5
ENDBRANCH   1   2
BRANCH   1  16
HETATM   16  C   UNK N   1      29.028  20.541  -7.709  0.00  0.00     0.031 C 
BRANCH  16  17
HETATM   17  C   UNK N   1      29.722  20.584  -6.377  0.00  0.00    -0.024 C 
HETATM   18  C   UNK N   1      31.047  20.733  -6.212  0.00  0.00    -0.087 C 
HETATM   19  C   UNK N   1      31.981  20.863  -7.369  0.00  0.00     0.043 C 
BRANCH  18  20
HETATM   20  C   UNK N   1      31.632  20.641  -4.843  0.00  0.00     0.037 C 
BRANCH  20  21
HETATM   21  C   UNK N   1      30.728  21.239  -3.778  0.00  0.00     0.031 C 
BRANCH  21  22
HETATM   22  C   UNK N   1      30.700  22.731  -3.928  0.00  0.00    -0.024 C 
HETATM   23  C   UNK N   1      29.907  23.551  -3.207  0.00  0.00    -0.087 C 
HETATM   24  C   UNK N   1      28.990  23.009  -2.158  0.00  0.00     0.043 C 
BRANCH  23  25
HETATM   25  C   UNK N   1      29.917  25.043  -3.432  0.00  0.00     0.037 C 
BRANCH  25  26
HETATM   26  C   UNK N   1      30.761  25.488  -4.620  0.00  0.00     0.031 C 
BRANCH  26  27
HETATM   27  C   UNK N   1      29.882  25.974  -5.731  0.00  0.00    -0.024 C 
HETATM   28  C   UNK N   1      30.017  25.557  -6.996  0.00  0.00    -0.091 C 
HETATM   29  C   UNK N   1      31.043  24.541  -7.386  0.00  0.00     0.042 C 
HETATM   30  C   UNK N   1      29.117  26.111  -8.044  0.00  0.00     0.042 C 
ENDBRANCH  26  27
ENDBRANCH  25  26
ENDBRANCH  23  25
ENDBRANCH  21  22
ENDBRANCH  20  21
ENDBRANCH  18  20
ENDBRANCH  16  17
ENDBRANCH   1  16
TORSDOF 16
ENDMDL
