MODEL 1
REMARK VINA RESULT:      -4.3      0.000      0.000
REMARK  0 active torsions:
REMARK  status: ('A' for Active; 'I' for Inactive)
ROOT
HETATM    1  C   UNK N   1      26.341  26.934  -3.157  0.00  0.00     0.153 C 
HETATM    2  N   UNK N   1      26.173  26.016  -4.261  0.00  0.00    -0.348 N 
HETATM    3  C   UNK N   1      26.213  24.688  -4.128  0.00  0.00     0.220 A 
HETATM    4  O   UNK N   1      26.393  24.135  -3.054  0.00  0.00    -0.273 OA
HETATM    5  C   UNK N   1      25.996  23.957  -5.392  0.00  0.00     0.105 A 
HETATM    6  C   UNK N   1      25.866  25.109  -6.408  0.00  0.00     0.040 A 
HETATM    7  C   UNK N   1      25.913  26.429  -5.612  0.00  0.00     0.028 A 
HETATM    8  C   UNK N   1      24.575  27.140  -5.705  0.00  0.00     0.038 C 
HETATM    9  C   UNK N   1      27.022  27.322  -6.142  0.00  0.00     0.038 C 
ENDROOT
TORSDOF 0
ENDMDL
MODEL 2
REMARK VINA RESULT:      -4.1     18.743     20.065
REMARK  0 active torsions:
REMARK  status: ('A' for Active; 'I' for Inactive)
ROOT
HETATM    1  C   UNK N   1      22.185  13.934   7.958  0.00  0.00     0.153 C 
HETATM    2  N   UNK N   1      22.205  13.143   9.168  0.00  0.00    -0.348 N 
HETATM    3  C   UNK N   1      21.189  13.094  10.033  0.00  0.00     0.220 A 
HETATM    4  O   UNK N   1      20.150  13.715   9.872  0.00  0.00    -0.273 OA
HETATM    5  C   UNK N   1      21.432  12.203  11.185  0.00  0.00     0.105 A 
HETATM    6  C   UNK N   1      22.871  11.720  10.916  0.00  0.00     0.040 A 
HETATM    7  C   UNK N   1      23.302  12.301   9.555  0.00  0.00     0.028 A 
HETATM    8  C   UNK N   1      23.495  11.180   8.550  0.00  0.00     0.038 C 
HETATM    9  C   UNK N   1      24.586  13.098   9.707  0.00  0.00     0.038 C 
ENDROOT
TORSDOF 0
ENDMDL
MODEL 3
REMARK VINA RESULT:      -4.1     16.917     18.218
REMARK  0 active torsions:
REMARK  status: ('A' for Active; 'I' for Inactive)
ROOT
HETATM    1  C   UNK N   1      35.272  16.877  10.246  0.00  0.00     0.153 C 
HETATM    2  N   UNK N   1      34.599  16.956   8.970  0.00  0.00    -0.348 N 
HETATM    3  C   UNK N   1      34.600  18.048   8.202  0.00  0.00     0.220 A 
HETATM    4  O   UNK N   1      35.177  19.078   8.515  0.00  0.00    -0.273 OA
HETATM    5  C   UNK N   1      33.860  17.885   6.935  0.00  0.00     0.105 A 
HETATM    6  C   UNK N   1      33.314  16.450   7.067  0.00  0.00     0.040 A 
HETATM    7  C   UNK N   1      33.884  15.862   8.374  0.00  0.00     0.028 A 
HETATM    8  C   UNK N   1      34.828  14.716   8.059  0.00  0.00     0.038 C 
HETATM    9  C   UNK N   1      32.754  15.384   9.270  0.00  0.00     0.038 C 
ENDROOT
TORSDOF 0
ENDMDL
MODEL 4
REMARK VINA RESULT:      -3.9     25.166     26.486
REMARK  0 active torsions:
REMARK  status: ('A' for Active; 'I' for Inactive)
ROOT
HETATM    1  C   UNK N   1      36.540  13.386  15.390  0.00  0.00     0.153 C 
HETATM    2  N   UNK N   1      35.600  12.293  15.291  0.00  0.00    -0.348 N 
HETATM    3  C   UNK N   1      34.686  12.192  14.324  0.00  0.00     0.220 A 
HETATM    4  O   UNK N   1      34.568  13.020  13.434  0.00  0.00    -0.273 OA
HETATM    5  C   UNK N   1      33.850  10.978  14.420  0.00  0.00     0.105 A 
HETATM    6  C   UNK N   1      34.380  10.328  15.712  0.00  0.00     0.040 A 
HETATM    7  C   UNK N   1      35.568  11.182  16.201  0.00  0.00     0.028 A 
HETATM    8  C   UNK N   1      36.854  10.381  16.112  0.00  0.00     0.038 C 
HETATM    9  C   UNK N   1      35.331  11.641  17.629  0.00  0.00     0.038 C 
ENDROOT
TORSDOF 0
ENDMDL
MODEL 5
REMARK VINA RESULT:      -3.9     14.702     15.726
REMARK  0 active torsions:
REMARK  status: ('A' for Active; 'I' for Inactive)
ROOT
HETATM    1  C   UNK N   1      32.640  16.768   8.399  0.00  0.00     0.153 C 
HETATM    2  N   UNK N   1      32.486  16.974   6.976  0.00  0.00    -0.348 N 
HETATM    3  C   UNK N   1      33.427  17.521   6.204  0.00  0.00     0.220 A 
HETATM    4  O   UNK N   1      34.506  17.896   6.638  0.00  0.00    -0.273 OA
HETATM    5  C   UNK N   1      33.050  17.611   4.780  0.00  0.00     0.105 A 
HETATM    6  C   UNK N   1      31.614  17.052   4.794  0.00  0.00     0.040 A 
HETATM    7  C   UNK N   1      31.321  16.582   6.233  0.00  0.00     0.028 A 
HETATM    8  C   UNK N   1      31.150  15.074   6.263  0.00  0.00     0.038 C 
HETATM    9  C   UNK N   1      30.070  17.264   6.763  0.00  0.00     0.038 C 
ENDROOT
TORSDOF 0
ENDMDL
MODEL 6
REMARK VINA RESULT:      -3.9     24.320     25.656
REMARK  0 active torsions:
REMARK  status: ('A' for Active; 'I' for Inactive)
ROOT
HETATM    1  C   UNK N   1      33.976  11.396  14.462  0.00  0.00     0.153 C 
HETATM    2  N   UNK N   1      35.037  12.369  14.595  0.00  0.00    -0.348 N 
HETATM    3  C   UNK N   1      35.296  13.306  13.680  0.00  0.00     0.220 A 
HETATM    4  O   UNK N   1      34.653  13.423  12.649  0.00  0.00    -0.273 OA
HETATM    5  C   UNK N   1      36.416  14.198  14.044  0.00  0.00     0.105 A 
HETATM    6  C   UNK N   1      36.881  13.596  15.384  0.00  0.00     0.040 A 
HETATM    7  C   UNK N   1      35.906  12.454  15.736  0.00  0.00     0.028 A 
HETATM    8  C   UNK N   1      35.116  12.812  16.982  0.00  0.00     0.038 C 
HETATM    9  C   UNK N   1      36.670  11.159  15.950  0.00  0.00     0.038 C 
ENDROOT
TORSDOF 0
ENDMDL
MODEL 7
REMARK VINA RESULT:      -3.8     14.666     15.978
REMARK  0 active torsions:
REMARK  status: ('A' for Active; 'I' for Inactive)
ROOT
HETATM    1  C   UNK N   1      33.339  16.632   4.795  0.00  0.00     0.153 C 
HETATM    2  N   UNK N   1      32.760  16.968   6.076  0.00  0.00    -0.348 N 
HETATM    3  C   UNK N   1      33.392  17.691   7.004  0.00  0.00     0.220 A 
HETATM    4  O   UNK N   1      34.519  18.132   6.846  0.00  0.00    -0.273 OA
HETATM    5  C   UNK N   1      32.592  17.921   8.224  0.00  0.00     0.105 A 
HETATM    6  C   UNK N   1      31.305  17.131   7.915  0.00  0.00     0.040 A 
HETATM    7  C   UNK N   1      31.433  16.592   6.477  0.00  0.00     0.028 A 
HETATM    8  C   UNK N   1      30.398  17.249   5.582  0.00  0.00     0.038 C 
HETATM    9  C   UNK N   1      31.257  15.083   6.465  0.00  0.00     0.038 C 
ENDROOT
TORSDOF 0
ENDMDL
MODEL 8
REMARK VINA RESULT:      -3.7      1.474      2.679
REMARK  0 active torsions:
REMARK  status: ('A' for Active; 'I' for Inactive)
ROOT
HETATM    1  C   UNK N   1      27.126  24.897  -3.325  0.00  0.00     0.153 C 
HETATM    2  N   UNK N   1      26.512  25.924  -4.136  0.00  0.00    -0.348 N 
HETATM    3  C   UNK N   1      26.001  27.051  -3.634  0.00  0.00     0.220 A 
HETATM    4  O   UNK N   1      26.011  27.310  -2.441  0.00  0.00    -0.273 OA
HETATM    5  C   UNK N   1      25.444  27.958  -4.657  0.00  0.00     0.105 A 
HETATM    6  C   UNK N   1      25.649  27.144  -5.950  0.00  0.00     0.040 A 
HETATM    7  C   UNK N   1      26.415  25.862  -5.567  0.00  0.00     0.028 A 
HETATM    8  C   UNK N   1      27.795  25.874  -6.197  0.00  0.00     0.038 C 
HETATM    9  C   UNK N   1      25.640  24.635  -6.017  0.00  0.00     0.038 C 
ENDROOT
TORSDOF 0
ENDMDL
MODEL 9
REMARK VINA RESULT:      -3.7     17.757     18.535
REMARK  0 active torsions:
REMARK  status: ('A' for Active; 'I' for Inactive)
ROOT
HETATM    1  C   UNK N   1      41.719  23.589   1.516  0.00  0.00     0.153 C 
HETATM    2  N   UNK N   1      42.249  22.527   2.340  0.00  0.00    -0.348 N 
HETATM    3  C   UNK N   1      43.164  22.720   3.293  0.00  0.00     0.220 A 
HETATM    4  O   UNK N   1      43.632  23.818   3.550  0.00  0.00    -0.273 OA
HETATM    5  C   UNK N   1      43.538  21.489   4.016  0.00  0.00     0.105 A 
HETATM    6  C   UNK N   1      42.704  20.421   3.281  0.00  0.00     0.040 A 
HETATM    7  C   UNK N   1      41.826  21.157   2.249  0.00  0.00     0.028 A 
HETATM    8  C   UNK N   1      40.362  21.024   2.624  0.00  0.00     0.038 C 
HETATM    9  C   UNK N   1      42.067  20.594   0.859  0.00  0.00     0.038 C 
ENDROOT
TORSDOF 0
ENDMDL
