MODEL 1
REMARK VINA RESULT:      -5.4      0.000      0.000
REMARK  4 active torsions:
REMARK  status: ('A' for Active; 'I' for Inactive)
REMARK    1  A    between atoms: C_4  and  O_8 
REMARK    2  A    between atoms: C_5  and  O_9 
REMARK    3  A    between atoms: C_6  and  O_11 
REMARK    4  A    between atoms: C_7  and  O_10 
ROOT
HETATM    1  C   UNK N   1      33.326  17.161   4.954  0.00  0.00     0.042 C 
HETATM    2  C   UNK N   1      33.933  16.976   6.335  0.00  0.00     0.152 C 
HETATM    3  C   UNK N   1      32.924  16.259   7.248  0.00  0.00     0.178 C 
HETATM    4  C   UNK N   1      33.527  16.017   8.646  0.00  0.00     0.183 C 
HETATM    5  C   UNK N   1      34.667  17.014   8.951  0.00  0.00     0.207 C 
HETATM    6  C   UNK N   1      34.387  18.370   8.263  0.00  0.00     0.288 C 
HETATM    7  O   UNK N   1      34.266  18.269   6.838  0.00  0.00    -0.351 OA
ENDROOT
BRANCH   3   8
HETATM    8  O   UNK N   1      32.486  15.050   6.700  0.00  0.00    -0.390 OA
HETATM    9  H   UNK N   1      33.018  14.239   6.730  0.00  0.00     0.210 HD
ENDBRANCH   3   8
BRANCH   4  10
HETATM   10  O   UNK N   1      32.498  16.111   9.589  0.00  0.00    -0.390 OA
HETATM   11  H   UNK N   1      31.656  15.787   9.945  0.00  0.00     0.210 HD
ENDBRANCH   4  10
BRANCH   5  12
HETATM   12  O   UNK N   1      34.814  17.141  10.354  0.00  0.00    -0.383 OA
HETATM   13  C   UNK N   1      35.833  16.280  10.793  0.00  0.00     0.202 C 
ENDBRANCH   5  12
BRANCH   6  14
HETATM   14  O   UNK N   1      35.432  19.252   8.538  0.00  0.00    -0.369 OA
HETATM   15  H   UNK N   1      35.748  19.898   7.887  0.00  0.00     0.212 HD
ENDBRANCH   6  14
TORSDOF 4
ENDMDL
MODEL 2
REMARK VINA RESULT:      -4.6      3.129      5.914
REMARK  4 active torsions:
REMARK  status: ('A' for Active; 'I' for Inactive)
REMARK    1  A    between atoms: C_4  and  O_8 
REMARK    2  A    between atoms: C_5  and  O_9 
REMARK    3  A    between atoms: C_6  and  O_11 
REMARK    4  A    between atoms: C_7  and  O_10 
ROOT
HETATM    1  C   UNK N   1      35.723  12.284  13.491  0.00  0.00     0.042 C 
HETATM    2  C   UNK N   1      35.569  12.998  12.158  0.00  0.00     0.152 C 
HETATM    3  C   UNK N   1      36.828  13.833  11.873  0.00  0.00     0.178 C 
HETATM    4  C   UNK N   1      36.719  14.536  10.505  0.00  0.00     0.183 C 
HETATM    5  C   UNK N   1      35.246  14.710  10.073  0.00  0.00     0.207 C 
HETATM    6  C   UNK N   1      34.348  14.912  11.315  0.00  0.00     0.288 C 
HETATM    7  O   UNK N   1      34.404  13.819  12.240  0.00  0.00    -0.351 OA
ENDROOT
BRANCH   3   8
HETATM    8  O   UNK N   1      37.993  13.062  11.923  0.00  0.00    -0.390 OA
HETATM    9  H   UNK N   1      38.264  12.477  11.199  0.00  0.00     0.210 HD
ENDBRANCH   3   8
BRANCH   4  10
HETATM   10  O   UNK N   1      37.376  15.768  10.592  0.00  0.00    -0.390 OA
HETATM   11  H   UNK N   1      37.929  16.453  10.184  0.00  0.00     0.210 HD
ENDBRANCH   4  10
BRANCH   5  12
HETATM   12  O   UNK N   1      35.152  15.786   9.157  0.00  0.00    -0.383 OA
HETATM   13  C   UNK N   1      34.838  15.285   7.884  0.00  0.00     0.202 C 
ENDBRANCH   5  12
BRANCH   6  14
HETATM   14  O   UNK N   1      33.021  15.054  10.907  0.00  0.00    -0.369 OA
HETATM   15  H   UNK N   1      32.752  14.947   9.981  0.00  0.00     0.212 HD
ENDBRANCH   6  14
TORSDOF 4
ENDMDL
MODEL 3
REMARK VINA RESULT:      -4.5     14.471     15.099
REMARK  4 active torsions:
REMARK  status: ('A' for Active; 'I' for Inactive)
REMARK    1  A    between atoms: C_4  and  O_8 
REMARK    2  A    between atoms: C_5  and  O_9 
REMARK    3  A    between atoms: C_6  and  O_11 
REMARK    4  A    between atoms: C_7  and  O_10 
ROOT
HETATM    1  C   UNK N   1      21.349  14.024   0.879  0.00  0.00     0.042 C 
HETATM    2  C   UNK N   1      21.206  15.418   1.468  0.00  0.00     0.152 C 
HETATM    3  C   UNK N   1      20.286  15.365   2.699  0.00  0.00     0.178 C 
HETATM    4  C   UNK N   1      20.156  16.759   3.344  0.00  0.00     0.183 C 
HETATM    5  C   UNK N   1      20.455  17.884   2.329  0.00  0.00     0.207 C 
HETATM    6  C   UNK N   1      20.015  17.452   0.911  0.00  0.00     0.288 C 
HETATM    7  O   UNK N   1      20.669  16.263   0.450  0.00  0.00    -0.351 OA
ENDROOT
BRANCH   3   8
HETATM    8  O   UNK N   1      20.729  14.439   3.647  0.00  0.00    -0.390 OA
HETATM    9  H   UNK N   1      20.173  14.135   4.381  0.00  0.00     0.210 HD
ENDBRANCH   3   8
BRANCH   4  10
HETATM   10  O   UNK N   1      18.866  16.878   3.874  0.00  0.00    -0.390 OA
HETATM   11  H   UNK N   1      18.031  16.466   4.144  0.00  0.00     0.210 HD
ENDBRANCH   4  10
BRANCH   5  12
HETATM   12  O   UNK N   1      19.821  19.077   2.753  0.00  0.00    -0.383 OA
HETATM   13  C   UNK N   1      20.778  19.935   3.318  0.00  0.00     0.202 C 
ENDBRANCH   5  12
BRANCH   6  14
HETATM   14  O   UNK N   1      20.305  18.474   0.007  0.00  0.00    -0.369 OA
HETATM   15  H   UNK N   1      20.290  18.334  -0.953  0.00  0.00     0.212 HD
ENDBRANCH   6  14
TORSDOF 4
ENDMDL
MODEL 4
REMARK VINA RESULT:      -4.4      1.584      3.831
REMARK  4 active torsions:
REMARK  status: ('A' for Active; 'I' for Inactive)
REMARK    1  A    between atoms: C_4  and  O_8 
REMARK    2  A    between atoms: C_5  and  O_9 
REMARK    3  A    between atoms: C_6  and  O_11 
REMARK    4  A    between atoms: C_7  and  O_10 
ROOT
HETATM    1  C   UNK N   1      35.539  16.458  10.771  0.00  0.00     0.042 C 
HETATM    2  C   UNK N   1      34.398  16.617   9.780  0.00  0.00     0.152 C 
HETATM    3  C   UNK N   1      33.589  15.311   9.713  0.00  0.00     0.178 C 
HETATM    4  C   UNK N   1      32.397  15.454   8.746  0.00  0.00     0.183 C 
HETATM    5  C   UNK N   1      32.643  16.569   7.706  0.00  0.00     0.207 C 
HETATM    6  C   UNK N   1      34.150  16.662   7.371  0.00  0.00     0.288 C 
HETATM    7  O   UNK N   1      34.968  16.944   8.513  0.00  0.00    -0.351 OA
ENDROOT
BRANCH   3   8
HETATM    8  O   UNK N   1      33.138  14.907  10.973  0.00  0.00    -0.390 OA
HETATM    9  H   UNK N   1      33.636  15.079  11.787  0.00  0.00     0.210 HD
ENDBRANCH   3   8
BRANCH   4  10
HETATM   10  O   UNK N   1      32.181  14.217   8.130  0.00  0.00    -0.390 OA
HETATM   11  H   UNK N   1      32.332  13.615   7.384  0.00  0.00     0.210 HD
ENDBRANCH   4  10
BRANCH   5  12
HETATM   12  O   UNK N   1      31.848  16.322   6.560  0.00  0.00    -0.383 OA
HETATM   13  C   UNK N   1      30.661  17.066   6.649  0.00  0.00     0.202 C 
ENDBRANCH   5  12
BRANCH   6  14
HETATM   14  O   UNK N   1      34.353  17.682   6.441  0.00  0.00    -0.369 OA
HETATM   15  H   UNK N   1      34.873  17.548   5.633  0.00  0.00     0.212 HD
ENDBRANCH   6  14
TORSDOF 4
ENDMDL
MODEL 5
REMARK VINA RESULT:      -4.4     11.004     12.594
REMARK  4 active torsions:
REMARK  status: ('A' for Active; 'I' for Inactive)
REMARK    1  A    between atoms: C_4  and  O_8 
REMARK    2  A    between atoms: C_5  and  O_9 
REMARK    3  A    between atoms: C_6  and  O_11 
REMARK    4  A    between atoms: C_7  and  O_10 
ROOT
HETATM    1  C   UNK N   1      45.156  19.534   3.401  0.00  0.00     0.042 C 
HETATM    2  C   UNK N   1      44.445  20.736   2.801  0.00  0.00     0.152 C 
HETATM    3  C   UNK N   1      44.567  21.935   3.755  0.00  0.00     0.178 C 
HETATM    4  C   UNK N   1      43.891  23.184   3.154  0.00  0.00     0.183 C 
HETATM    5  C   UNK N   1      42.816  22.800   2.113  0.00  0.00     0.207 C 
HETATM    6  C   UNK N   1      42.152  21.459   2.503  0.00  0.00     0.288 C 
HETATM    7  O   UNK N   1      43.081  20.371   2.593  0.00  0.00    -0.351 OA
ENDROOT
BRANCH   3   8
HETATM    8  O   UNK N   1      45.897  22.220   4.075  0.00  0.00    -0.390 OA
HETATM    9  H   UNK N   1      46.631  22.040   3.467  0.00  0.00     0.210 HD
ENDBRANCH   3   8
BRANCH   4  10
HETATM   10  O   UNK N   1      43.344  23.933   4.201  0.00  0.00    -0.390 OA
HETATM   11  H   UNK N   1      42.698  24.585   4.516  0.00  0.00     0.210 HD
ENDBRANCH   4  10
BRANCH   5  12
HETATM   12  O   UNK N   1      41.878  23.855   1.998  0.00  0.00    -0.383 OA
HETATM   13  C   UNK N   1      41.844  24.303   0.668  0.00  0.00     0.202 C 
ENDBRANCH   5  12
BRANCH   6  14
HETATM   14  O   UNK N   1      41.195  21.122   1.545  0.00  0.00    -0.369 OA
HETATM   15  H   UNK N   1      40.542  21.762   1.220  0.00  0.00     0.212 HD
ENDBRANCH   6  14
TORSDOF 4
ENDMDL
MODEL 6
REMARK VINA RESULT:      -4.3      1.608      3.726
REMARK  4 active torsions:
REMARK  status: ('A' for Active; 'I' for Inactive)
REMARK    1  A    between atoms: C_4  and  O_8 
REMARK    2  A    between atoms: C_5  and  O_9 
REMARK    3  A    between atoms: C_6  and  O_11 
REMARK    4  A    between atoms: C_7  and  O_10 
ROOT
HETATM    1  C   UNK N   1      34.490  15.415  10.965  0.00  0.00     0.042 C 
HETATM    2  C   UNK N   1      34.146  16.012   9.611  0.00  0.00     0.152 C 
HETATM    3  C   UNK N   1      34.795  15.173   8.498  0.00  0.00     0.178 C 
HETATM    4  C   UNK N   1      34.428  15.730   7.108  0.00  0.00     0.183 C 
HETATM    5  C   UNK N   1      34.042  17.224   7.181  0.00  0.00     0.207 C 
HETATM    6  C   UNK N   1      34.842  17.927   8.301  0.00  0.00     0.288 C 
HETATM    7  O   UNK N   1      34.624  17.357   9.598  0.00  0.00    -0.351 OA
ENDROOT
BRANCH   3   8
HETATM    8  O   UNK N   1      34.440  13.824   8.582  0.00  0.00    -0.390 OA
HETATM    9  H   UNK N   1      35.019  13.154   8.978  0.00  0.00     0.210 HD
ENDBRANCH   3   8
BRANCH   4  10
HETATM   10  O   UNK N   1      35.515  15.523   6.253  0.00  0.00    -0.390 OA
HETATM   11  H   UNK N   1      36.090  15.839   5.538  0.00  0.00     0.210 HD
ENDBRANCH   4  10
BRANCH   5  12
HETATM   12  O   UNK N   1      34.246  17.821   5.913  0.00  0.00    -0.383 OA
HETATM   13  C   UNK N   1      33.127  17.578   5.100  0.00  0.00     0.202 C 
ENDBRANCH   5  12
BRANCH   6  14
HETATM   14  O   UNK N   1      34.470  19.270   8.360  0.00  0.00    -0.369 OA
HETATM   15  H   UNK N   1      33.824  19.655   7.747  0.00  0.00     0.212 HD
ENDBRANCH   6  14
TORSDOF 4
ENDMDL
MODEL 7
REMARK VINA RESULT:      -4.3      2.655      4.628
REMARK  4 active torsions:
REMARK  status: ('A' for Active; 'I' for Inactive)
REMARK    1  A    between atoms: C_4  and  O_8 
REMARK    2  A    between atoms: C_5  and  O_9 
REMARK    3  A    between atoms: C_6  and  O_11 
REMARK    4  A    between atoms: C_7  and  O_10 
ROOT
HETATM    1  C   UNK N   1      32.680  15.641   8.711  0.00  0.00     0.042 C 
HETATM    2  C   UNK N   1      33.518  15.320   9.938  0.00  0.00     0.152 C 
HETATM    3  C   UNK N   1      34.806  16.161   9.915  0.00  0.00     0.178 C 
HETATM    4  C   UNK N   1      35.658  15.889  11.170  0.00  0.00     0.183 C 
HETATM    5  C   UNK N   1      35.339  14.507  11.783  0.00  0.00     0.207 C 
HETATM    6  C   UNK N   1      34.949  13.508  10.669  0.00  0.00     0.288 C 
HETATM    7  O   UNK N   1      33.806  13.922   9.910  0.00  0.00    -0.351 OA
ENDROOT
BRANCH   3   8
HETATM    8  O   UNK N   1      34.539  17.528   9.805  0.00  0.00    -0.390 OA
HETATM    9  H   UNK N   1      34.287  17.946   8.967  0.00  0.00     0.210 HD
ENDBRANCH   3   8
BRANCH   4  10
HETATM   10  O   UNK N   1      37.007  15.992  10.815  0.00  0.00    -0.390 OA
HETATM   11  H   UNK N   1      37.871  16.422  10.920  0.00  0.00     0.210 HD
ENDBRANCH   4  10
BRANCH   5  12
HETATM   12  O   UNK N   1      36.451  14.065  12.542  0.00  0.00    -0.383 OA
HETATM   13  C   UNK N   1      36.154  14.178  13.909  0.00  0.00     0.202 C 
ENDBRANCH   5  12
BRANCH   6  14
HETATM   14  O   UNK N   1      34.652  12.271  11.243  0.00  0.00    -0.369 OA
HETATM   15  H   UNK N   1      34.285  11.537  10.726  0.00  0.00     0.212 HD
ENDBRANCH   6  14
TORSDOF 4
ENDMDL
MODEL 8
REMARK VINA RESULT:      -4.3      2.301      3.942
REMARK  4 active torsions:
REMARK  status: ('A' for Active; 'I' for Inactive)
REMARK    1  A    between atoms: C_4  and  O_8 
REMARK    2  A    between atoms: C_5  and  O_9 
REMARK    3  A    between atoms: C_6  and  O_11 
REMARK    4  A    between atoms: C_7  and  O_10 
ROOT
HETATM    1  C   UNK N   1      33.203  17.061   4.431  0.00  0.00     0.042 C 
HETATM    2  C   UNK N   1      32.390  17.437   5.659  0.00  0.00     0.152 C 
HETATM    3  C   UNK N   1      33.260  17.287   6.918  0.00  0.00     0.178 C 
HETATM    4  C   UNK N   1      32.475  17.704   8.178  0.00  0.00     0.183 C 
HETATM    5  C   UNK N   1      30.950  17.591   7.958  0.00  0.00     0.207 C 
HETATM    6  C   UNK N   1      30.637  16.427   6.989  0.00  0.00     0.288 C 
HETATM    7  O   UNK N   1      31.252  16.577   5.704  0.00  0.00    -0.351 OA
ENDROOT
BRANCH   3   8
HETATM    8  O   UNK N   1      34.446  18.021   6.828  0.00  0.00    -0.390 OA
HETATM    9  H   UNK N   1      35.311  17.603   6.696  0.00  0.00     0.210 HD
ENDBRANCH   3   8
BRANCH   4  10
HETATM   10  O   UNK N   1      32.900  16.904   9.243  0.00  0.00    -0.390 OA
HETATM   11  H   UNK N   1      33.048  16.023   9.622  0.00  0.00     0.210 HD
ENDBRANCH   4  10
BRANCH   5  12
HETATM   12  O   UNK N   1      30.308  17.440   9.211  0.00  0.00    -0.383 OA
HETATM   13  C   UNK N   1      29.685  18.648   9.562  0.00  0.00     0.202 C 
ENDBRANCH   5  12
BRANCH   6  14
HETATM   14  O   UNK N   1      29.257  16.349   6.793  0.00  0.00    -0.369 OA
HETATM   15  H   UNK N   1      28.857  16.415   5.912  0.00  0.00     0.212 HD
ENDBRANCH   6  14
TORSDOF 4
ENDMDL
MODEL 9
REMARK VINA RESULT:      -4.2     12.685     14.044
REMARK  4 active torsions:
REMARK  status: ('A' for Active; 'I' for Inactive)
REMARK    1  A    between atoms: C_4  and  O_8 
REMARK    2  A    between atoms: C_5  and  O_9 
REMARK    3  A    between atoms: C_6  and  O_11 
REMARK    4  A    between atoms: C_7  and  O_10 
ROOT
HETATM    1  C   UNK N   1      20.656  20.519   2.457  0.00  0.00     0.042 C 
HETATM    2  C   UNK N   1      20.943  19.194   3.144  0.00  0.00     0.152 C 
HETATM    3  C   UNK N   1      19.686  18.310   3.103  0.00  0.00     0.178 C 
HETATM    4  C   UNK N   1      19.959  16.940   3.755  0.00  0.00     0.183 C 
HETATM    5  C   UNK N   1      21.137  17.012   4.752  0.00  0.00     0.207 C 
HETATM    6  C   UNK N   1      21.184  18.405   5.421  0.00  0.00     0.288 C 
HETATM    7  O   UNK N   1      21.338  19.480   4.486  0.00  0.00    -0.351 OA
ENDROOT
BRANCH   3   8
HETATM    8  O   UNK N   1      19.209  18.134   1.802  0.00  0.00    -0.390 OA
HETATM    9  H   UNK N   1      19.529  18.660   1.052  0.00  0.00     0.210 HD
ENDBRANCH   3   8
BRANCH   4  10
HETATM   10  O   UNK N   1      18.785  16.510   4.381  0.00  0.00    -0.390 OA
HETATM   11  H   UNK N   1      17.826  16.588   4.508  0.00  0.00     0.210 HD
ENDBRANCH   4  10
BRANCH   5  12
HETATM   12  O   UNK N   1      21.017  15.962   5.695  0.00  0.00    -0.383 OA
HETATM   13  C   UNK N   1      21.927  14.943   5.374  0.00  0.00     0.202 C 
ENDBRANCH   5  12
BRANCH   6  14
HETATM   14  O   UNK N   1      22.261  18.455   6.307  0.00  0.00    -0.369 OA
HETATM   15  H   UNK N   1      23.139  18.114   6.072  0.00  0.00     0.212 HD
ENDBRANCH   6  14
TORSDOF 4
ENDMDL
