MODEL 1
REMARK VINA RESULT:      -5.3      0.000      0.000
REMARK  9 active torsions:
REMARK  status: ('A' for Active; 'I' for Inactive)
REMARK    1  A    between atoms: C_6  and  C_2 
REMARK    2  A    between atoms: N_11  and  C_3 
REMARK    3  A    between atoms: C_10  and  C_7 
REMARK    4  A    between atoms: N_16  and  C_7 
REMARK    5  A    between atoms: C_9  and  C_8 
REMARK    6  A    between atoms: C_10  and  C_8 
REMARK    7  A    between atoms: C_8  and  N_11 
REMARK    8  A    between atoms: O_19  and  C_9 
REMARK    9  A    between atoms: C_10  and  S_22 
ROOT
HETATM    1  C   UNK N   1      34.158  12.823   9.767  0.00  0.00     0.037 C 
HETATM    2  C   UNK N   1      34.254  14.343   9.660  0.00  0.00     0.122 C 
ENDROOT
BRANCH   2   3
HETATM    3  C   UNK N   1      32.770  14.774   9.508  0.00  0.00     0.178 C 
BRANCH   3   4
HETATM    4  N   UNK N   1      32.510  15.955   8.688  0.00  0.00    -0.286 N 
HETATM    5  C   UNK N   1      31.942  15.959   7.473  0.00  0.00     0.130 A 
HETATM    6  C   UNK N   1      31.818  17.287   7.102  0.00  0.00     0.127 A 
HETATM    7  N   UNK N   1      32.306  18.033   8.117  0.00  0.00    -0.296 N 
HETATM    8  N   UNK N   1      32.710  17.205   9.064  0.00  0.00    -0.241 N 
ATOM      9  HN  UNK N   1      32.355  19.052   8.146  1.00  0.00     0.187 HD
ATOM     10  HN  UNK N   1      33.117  17.490   9.955  1.00  0.00     0.208 HD
ENDBRANCH   3   4
ENDBRANCH   2   3
BRANCH   2  11
HETATM   11  C   UNK N   1      34.811  14.930  11.016  0.00  0.00     0.205 C 
BRANCH  11  12
HETATM   12  C   UNK N   1      35.660  16.174  10.862  0.00  0.00     0.165 C 
HETATM   13  O   UNK N   1      35.160  17.274  10.713  0.00  0.00    -0.648 OA
BRANCH  12  14
HETATM   14  O   UNK N   1      37.002  16.057  10.843  0.00  0.00    -0.775 OA
HETATM   15  H   UNK N   1      37.464  16.097  10.028  0.00  0.00     0.167 HD
ENDBRANCH  12  14
ENDBRANCH  11  12
BRANCH  11  16
HETATM   16  N   UNK N   1      35.628  14.008  11.791  0.00  0.00    -0.383 N 
HETATM   17  H   UNK N   1      36.240  13.429  11.283  0.00  0.00     0.159 HD
BRANCH  16  18
HETATM   18  C   UNK N   1      35.636  13.855  13.203  0.00  0.00     0.087 C 
HETATM   19  C   UNK N   1      36.633  14.400  13.912  0.00  0.00     0.058 C 
BRANCH  19  20
HETATM   20  C   UNK N   1      36.733  14.258  15.378  0.00  0.00     0.260 C 
HETATM   21  O   UNK N   1      37.524  14.922  16.030  0.00  0.00    -0.302 OA
ENDBRANCH  19  20
ENDBRANCH  16  18
ENDBRANCH  11  16
ENDBRANCH   2  11
BRANCH   2  22
HETATM   22  S   UNK N   1      35.302  14.824   8.194  0.00  0.00     0.264 S 
HETATM   23  O   UNK N   1      36.516  13.979   8.612  0.00  0.00    -0.211 OA
HETATM   24  O   UNK N   1      34.771  13.706   7.279  0.00  0.00    -0.211 OA
ENDBRANCH   2  22
TORSDOF 9
ENDMDL
MODEL 2
REMARK VINA RESULT:      -5.0      2.845      5.988
REMARK  9 active torsions:
REMARK  status: ('A' for Active; 'I' for Inactive)
REMARK    1  A    between atoms: C_6  and  C_2 
REMARK    2  A    between atoms: N_11  and  C_3 
REMARK    3  A    between atoms: C_10  and  C_7 
REMARK    4  A    between atoms: N_16  and  C_7 
REMARK    5  A    between atoms: C_9  and  C_8 
REMARK    6  A    between atoms: C_10  and  C_8 
REMARK    7  A    between atoms: C_8  and  N_11 
REMARK    8  A    between atoms: O_19  and  C_9 
REMARK    9  A    between atoms: C_10  and  S_22 
ROOT
HETATM    1  C   UNK N   1      35.280  15.322   8.571  0.00  0.00     0.037 C 
HETATM    2  C   UNK N   1      33.756  15.238   8.615  0.00  0.00     0.122 C 
ENDROOT
BRANCH   2   3
HETATM    3  C   UNK N   1      33.454  15.220  10.138  0.00  0.00     0.178 C 
BRANCH   3   4
HETATM    4  N   UNK N   1      34.409  14.515  10.989  0.00  0.00    -0.286 N 
HETATM    5  C   UNK N   1      35.329  15.088  11.779  0.00  0.00     0.130 A 
HETATM    6  C   UNK N   1      35.958  14.058  12.459  0.00  0.00     0.127 A 
HETATM    7  N   UNK N   1      35.381  12.904  12.059  0.00  0.00    -0.296 N 
HETATM    8  N   UNK N   1      34.445  13.209  11.178  0.00  0.00    -0.241 N 
ATOM      9  HN  UNK N   1      35.624  11.967  12.380  1.00  0.00     0.187 HD
ATOM     10  HN  UNK N   1      33.838  12.534  10.712  1.00  0.00     0.208 HD
ENDBRANCH   3   4
ENDBRANCH   2   3
BRANCH   2  11
HETATM   11  C   UNK N   1      33.139  16.553   7.995  0.00  0.00     0.205 C 
BRANCH  11  12
HETATM   12  C   UNK N   1      34.151  17.635   7.683  0.00  0.00     0.165 C 
HETATM   13  O   UNK N   1      34.542  17.834   6.547  0.00  0.00    -0.648 OA
BRANCH  12  14
HETATM   14  O   UNK N   1      34.666  18.366   8.690  0.00  0.00    -0.775 OA
HETATM   15  H   UNK N   1      34.475  18.138   9.579  0.00  0.00     0.167 HD
ENDBRANCH  12  14
ENDBRANCH  11  12
BRANCH  11  16
HETATM   16  N   UNK N   1      32.133  17.203   8.821  0.00  0.00    -0.383 N 
HETATM   17  H   UNK N   1      32.433  17.542   9.694  0.00  0.00     0.159 HD
BRANCH  16  18
HETATM   18  C   UNK N   1      30.763  17.400   8.500  0.00  0.00     0.087 C 
HETATM   19  C   UNK N   1      29.998  18.121   9.329  0.00  0.00     0.058 C 
BRANCH  19  20
HETATM   20  C   UNK N   1      28.558  18.343   9.086  0.00  0.00     0.260 C 
HETATM   21  O   UNK N   1      27.712  17.584   9.533  0.00  0.00    -0.302 OA
ENDBRANCH  19  20
ENDBRANCH  16  18
ENDBRANCH  11  16
ENDBRANCH   2  11
BRANCH   2  22
HETATM   22  S   UNK N   1      33.168  13.698   7.742  0.00  0.00     0.264 S 
HETATM   23  O   UNK N   1      32.383  13.152   8.946  0.00  0.00    -0.211 OA
HETATM   24  O   UNK N   1      31.907  14.354   7.150  0.00  0.00    -0.211 OA
ENDBRANCH   2  22
TORSDOF 9
ENDMDL
MODEL 3
REMARK VINA RESULT:      -4.9      2.621      5.841
REMARK  9 active torsions:
REMARK  status: ('A' for Active; 'I' for Inactive)
REMARK    1  A    between atoms: C_6  and  C_2 
REMARK    2  A    between atoms: N_11  and  C_3 
REMARK    3  A    between atoms: C_10  and  C_7 
REMARK    4  A    between atoms: N_16  and  C_7 
REMARK    5  A    between atoms: C_9  and  C_8 
REMARK    6  A    between atoms: C_10  and  C_8 
REMARK    7  A    between atoms: C_8  and  N_11 
REMARK    8  A    between atoms: O_19  and  C_9 
REMARK    9  A    between atoms: C_10  and  S_22 
ROOT
HETATM    1  C   UNK N   1      37.085  12.675  11.721  0.00  0.00     0.037 C 
HETATM    2  C   UNK N   1      35.713  12.987  11.125  0.00  0.00     0.122 C 
ENDROOT
BRANCH   2   3
HETATM    3  C   UNK N   1      34.954  13.626  12.321  0.00  0.00     0.178 C 
BRANCH   3   4
HETATM    4  N   UNK N   1      35.749  13.961  13.500  0.00  0.00    -0.286 N 
HETATM    5  C   UNK N   1      35.826  13.237  14.627  0.00  0.00     0.130 A 
HETATM    6  C   UNK N   1      36.746  13.877  15.441  0.00  0.00     0.127 A 
HETATM    7  N   UNK N   1      37.196  14.955  14.765  0.00  0.00    -0.296 N 
HETATM    8  N   UNK N   1      36.585  14.979  13.594  0.00  0.00    -0.241 N 
ATOM      9  HN  UNK N   1      37.885  15.631  15.099  1.00  0.00     0.187 HD
ATOM     10  HN  UNK N   1      36.736  15.680  12.869  1.00  0.00     0.208 HD
ENDBRANCH   3   4
ENDBRANCH   2   3
BRANCH   2  11
HETATM   11  C   UNK N   1      35.869  14.074   9.991  0.00  0.00     0.205 C 
BRANCH  11  12
HETATM   12  C   UNK N   1      37.119  14.922  10.100  0.00  0.00     0.165 C 
HETATM   13  O   UNK N   1      38.144  14.626   9.514  0.00  0.00    -0.648 OA
BRANCH  12  14
HETATM   14  O   UNK N   1      37.112  16.007  10.899  0.00  0.00    -0.775 OA
HETATM   15  H   UNK N   1      37.918  16.432  11.117  0.00  0.00     0.167 HD
ENDBRANCH  12  14
ENDBRANCH  11  12
BRANCH  11  16
HETATM   16  N   UNK N   1      34.773  15.027   9.903  0.00  0.00    -0.383 N 
HETATM   17  H   UNK N   1      34.201  15.114  10.699  0.00  0.00     0.159 HD
BRANCH  16  18
HETATM   18  C   UNK N   1      34.439  15.843   8.789  0.00  0.00     0.087 C 
HETATM   19  C   UNK N   1      34.304  17.164   8.967  0.00  0.00     0.058 C 
BRANCH  19  20
HETATM   20  C   UNK N   1      33.926  18.076   7.870  0.00  0.00     0.260 C 
HETATM   21  O   UNK N   1      34.529  18.079   6.807  0.00  0.00    -0.302 OA
ENDBRANCH  19  20
ENDBRANCH  16  18
ENDBRANCH  11  16
ENDBRANCH   2  11
BRANCH   2  22
HETATM   22  S   UNK N   1      34.905  11.425  10.506  0.00  0.00     0.264 S 
HETATM   23  O   UNK N   1      33.895  12.145   9.600  0.00  0.00    -0.211 OA
HETATM   24  O   UNK N   1      35.888  11.221   9.339  0.00  0.00    -0.211 OA
ENDBRANCH   2  22
TORSDOF 9
ENDMDL
MODEL 4
REMARK VINA RESULT:      -4.8      3.557      7.608
REMARK  9 active torsions:
REMARK  status: ('A' for Active; 'I' for Inactive)
REMARK    1  A    between atoms: C_6  and  C_2 
REMARK    2  A    between atoms: N_11  and  C_3 
REMARK    3  A    between atoms: C_10  and  C_7 
REMARK    4  A    between atoms: N_16  and  C_7 
REMARK    5  A    between atoms: C_9  and  C_8 
REMARK    6  A    between atoms: C_10  and  C_8 
REMARK    7  A    between atoms: C_8  and  N_11 
REMARK    8  A    between atoms: O_19  and  C_9 
REMARK    9  A    between atoms: C_10  and  S_22 
ROOT
HETATM    1  C   UNK N   1      32.213  18.071   8.283  0.00  0.00     0.037 C 
HETATM    2  C   UNK N   1      32.624  16.720   7.701  0.00  0.00     0.122 C 
ENDROOT
BRANCH   2   3
HETATM    3  C   UNK N   1      32.787  15.833   8.966  0.00  0.00     0.178 C 
BRANCH   3   4
HETATM    4  N   UNK N   1      34.084  15.878   9.636  0.00  0.00    -0.286 N 
HETATM    5  C   UNK N   1      35.025  14.923   9.591  0.00  0.00     0.130 A 
HETATM    6  C   UNK N   1      36.113  15.410  10.296  0.00  0.00     0.127 A 
HETATM    7  N   UNK N   1      35.787  16.648  10.728  0.00  0.00    -0.296 N 
HETATM    8  N   UNK N   1      34.561  16.908  10.310  0.00  0.00    -0.241 N 
ATOM      9  HN  UNK N   1      36.381  17.269  11.277  1.00  0.00     0.187 HD
ATOM     10  HN  UNK N   1      34.057  17.779  10.482  1.00  0.00     0.208 HD
ENDBRANCH   3   4
ENDBRANCH   2   3
BRANCH   2  11
HETATM   11  C   UNK N   1      31.440  16.141   6.831  0.00  0.00     0.205 C 
BRANCH  11  12
HETATM   12  C   UNK N   1      31.801  14.923   6.008  0.00  0.00     0.165 C 
HETATM   13  O   UNK N   1      31.823  13.807   6.494  0.00  0.00    -0.648 OA
BRANCH  12  14
HETATM   14  O   UNK N   1      32.152  15.081   4.717  0.00  0.00    -0.775 OA
HETATM   15  H   UNK N   1      32.052  15.917   4.304  0.00  0.00     0.167 HD
ENDBRANCH  12  14
ENDBRANCH  11  12
BRANCH  11  16
HETATM   16  N   UNK N   1      30.863  17.081   5.883  0.00  0.00    -0.383 N 
HETATM   17  H   UNK N   1      31.478  17.472   5.222  0.00  0.00     0.159 HD
BRANCH  16  18
HETATM   18  C   UNK N   1      29.506  17.495   5.809  0.00  0.00     0.087 C 
HETATM   19  C   UNK N   1      29.100  18.211   4.753  0.00  0.00     0.058 C 
BRANCH  19  20
HETATM   20  C   UNK N   1      27.716  18.708   4.618  0.00  0.00     0.260 C 
HETATM   21  O   UNK N   1      27.470  19.904   4.582  0.00  0.00    -0.302 OA
ENDBRANCH  19  20
ENDBRANCH  16  18
ENDBRANCH  11  16
ENDBRANCH   2  11
BRANCH   2  22
HETATM   22  S   UNK N   1      34.205  16.889   6.727  0.00  0.00     0.264 S 
HETATM   23  O   UNK N   1      33.579  17.718   5.595  0.00  0.00    -0.211 OA
HETATM   24  O   UNK N   1      34.680  18.155   7.463  0.00  0.00    -0.211 OA
ENDBRANCH   2  22
TORSDOF 9
ENDMDL
MODEL 5
REMARK VINA RESULT:      -4.8     16.338     19.706
REMARK  9 active torsions:
REMARK  status: ('A' for Active; 'I' for Inactive)
REMARK    1  A    between atoms: C_6  and  C_2 
REMARK    2  A    between atoms: N_11  and  C_3 
REMARK    3  A    between atoms: C_10  and  C_7 
REMARK    4  A    between atoms: N_16  and  C_7 
REMARK    5  A    between atoms: C_9  and  C_8 
REMARK    6  A    between atoms: C_10  and  C_8 
REMARK    7  A    between atoms: C_8  and  N_11 
REMARK    8  A    between atoms: O_19  and  C_9 
REMARK    9  A    between atoms: C_10  and  S_22 
ROOT
HETATM    1  C   UNK N   1      28.577  27.664  -4.473  0.00  0.00     0.037 C 
HETATM    2  C   UNK N   1      27.434  26.694  -4.768  0.00  0.00     0.122 C 
ENDROOT
BRANCH   2   3
HETATM    3  C   UNK N   1      27.275  26.805  -6.309  0.00  0.00     0.178 C 
BRANCH   3   4
HETATM    4  N   UNK N   1      26.730  25.638  -6.998  0.00  0.00    -0.286 N 
HETATM    5  C   UNK N   1      27.426  24.777  -7.756  0.00  0.00     0.130 A 
HETATM    6  C   UNK N   1      26.536  23.788  -8.143  0.00  0.00     0.127 A 
HETATM    7  N   UNK N   1      25.341  24.087  -7.590  0.00  0.00    -0.296 N 
HETATM    8  N   UNK N   1      25.487  25.203  -6.899  0.00  0.00    -0.241 N 
ATOM      9  HN  UNK N   1      24.480  23.548  -7.689  1.00  0.00     0.187 HD
ATOM     10  HN  UNK N   1      24.748  25.662  -6.366  1.00  0.00     0.208 HD
ENDBRANCH   3   4
ENDBRANCH   2   3
BRANCH   2  11
HETATM   11  C   UNK N   1      27.889  25.225  -4.414  0.00  0.00     0.205 C 
BRANCH  11  12
HETATM   12  C   UNK N   1      26.846  24.400  -3.691  0.00  0.00     0.165 C 
HETATM   13  O   UNK N   1      26.947  24.139  -2.506  0.00  0.00    -0.648 OA
BRANCH  12  14
HETATM   14  O   UNK N   1      25.802  23.904  -4.383  0.00  0.00    -0.775 OA
HETATM   15  H   UNK N   1      25.560  23.004  -4.283  0.00  0.00     0.167 HD
ENDBRANCH  12  14
ENDBRANCH  11  12
BRANCH  11  16
HETATM   16  N   UNK N   1      29.081  25.138  -3.585  0.00  0.00    -0.383 N 
HETATM   17  H   UNK N   1      29.112  25.724  -2.795  0.00  0.00     0.159 HD
BRANCH  16  18
HETATM   18  C   UNK N   1      30.207  24.296  -3.793  0.00  0.00     0.087 C 
HETATM   19  C   UNK N   1      30.422  23.276  -2.952  0.00  0.00     0.058 C 
BRANCH  19  20
HETATM   20  C   UNK N   1      31.586  22.377  -3.079  0.00  0.00     0.260 C 
HETATM   21  O   UNK N   1      32.026  21.765  -2.117  0.00  0.00    -0.302 OA
ENDBRANCH  19  20
ENDBRANCH  16  18
ENDBRANCH  11  16
ENDBRANCH   2  11
BRANCH   2  22
HETATM   22  S   UNK N   1      25.897  27.205  -3.843  0.00  0.00     0.264 S 
HETATM   23  O   UNK N   1      26.651  27.784  -2.636  0.00  0.00    -0.211 OA
HETATM   24  O   UNK N   1      25.795  28.589  -4.510  0.00  0.00    -0.211 OA
ENDBRANCH   2  22
TORSDOF 9
ENDMDL
MODEL 6
REMARK VINA RESULT:      -4.8      3.721      5.775
REMARK  9 active torsions:
REMARK  status: ('A' for Active; 'I' for Inactive)
REMARK    1  A    between atoms: C_6  and  C_2 
REMARK    2  A    between atoms: N_11  and  C_3 
REMARK    3  A    between atoms: C_10  and  C_7 
REMARK    4  A    between atoms: N_16  and  C_7 
REMARK    5  A    between atoms: C_9  and  C_8 
REMARK    6  A    between atoms: C_10  and  C_8 
REMARK    7  A    between atoms: C_8  and  N_11 
REMARK    8  A    between atoms: O_19  and  C_9 
REMARK    9  A    between atoms: C_10  and  S_22 
ROOT
HETATM    1  C   UNK N   1      32.375  14.910   9.042  0.00  0.00     0.037 C 
HETATM    2  C   UNK N   1      33.079  15.447   7.797  0.00  0.00     0.122 C 
ENDROOT
BRANCH   2   3
HETATM    3  C   UNK N   1      32.470  14.585   6.657  0.00  0.00     0.178 C 
BRANCH   3   4
HETATM    4  N   UNK N   1      32.556  15.131   5.305  0.00  0.00    -0.286 N 
HETATM    5  C   UNK N   1      31.544  15.677   4.613  0.00  0.00     0.130 A 
HETATM    6  C   UNK N   1      32.085  16.129   3.420  0.00  0.00     0.127 A 
HETATM    7  N   UNK N   1      33.406  15.849   3.448  0.00  0.00    -0.296 N 
HETATM    8  N   UNK N   1      33.665  15.253   4.598  0.00  0.00    -0.241 N 
ATOM      9  HN  UNK N   1      34.081  16.058   2.712  1.00  0.00     0.187 HD
ATOM     10  HN  UNK N   1      34.587  14.934   4.897  1.00  0.00     0.208 HD
ENDBRANCH   3   4
ENDBRANCH   2   3
BRANCH   2  11
HETATM   11  C   UNK N   1      32.661  16.952   7.566  0.00  0.00     0.205 C 
BRANCH  11  12
HETATM   12  C   UNK N   1      33.778  17.846   7.072  0.00  0.00     0.165 C 
HETATM   13  O   UNK N   1      34.082  17.896   5.894  0.00  0.00    -0.648 OA
BRANCH  12  14
HETATM   14  O   UNK N   1      34.485  18.570   7.962  0.00  0.00    -0.775 OA
HETATM   15  H   UNK N   1      34.144  18.716   8.822  0.00  0.00     0.167 HD
ENDBRANCH  12  14
ENDBRANCH  11  12
BRANCH  11  16
HETATM   16  N   UNK N   1      32.130  17.625   8.742  0.00  0.00    -0.383 N 
HETATM   17  H   UNK N   1      32.767  17.811   9.468  0.00  0.00     0.159 HD
BRANCH  16  18
HETATM   18  C   UNK N   1      30.789  18.043   8.953  0.00  0.00     0.087 C 
HETATM   19  C   UNK N   1      29.815  17.509   8.206  0.00  0.00     0.058 C 
BRANCH  19  20
HETATM   20  C   UNK N   1      28.401  17.914   8.340  0.00  0.00     0.260 C 
HETATM   21  O   UNK N   1      27.819  17.850   9.412  0.00  0.00    -0.302 OA
ENDBRANCH  19  20
ENDBRANCH  16  18
ENDBRANCH  11  16
ENDBRANCH   2  11
BRANCH   2  22
HETATM   22  S   UNK N   1      34.925  15.237   7.956  0.00  0.00     0.264 S 
HETATM   23  O   UNK N   1      35.013  15.868   9.355  0.00  0.00    -0.211 OA
HETATM   24  O   UNK N   1      34.847  13.817   8.544  0.00  0.00    -0.211 OA
ENDBRANCH   2  22
TORSDOF 9
ENDMDL
MODEL 7
REMARK VINA RESULT:      -4.8      3.291      5.912
REMARK  9 active torsions:
REMARK  status: ('A' for Active; 'I' for Inactive)
REMARK    1  A    between atoms: C_6  and  C_2 
REMARK    2  A    between atoms: N_11  and  C_3 
REMARK    3  A    between atoms: C_10  and  C_7 
REMARK    4  A    between atoms: N_16  and  C_7 
REMARK    5  A    between atoms: C_9  and  C_8 
REMARK    6  A    between atoms: C_10  and  C_8 
REMARK    7  A    between atoms: C_8  and  N_11 
REMARK    8  A    between atoms: O_19  and  C_9 
REMARK    9  A    between atoms: C_10  and  S_22 
ROOT
HETATM    1  C   UNK N   1      32.559  15.011   9.498  0.00  0.00     0.037 C 
HETATM    2  C   UNK N   1      33.698  15.879   8.966  0.00  0.00     0.122 C 
ENDROOT
BRANCH   2   3
HETATM    3  C   UNK N   1      34.415  14.933   7.965  0.00  0.00     0.178 C 
BRANCH   3   4
HETATM    4  N   UNK N   1      34.378  13.505   8.269  0.00  0.00    -0.286 N 
HETATM    5  C   UNK N   1      33.722  12.569   7.566  0.00  0.00     0.130 A 
HETATM    6  C   UNK N   1      34.022  11.353   8.158  0.00  0.00     0.127 A 
HETATM    7  N   UNK N   1      34.860  11.605   9.187  0.00  0.00    -0.296 N 
HETATM    8  N   UNK N   1      35.064  12.909   9.227  0.00  0.00    -0.241 N 
ATOM      9  HN  UNK N   1      35.262  10.912   9.819  1.00  0.00     0.187 HD
ATOM     10  HN  UNK N   1      35.664  13.387   9.900  1.00  0.00     0.208 HD
ENDBRANCH   3   4
ENDBRANCH   2   3
BRANCH   2  11
HETATM   11  C   UNK N   1      33.096  17.098   8.163  0.00  0.00     0.205 C 
BRANCH  11  12
HETATM   12  C   UNK N   1      34.130  18.014   7.542  0.00  0.00     0.165 C 
HETATM   13  O   UNK N   1      34.472  17.895   6.380  0.00  0.00    -0.648 OA
BRANCH  12  14
HETATM   14  O   UNK N   1      34.719  18.955   8.305  0.00  0.00    -0.775 OA
HETATM   15  H   UNK N   1      35.428  18.721   8.871  0.00  0.00     0.167 HD
ENDBRANCH  12  14
ENDBRANCH  11  12
BRANCH  11  16
HETATM   16  N   UNK N   1      32.233  17.974   8.939  0.00  0.00    -0.383 N 
HETATM   17  H   UNK N   1      32.630  18.389   9.738  0.00  0.00     0.159 HD
BRANCH  16  18
HETATM   18  C   UNK N   1      30.876  18.295   8.667  0.00  0.00     0.087 C 
HETATM   19  C   UNK N   1      29.918  17.801   9.461  0.00  0.00     0.058 C 
BRANCH  19  20
HETATM   20  C   UNK N   1      28.483  18.059   9.227  0.00  0.00     0.260 C 
HETATM   21  O   UNK N   1      27.627  17.254   9.564  0.00  0.00    -0.302 OA
ENDBRANCH  19  20
ENDBRANCH  16  18
ENDBRANCH  11  16
ENDBRANCH   2  11
BRANCH   2  22
HETATM   22  S   UNK N   1      34.803  16.426  10.366  0.00  0.00     0.264 S 
HETATM   23  O   UNK N   1      34.517  15.202  11.250  0.00  0.00    -0.211 OA
HETATM   24  O   UNK N   1      36.076  15.779   9.789  0.00  0.00    -0.211 OA
ENDBRANCH   2  22
TORSDOF 9
ENDMDL
MODEL 8
REMARK VINA RESULT:      -4.7      2.094      2.845
REMARK  9 active torsions:
REMARK  status: ('A' for Active; 'I' for Inactive)
REMARK    1  A    between atoms: C_6  and  C_2 
REMARK    2  A    between atoms: N_11  and  C_3 
REMARK    3  A    between atoms: C_10  and  C_7 
REMARK    4  A    between atoms: N_16  and  C_7 
REMARK    5  A    between atoms: C_9  and  C_8 
REMARK    6  A    between atoms: C_10  and  C_8 
REMARK    7  A    between atoms: C_8  and  N_11 
REMARK    8  A    between atoms: O_19  and  C_9 
REMARK    9  A    between atoms: C_10  and  S_22 
ROOT
HETATM    1  C   UNK N   1      34.057  15.640   6.857  0.00  0.00     0.037 C 
HETATM    2  C   UNK N   1      33.832  16.211   8.256  0.00  0.00     0.122 C 
ENDROOT
BRANCH   2   3
HETATM    3  C   UNK N   1      32.460  15.605   8.660  0.00  0.00     0.178 C 
BRANCH   3   4
HETATM    4  N   UNK N   1      31.285  16.449   8.461  0.00  0.00    -0.286 N 
HETATM    5  C   UNK N   1      30.627  16.619   7.304  0.00  0.00     0.130 A 
HETATM    6  C   UNK N   1      29.541  17.430   7.586  0.00  0.00     0.127 A 
HETATM    7  N   UNK N   1      29.580  17.706   8.907  0.00  0.00    -0.296 N 
HETATM    8  N   UNK N   1      30.638  17.096   9.412  0.00  0.00    -0.241 N 
ATOM      9  HN  UNK N   1      28.914  18.282   9.422  1.00  0.00     0.187 HD
ATOM     10  HN  UNK N   1      30.914  17.121  10.394  1.00  0.00     0.208 HD
ENDBRANCH   3   4
ENDBRANCH   2   3
BRANCH   2  11
HETATM   11  C   UNK N   1      34.937  15.652   9.235  0.00  0.00     0.205 C 
BRANCH  11  12
HETATM   12  C   UNK N   1      35.395  14.242   8.927  0.00  0.00     0.165 C 
HETATM   13  O   UNK N   1      34.716  13.273   9.214  0.00  0.00    -0.648 OA
BRANCH  12  14
HETATM   14  O   UNK N   1      36.604  14.051   8.363  0.00  0.00    -0.775 OA
HETATM   15  H   UNK N   1      37.379  14.316   8.817  0.00  0.00     0.167 HD
ENDBRANCH  12  14
ENDBRANCH  11  12
BRANCH  11  16
HETATM   16  N   UNK N   1      34.553  15.626  10.638  0.00  0.00    -0.383 N 
HETATM   17  H   UNK N   1      33.588  15.616  10.830  0.00  0.00     0.159 HD
BRANCH  16  18
HETATM   18  C   UNK N   1      35.423  15.616  11.761  0.00  0.00     0.087 C 
HETATM   19  C   UNK N   1      35.510  14.508  12.507  0.00  0.00     0.058 C 
BRANCH  19  20
HETATM   20  C   UNK N   1      36.365  14.428  13.709  0.00  0.00     0.260 C 
HETATM   21  O   UNK N   1      36.644  13.354  14.221  0.00  0.00    -0.302 OA
ENDBRANCH  19  20
ENDBRANCH  16  18
ENDBRANCH  11  16
ENDBRANCH   2  11
BRANCH   2  22
HETATM   22  S   UNK N   1      33.811  18.075   8.198  0.00  0.00     0.264 S 
HETATM   23  O   UNK N   1      35.144  18.249   8.943  0.00  0.00    -0.211 OA
HETATM   24  O   UNK N   1      34.503  18.173   6.826  0.00  0.00    -0.211 OA
ENDBRANCH   2  22
TORSDOF 9
ENDMDL
MODEL 9
REMARK VINA RESULT:      -4.7     14.327     15.665
REMARK  9 active torsions:
REMARK  status: ('A' for Active; 'I' for Inactive)
REMARK    1  A    between atoms: C_6  and  C_2 
REMARK    2  A    between atoms: N_11  and  C_3 
REMARK    3  A    between atoms: C_10  and  C_7 
REMARK    4  A    between atoms: N_16  and  C_7 
REMARK    5  A    between atoms: C_9  and  C_8 
REMARK    6  A    between atoms: C_10  and  C_8 
REMARK    7  A    between atoms: C_8  and  N_11 
REMARK    8  A    between atoms: O_19  and  C_9 
REMARK    9  A    between atoms: C_10  and  S_22 
ROOT
HETATM    1  C   UNK N   1      21.344  16.088   3.096  0.00  0.00     0.037 C 
HETATM    2  C   UNK N   1      20.924  16.909   4.314  0.00  0.00     0.122 C 
ENDROOT
BRANCH   2   3
HETATM    3  C   UNK N   1      19.846  17.864   3.732  0.00  0.00     0.178 C 
BRANCH   3   4
HETATM    4  N   UNK N   1      20.330  19.051   3.030  0.00  0.00    -0.286 N 
HETATM    5  C   UNK N   1      20.580  19.139   1.715  0.00  0.00     0.130 A 
HETATM    6  C   UNK N   1      20.941  20.454   1.472  0.00  0.00     0.127 A 
HETATM    7  N   UNK N   1      20.881  21.109   2.651  0.00  0.00    -0.296 N 
HETATM    8  N   UNK N   1      20.504  20.242   3.573  0.00  0.00    -0.241 N 
ATOM      9  HN  UNK N   1      21.091  22.096   2.803  1.00  0.00     0.187 HD
ATOM     10  HN  UNK N   1      20.366  20.460   4.560  1.00  0.00     0.208 HD
ENDBRANCH   3   4
ENDBRANCH   2   3
BRANCH   2  11
HETATM   11  C   UNK N   1      20.236  15.962   5.373  0.00  0.00     0.205 C 
BRANCH  11  12
HETATM   12  C   UNK N   1      19.002  15.245   4.869  0.00  0.00     0.165 C 
HETATM   13  O   UNK N   1      19.078  14.327   4.073  0.00  0.00    -0.648 OA
BRANCH  12  14
HETATM   14  O   UNK N   1      17.786  15.661   5.275  0.00  0.00    -0.775 OA
HETATM   15  H   UNK N   1      17.628  16.573   5.417  0.00  0.00     0.167 HD
ENDBRANCH  12  14
ENDBRANCH  11  12
BRANCH  11  16
HETATM   16  N   UNK N   1      19.815  16.622   6.600  0.00  0.00    -0.383 N 
HETATM   17  H   UNK N   1      19.390  17.504   6.501  0.00  0.00     0.159 HD
BRANCH  16  18
HETATM   18  C   UNK N   1      19.952  16.129   7.925  0.00  0.00     0.087 C 
HETATM   19  C   UNK N   1      20.377  14.874   8.112  0.00  0.00     0.058 C 
BRANCH  19  20
HETATM   20  C   UNK N   1      20.514  14.276   9.455  0.00  0.00     0.260 C 
HETATM   21  O   UNK N   1      19.559  13.773  10.029  0.00  0.00    -0.302 OA
ENDBRANCH  19  20
ENDBRANCH  16  18
ENDBRANCH  11  16
ENDBRANCH   2  11
BRANCH   2  22
HETATM   22  S   UNK N   1      22.392  17.818   5.019  0.00  0.00     0.264 S 
HETATM   23  O   UNK N   1      21.568  18.660   6.006  0.00  0.00    -0.211 OA
HETATM   24  O   UNK N   1      22.699  16.760   6.094  0.00  0.00    -0.211 OA
ENDBRANCH   2  22
TORSDOF 9
ENDMDL
