MODEL 1
REMARK VINA RESULT:      -5.2      0.000      0.000
REMARK  6 active torsions:
REMARK  status: ('A' for Active; 'I' for Inactive)
REMARK    1  A    between atoms: C_2  and  C_1 
REMARK    2  A    between atoms: O_7  and  C_1 
REMARK    3  A    between atoms: C_3  and  O_8 
REMARK    4  A    between atoms: C_4  and  O_9 
REMARK    5  A    between atoms: C_5  and  O_10 
REMARK    6  A    between atoms: O_11  and  C_6 
ROOT
HETATM    1  C   UNK N   1      20.438  19.593   1.820  0.00  0.00     0.179 C 
HETATM    2  C   UNK N   1      21.280  19.277   3.090  0.00  0.00     0.180 C 
HETATM    3  C   UNK N   1      21.343  17.753   3.352  0.00  0.00     0.183 C 
HETATM    4  C   UNK N   1      20.108  17.069   2.770  0.00  0.00     0.204 C 
HETATM    5  C   UNK N   1      20.166  17.316   1.231  0.00  0.00     0.288 C 
HETATM    6  O   UNK N   1      20.611  18.614   0.815  0.00  0.00    -0.349 OA
ENDROOT
BRANCH   1   7
HETATM    7  C   UNK N   1      20.758  20.982   1.276  0.00  0.00     0.198 C 
BRANCH   7   8
HETATM    8  O   UNK N   1      20.768  20.980  -0.121  0.00  0.00    -0.398 OA
HETATM    9  H   UNK N   1      20.434  20.945  -1.030  0.00  0.00     0.209 HD
ENDBRANCH   7   8
ENDBRANCH   1   7
BRANCH   2  10
HETATM   10  O   UNK N   1      20.696  19.947   4.171  0.00  0.00    -0.390 OA
HETATM   11  H   UNK N   1      19.867  20.419   4.347  0.00  0.00     0.210 HD
ENDBRANCH   2  10
BRANCH   3  12
HETATM   12  O   UNK N   1      21.504  17.476   4.712  0.00  0.00    -0.390 OA
HETATM   13  H   UNK N   1      22.373  17.588   5.130  0.00  0.00     0.210 HD
ENDBRANCH   3  12
BRANCH   5  14
HETATM   14  O   UNK N   1      18.945  16.998   0.633  0.00  0.00    -0.369 OA
HETATM   15  H   UNK N   1      18.021  16.921   0.917  0.00  0.00     0.212 HD
ENDBRANCH   5  14
BRANCH   4  16
HETATM   16  O   UNK N   1      18.945  17.600   3.339  0.00  0.00    -0.388 OA
HETATM   17  H   UNK N   1      18.168  17.779   3.891  0.00  0.00     0.210 HD
ENDBRANCH   4  16
TORSDOF 6
ENDMDL
MODEL 2
REMARK VINA RESULT:      -5.2     14.773     16.452
REMARK  6 active torsions:
REMARK  status: ('A' for Active; 'I' for Inactive)
REMARK    1  A    between atoms: C_2  and  C_1 
REMARK    2  A    between atoms: O_7  and  C_1 
REMARK    3  A    between atoms: C_3  and  O_8 
REMARK    4  A    between atoms: C_4  and  O_9 
REMARK    5  A    between atoms: C_5  and  O_10 
REMARK    6  A    between atoms: O_11  and  C_6 
ROOT
HETATM    1  C   UNK N   1      34.776  17.075   8.921  0.00  0.00     0.179 C 
HETATM    2  C   UNK N   1      33.513  16.166   8.970  0.00  0.00     0.180 C 
HETATM    3  C   UNK N   1      33.631  15.106  10.091  0.00  0.00     0.183 C 
HETATM    4  C   UNK N   1      35.100  14.799  10.369  0.00  0.00     0.204 C 
HETATM    5  C   UNK N   1      35.730  16.134  10.873  0.00  0.00     0.288 C 
HETATM    6  O   UNK N   1      35.292  17.329  10.212  0.00  0.00    -0.349 OA
ENDROOT
BRANCH   1   7
HETATM    7  C   UNK N   1      34.488  18.383   8.192  0.00  0.00     0.198 C 
BRANCH   7   8
HETATM    8  O   UNK N   1      35.395  19.375   8.572  0.00  0.00    -0.398 OA
HETATM    9  H   UNK N   1      35.863  20.007   9.138  0.00  0.00     0.209 HD
ENDBRANCH   7   8
ENDBRANCH   1   7
BRANCH   2  10
HETATM   10  O   UNK N   1      33.372  15.556   7.718  0.00  0.00    -0.390 OA
HETATM   11  H   UNK N   1      33.876  15.518   6.890  0.00  0.00     0.210 HD
ENDBRANCH   2  10
BRANCH   3  12
HETATM   12  O   UNK N   1      32.902  13.954   9.783  0.00  0.00    -0.390 OA
HETATM   13  H   UNK N   1      32.048  14.028   9.329  0.00  0.00     0.210 HD
ENDBRANCH   3  12
BRANCH   5  14
HETATM   14  O   UNK N   1      37.124  16.053  10.873  0.00  0.00    -0.369 OA
HETATM   15  H   UNK N   1      37.790  15.385  11.098  0.00  0.00     0.212 HD
ENDBRANCH   5  14
BRANCH   4  16
HETATM   16  O   UNK N   1      35.727  14.332   9.209  0.00  0.00    -0.388 OA
HETATM   17  H   UNK N   1      35.957  13.869   8.388  0.00  0.00     0.210 HD
ENDBRANCH   4  16
TORSDOF 6
ENDMDL
MODEL 3
REMARK VINA RESULT:      -5.0     16.720     18.586
REMARK  6 active torsions:
REMARK  status: ('A' for Active; 'I' for Inactive)
REMARK    1  A    between atoms: C_2  and  C_1 
REMARK    2  A    between atoms: O_7  and  C_1 
REMARK    3  A    between atoms: C_3  and  O_8 
REMARK    4  A    between atoms: C_4  and  O_9 
REMARK    5  A    between atoms: C_5  and  O_10 
REMARK    6  A    between atoms: O_11  and  C_6 
ROOT
HETATM    1  C   UNK N   1      35.139  14.941  10.910  0.00  0.00     0.179 C 
HETATM    2  C   UNK N   1      36.568  14.727  10.330  0.00  0.00     0.180 C 
HETATM    3  C   UNK N   1      37.218  13.447  10.908  0.00  0.00     0.183 C 
HETATM    4  C   UNK N   1      36.638  13.140  12.285  0.00  0.00     0.204 C 
HETATM    5  C   UNK N   1      35.118  12.872  12.062  0.00  0.00     0.288 C 
HETATM    6  O   UNK N   1      34.461  13.717  11.107  0.00  0.00    -0.349 OA
ENDROOT
BRANCH   1   7
HETATM    7  C   UNK N   1      34.318  15.874  10.026  0.00  0.00     0.198 C 
BRANCH   7   8
HETATM    8  O   UNK N   1      34.674  17.208  10.243  0.00  0.00    -0.398 OA
HETATM    9  H   UNK N   1      35.100  17.979  10.648  0.00  0.00     0.209 HD
ENDBRANCH   7   8
ENDBRANCH   1   7
BRANCH   2  10
HETATM   10  O   UNK N   1      37.332  15.858  10.637  0.00  0.00    -0.390 OA
HETATM   11  H   UNK N   1      37.757  16.232  11.425  0.00  0.00     0.210 HD
ENDBRANCH   2  10
BRANCH   3  12
HETATM   12  O   UNK N   1      38.611  13.551  10.935  0.00  0.00    -0.390 OA
HETATM   13  H   UNK N   1      39.040  14.385  10.685  0.00  0.00     0.210 HD
ENDBRANCH   3  12
BRANCH   5  14
HETATM   14  O   UNK N   1      34.431  12.876  13.277  0.00  0.00    -0.369 OA
HETATM   15  H   UNK N   1      33.887  13.504  13.777  0.00  0.00     0.212 HD
ENDBRANCH   5  14
BRANCH   4  16
HETATM   16  O   UNK N   1      36.855  14.215  13.154  0.00  0.00    -0.388 OA
HETATM   17  H   UNK N   1      37.136  15.047  13.566  0.00  0.00     0.210 HD
ENDBRANCH   4  16
TORSDOF 6
ENDMDL
MODEL 4
REMARK VINA RESULT:      -4.9     16.343     18.325
REMARK  6 active torsions:
REMARK  status: ('A' for Active; 'I' for Inactive)
REMARK    1  A    between atoms: C_2  and  C_1 
REMARK    2  A    between atoms: O_7  and  C_1 
REMARK    3  A    between atoms: C_3  and  O_8 
REMARK    4  A    between atoms: C_4  and  O_9 
REMARK    5  A    between atoms: C_5  and  O_10 
REMARK    6  A    between atoms: O_11  and  C_6 
ROOT
HETATM    1  C   UNK N   1      35.641  14.660  12.688  0.00  0.00     0.179 C 
HETATM    2  C   UNK N   1      35.313  13.272  12.063  0.00  0.00     0.180 C 
HETATM    3  C   UNK N   1      34.885  13.414  10.583  0.00  0.00     0.183 C 
HETATM    4  C   UNK N   1      34.273  14.792  10.344  0.00  0.00     0.204 C 
HETATM    5  C   UNK N   1      35.408  15.822  10.638  0.00  0.00     0.288 C 
HETATM    6  O   UNK N   1      36.256  15.525  11.756  0.00  0.00    -0.349 OA
ENDROOT
BRANCH   1   7
HETATM    7  C   UNK N   1      36.505  14.513  13.936  0.00  0.00     0.198 C 
BRANCH   7   8
HETATM    8  O   UNK N   1      37.103  13.251  13.983  0.00  0.00    -0.398 OA
HETATM    9  H   UNK N   1      37.362  12.359  13.706  0.00  0.00     0.209 HD
ENDBRANCH   7   8
ENDBRANCH   1   7
BRANCH   2  10
HETATM   10  O   UNK N   1      34.295  12.686  12.824  0.00  0.00    -0.390 OA
HETATM   11  H   UNK N   1      33.879  12.841  13.687  0.00  0.00     0.210 HD
ENDBRANCH   2  10
BRANCH   3  12
HETATM   12  O   UNK N   1      34.022  12.383  10.201  0.00  0.00    -0.390 OA
HETATM   13  H   UNK N   1      34.271  11.459  10.359  0.00  0.00     0.210 HD
ENDBRANCH   3  12
BRANCH   5  14
HETATM   14  O   UNK N   1      34.887  17.113  10.743  0.00  0.00    -0.369 OA
HETATM   15  H   UNK N   1      35.202  18.015  10.575  0.00  0.00     0.212 HD
ENDBRANCH   5  14
BRANCH   4  16
HETATM   16  O   UNK N   1      33.166  14.984  11.178  0.00  0.00    -0.388 OA
HETATM   17  H   UNK N   1      32.274  15.078  11.546  0.00  0.00     0.210 HD
ENDBRANCH   4  16
TORSDOF 6
ENDMDL
MODEL 5
REMARK VINA RESULT:      -4.9      1.338      2.834
REMARK  6 active torsions:
REMARK  status: ('A' for Active; 'I' for Inactive)
REMARK    1  A    between atoms: C_2  and  C_1 
REMARK    2  A    between atoms: O_7  and  C_1 
REMARK    3  A    between atoms: C_3  and  O_8 
REMARK    4  A    between atoms: C_4  and  O_9 
REMARK    5  A    between atoms: C_5  and  O_10 
REMARK    6  A    between atoms: O_11  and  C_6 
ROOT
HETATM    1  C   UNK N   1      20.951  19.582   2.218  0.00  0.00     0.179 C 
HETATM    2  C   UNK N   1      19.636  18.844   2.608  0.00  0.00     0.180 C 
HETATM    3  C   UNK N   1      19.844  17.960   3.861  0.00  0.00     0.183 C 
HETATM    4  C   UNK N   1      21.304  17.530   3.964  0.00  0.00     0.204 C 
HETATM    5  C   UNK N   1      22.128  18.843   4.135  0.00  0.00     0.288 C 
HETATM    6  O   UNK N   1      21.697  19.967   3.355  0.00  0.00    -0.349 OA
ENDROOT
BRANCH   1   7
HETATM    7  C   UNK N   1      20.665  20.788   1.331  0.00  0.00     0.198 C 
BRANCH   7   8
HETATM    8  O   UNK N   1      20.581  20.410  -0.012  0.00  0.00    -0.398 OA
HETATM    9  H   UNK N   1      20.470  19.842  -0.789  0.00  0.00     0.209 HD
ENDBRANCH   7   8
ENDBRANCH   1   7
BRANCH   2  10
HETATM   10  O   UNK N   1      19.234  18.072   1.512  0.00  0.00    -0.390 OA
HETATM   11  H   UNK N   1      19.588  17.323   1.007  0.00  0.00     0.210 HD
ENDBRANCH   2  10
BRANCH   3  12
HETATM   12  O   UNK N   1      18.972  16.868   3.864  0.00  0.00    -0.390 OA
HETATM   13  H   UNK N   1      18.082  16.957   3.489  0.00  0.00     0.210 HD
ENDBRANCH   3  12
BRANCH   5  14
HETATM   14  O   UNK N   1      23.489  18.601   3.940  0.00  0.00    -0.369 OA
HETATM   15  H   UNK N   1      24.032  18.096   3.316  0.00  0.00     0.212 HD
ENDBRANCH   5  14
BRANCH   4  16
HETATM   16  O   UNK N   1      21.684  16.822   2.817  0.00  0.00    -0.388 OA
HETATM   17  H   UNK N   1      21.741  16.434   1.930  0.00  0.00     0.210 HD
ENDBRANCH   4  16
TORSDOF 6
ENDMDL
MODEL 6
REMARK VINA RESULT:      -4.8     14.029     15.944
REMARK  6 active torsions:
REMARK  status: ('A' for Active; 'I' for Inactive)
REMARK    1  A    between atoms: C_2  and  C_1 
REMARK    2  A    between atoms: O_7  and  C_1 
REMARK    3  A    between atoms: C_3  and  O_8 
REMARK    4  A    between atoms: C_4  and  O_9 
REMARK    5  A    between atoms: C_5  and  O_10 
REMARK    6  A    between atoms: O_11  and  C_6 
ROOT
HETATM    1  C   UNK N   1      34.738  16.435  10.296  0.00  0.00     0.179 C 
HETATM    2  C   UNK N   1      33.875  15.211   9.872  0.00  0.00     0.180 C 
HETATM    3  C   UNK N   1      33.255  15.426   8.470  0.00  0.00     0.183 C 
HETATM    4  C   UNK N   1      33.086  16.917   8.194  0.00  0.00     0.204 C 
HETATM    5  C   UNK N   1      34.523  17.522   8.203  0.00  0.00     0.288 C 
HETATM    6  O   UNK N   1      35.420  17.007   9.198  0.00  0.00    -0.349 OA
ENDROOT
BRANCH   1   7
HETATM    7  C   UNK N   1      35.721  16.062  11.401  0.00  0.00     0.198 C 
BRANCH   7   8
HETATM    8  O   UNK N   1      37.033  16.051  10.920  0.00  0.00    -0.398 OA
HETATM    9  H   UNK N   1      37.837  15.728  10.487  0.00  0.00     0.209 HD
ENDBRANCH   7   8
ENDBRANCH   1   7
BRANCH   2  10
HETATM   10  O   UNK N   1      32.879  15.030  10.837  0.00  0.00    -0.390 OA
HETATM   11  H   UNK N   1      31.982  14.663  10.868  0.00  0.00     0.210 HD
ENDBRANCH   2  10
BRANCH   3  12
HETATM   12  O   UNK N   1      32.053  14.726   8.333  0.00  0.00    -0.390 OA
HETATM   13  H   UNK N   1      32.052  13.756   8.353  0.00  0.00     0.210 HD
ENDBRANCH   3  12
BRANCH   5  14
HETATM   14  O   UNK N   1      34.473  18.916   8.260  0.00  0.00    -0.369 OA
HETATM   15  H   UNK N   1      35.113  19.642   8.310  0.00  0.00     0.212 HD
ENDBRANCH   5  14
BRANCH   4  16
HETATM   16  O   UNK N   1      32.269  17.502   9.169  0.00  0.00    -0.388 OA
HETATM   17  H   UNK N   1      31.919  17.947   9.956  0.00  0.00     0.210 HD
ENDBRANCH   4  16
TORSDOF 6
ENDMDL
MODEL 7
REMARK VINA RESULT:      -4.8     14.560     15.899
REMARK  6 active torsions:
REMARK  status: ('A' for Active; 'I' for Inactive)
REMARK    1  A    between atoms: C_2  and  C_1 
REMARK    2  A    between atoms: O_7  and  C_1 
REMARK    3  A    between atoms: C_3  and  O_8 
REMARK    4  A    between atoms: C_4  and  O_9 
REMARK    5  A    between atoms: C_5  and  O_10 
REMARK    6  A    between atoms: O_11  and  C_6 
ROOT
HETATM    1  C   UNK N   1      33.730  16.464   8.876  0.00  0.00     0.179 C 
HETATM    2  C   UNK N   1      35.132  16.516   9.552  0.00  0.00     0.180 C 
HETATM    3  C   UNK N   1      35.574  15.111  10.029  0.00  0.00     0.183 C 
HETATM    4  C   UNK N   1      34.350  14.248  10.322  0.00  0.00     0.204 C 
HETATM    5  C   UNK N   1      33.593  14.102   8.966  0.00  0.00     0.288 C 
HETATM    6  O   UNK N   1      33.544  15.273   8.139  0.00  0.00    -0.349 OA
ENDROOT
BRANCH   1   7
HETATM    7  C   UNK N   1      33.498  17.684   7.992  0.00  0.00     0.198 C 
BRANCH   7   8
HETATM    8  O   UNK N   1      34.710  18.284   7.641  0.00  0.00    -0.398 OA
HETATM    9  H   UNK N   1      35.328  18.913   7.240  0.00  0.00     0.209 HD
ENDBRANCH   7   8
ENDBRANCH   1   7
BRANCH   2  10
HETATM   10  O   UNK N   1      35.059  17.409  10.627  0.00  0.00    -0.390 OA
HETATM   11  H   UNK N   1      34.519  18.177  10.873  0.00  0.00     0.210 HD
ENDBRANCH   2  10
BRANCH   3  12
HETATM   12  O   UNK N   1      36.434  15.193  11.127  0.00  0.00    -0.390 OA
HETATM   13  H   UNK N   1      37.044  14.464  11.320  0.00  0.00     0.210 HD
ENDBRANCH   3  12
BRANCH   5  14
HETATM   14  O   UNK N   1      32.310  13.589   9.169  0.00  0.00    -0.369 OA
HETATM   15  H   UNK N   1      31.626  13.653   9.854  0.00  0.00     0.212 HD
ENDBRANCH   5  14
BRANCH   4  16
HETATM   16  O   UNK N   1      33.553  14.852  11.301  0.00  0.00    -0.388 OA
HETATM   17  H   UNK N   1      32.880  15.359  11.782  0.00  0.00     0.210 HD
ENDBRANCH   4  16
TORSDOF 6
ENDMDL
MODEL 8
REMARK VINA RESULT:      -4.7     14.353     16.145
REMARK  6 active torsions:
REMARK  status: ('A' for Active; 'I' for Inactive)
REMARK    1  A    between atoms: C_2  and  C_1 
REMARK    2  A    between atoms: O_7  and  C_1 
REMARK    3  A    between atoms: C_3  and  O_8 
REMARK    4  A    between atoms: C_4  and  O_9 
REMARK    5  A    between atoms: C_5  and  O_10 
REMARK    6  A    between atoms: O_11  and  C_6 
ROOT
HETATM    1  C   UNK N   1      35.570  15.614   8.969  0.00  0.00     0.179 C 
HETATM    2  C   UNK N   1      34.279  16.180   9.632  0.00  0.00     0.180 C 
HETATM    3  C   UNK N   1      33.184  16.455   8.573  0.00  0.00     0.183 C 
HETATM    4  C   UNK N   1      33.825  16.742   7.218  0.00  0.00     0.204 C 
HETATM    5  C   UNK N   1      34.590  15.442   6.821  0.00  0.00     0.288 C 
HETATM    6  O   UNK N   1      35.274  14.762   7.882  0.00  0.00    -0.349 OA
ENDROOT
BRANCH   1   7
HETATM    7  C   UNK N   1      36.446  14.897   9.991  0.00  0.00     0.198 C 
BRANCH   7   8
HETATM    8  O   UNK N   1      37.164  15.814  10.763  0.00  0.00    -0.398 OA
HETATM    9  H   UNK N   1      37.717  16.160  11.480  0.00  0.00     0.209 HD
ENDBRANCH   7   8
ENDBRANCH   1   7
BRANCH   2  10
HETATM   10  O   UNK N   1      34.623  17.352  10.314  0.00  0.00    -0.390 OA
HETATM   11  H   UNK N   1      35.366  17.976  10.318  0.00  0.00     0.210 HD
ENDBRANCH   2  10
BRANCH   3  12
HETATM   12  O   UNK N   1      32.331  17.484   8.980  0.00  0.00    -0.390 OA
HETATM   13  H   UNK N   1      32.511  17.968   9.801  0.00  0.00     0.210 HD
ENDBRANCH   3  12
BRANCH   5  14
HETATM   14  O   UNK N   1      35.455  15.685   5.752  0.00  0.00    -0.369 OA
HETATM   15  H   UNK N   1      35.379  15.759   4.788  0.00  0.00     0.212 HD
ENDBRANCH   5  14
BRANCH   4  16
HETATM   16  O   UNK N   1      34.683  17.844   7.310  0.00  0.00    -0.388 OA
HETATM   17  H   UNK N   1      35.438  18.452   7.266  0.00  0.00     0.210 HD
ENDBRANCH   4  16
TORSDOF 6
ENDMDL
MODEL 9
REMARK VINA RESULT:      -4.7     12.915     14.742
REMARK  6 active torsions:
REMARK  status: ('A' for Active; 'I' for Inactive)
REMARK    1  A    between atoms: C_2  and  C_1 
REMARK    2  A    between atoms: O_7  and  C_1 
REMARK    3  A    between atoms: C_3  and  O_8 
REMARK    4  A    between atoms: C_4  and  O_9 
REMARK    5  A    between atoms: C_5  and  O_10 
REMARK    6  A    between atoms: O_11  and  C_6 
ROOT
HETATM    1  C   UNK N   1      32.999  15.874   8.497  0.00  0.00     0.179 C 
HETATM    2  C   UNK N   1      33.801  17.055   9.118  0.00  0.00     0.180 C 
HETATM    3  C   UNK N   1      33.874  18.253   8.141  0.00  0.00     0.183 C 
HETATM    4  C   UNK N   1      33.765  17.762   6.700  0.00  0.00     0.204 C 
HETATM    5  C   UNK N   1      32.357  17.102   6.577  0.00  0.00     0.288 C 
HETATM    6  O   UNK N   1      31.921  16.327   7.703  0.00  0.00    -0.349 OA
ENDROOT
BRANCH   1   7
HETATM    7  C   UNK N   1      32.504  14.915   9.575  0.00  0.00     0.198 C 
BRANCH   7   8
HETATM    8  O   UNK N   1      33.053  15.238  10.819  0.00  0.00    -0.398 OA
HETATM    9  H   UNK N   1      33.722  15.422  11.495  0.00  0.00     0.209 HD
ENDBRANCH   7   8
ENDBRANCH   1   7
BRANCH   2  10
HETATM   10  O   UNK N   1      35.081  16.588   9.434  0.00  0.00    -0.390 OA
HETATM   11  H   UNK N   1      35.995  16.882   9.296  0.00  0.00     0.210 HD
ENDBRANCH   2  10
BRANCH   3  12
HETATM   12  O   UNK N   1      35.029  19.011   8.351  0.00  0.00    -0.390 OA
HETATM   13  H   UNK N   1      34.959  19.921   8.682  0.00  0.00     0.210 HD
ENDBRANCH   3  12
BRANCH   5  14
HETATM   14  O   UNK N   1      32.261  16.357   5.400  0.00  0.00    -0.369 OA
HETATM   15  H   UNK N   1      32.736  15.615   4.996  0.00  0.00     0.212 HD
ENDBRANCH   5  14
BRANCH   4  16
HETATM   16  O   UNK N   1      34.792  16.855   6.416  0.00  0.00    -0.388 OA
HETATM   17  H   UNK N   1      35.630  16.369   6.377  0.00  0.00     0.210 HD
ENDBRANCH   4  16
TORSDOF 6
ENDMDL
