MODEL 1
REMARK VINA RESULT:      -4.5      0.000      0.000
REMARK  5 active torsions:
REMARK  status: ('A' for Active; 'I' for Inactive)
REMARK    1  A    between atoms: C_2  and  N_1 
REMARK    2  A    between atoms: C_2  and  C_3 
REMARK    3  A    between atoms: C_2  and  C_7 
REMARK    4  A    between atoms: C_3  and  C_4 
REMARK       I    between atoms: C_4  and  N_5 
REMARK    5  A    between atoms: C_7  and  O_8 
ROOT
HETATM    1  C   UNK N   1      34.758  15.040  11.202  0.00  0.00     0.182 C 
ENDROOT
BRANCH   1   2
HETATM    2  N   UNK N   1      33.362  15.127  10.791  0.00  0.00    -0.417 N 
HETATM    3  H   UNK N   1      32.641  15.350  11.478  0.00  0.00     0.150 HD
HETATM    4  H   UNK N   1      33.106  14.964   9.817  0.00  0.00     0.150 HD
ENDBRANCH   1   2
BRANCH   1   5
HETATM    5  C   UNK N   1      35.310  13.807  11.927  0.00  0.00     0.138 C 
BRANCH   5   6
HETATM    6  C   UNK N   1      35.628  13.892  13.393  0.00  0.00     0.217 C 
HETATM    7  N   UNK N   1      36.772  14.486  13.776  0.00  0.00    -0.370 N 
HETATM    8  H   UNK N   1      37.385  14.857  13.101  0.00  0.00     0.159 HD
HETATM    9  H   UNK N   1      36.996  14.550  14.733  0.00  0.00     0.159 HD
HETATM   10  O   UNK N   1      34.873  13.435  14.239  0.00  0.00    -0.274 OA
ENDBRANCH   5   6
ENDBRANCH   1   5
BRANCH   1  11
HETATM   11  C   UNK N   1      35.657  16.196  10.897  0.00  0.00     0.163 C 
HETATM   12  O   UNK N   1      35.168  17.281  10.604  0.00  0.00    -0.648 OA
BRANCH  11  13
HETATM   13  O   UNK N   1      36.992  16.061  10.940  0.00  0.00    -0.775 OA
HETATM   14  H   UNK N   1      37.523  16.759  11.270  0.00  0.00     0.167 HD
ENDBRANCH  11  13
ENDBRANCH   1  11
TORSDOF 5
ENDMDL
MODEL 2
REMARK VINA RESULT:      -4.4      4.607      5.553
REMARK  5 active torsions:
REMARK  status: ('A' for Active; 'I' for Inactive)
REMARK    1  A    between atoms: C_2  and  N_1 
REMARK    2  A    between atoms: C_2  and  C_3 
REMARK    3  A    between atoms: C_2  and  C_7 
REMARK    4  A    between atoms: C_3  and  C_4 
REMARK       I    between atoms: C_4  and  N_5 
REMARK    5  A    between atoms: C_7  and  O_8 
ROOT
HETATM    1  C   UNK N   1      34.153  17.234   9.081  0.00  0.00     0.182 C 
ENDROOT
BRANCH   1   2
HETATM    2  N   UNK N   1      34.834  17.107  10.363  0.00  0.00    -0.417 N 
HETATM    3  H   UNK N   1      35.592  16.433  10.474  0.00  0.00     0.150 HD
HETATM    4  H   UNK N   1      34.552  17.692  11.151  0.00  0.00     0.150 HD
ENDBRANCH   1   2
BRANCH   1   5
HETATM    5  C   UNK N   1      32.962  16.344   8.709  0.00  0.00     0.138 C 
BRANCH   5   6
HETATM    6  C   UNK N   1      31.640  16.977   8.381  0.00  0.00     0.217 C 
HETATM    7  N   UNK N   1      30.727  17.118   9.358  0.00  0.00    -0.370 N 
HETATM    8  H   UNK N   1      30.931  16.810  10.271  0.00  0.00     0.159 HD
HETATM    9  H   UNK N   1      29.855  17.531   9.160  0.00  0.00     0.159 HD
HETATM   10  O   UNK N   1      31.378  17.362   7.251  0.00  0.00    -0.274 OA
ENDBRANCH   5   6
ENDBRANCH   1   5
BRANCH   1  11
HETATM   11  C   UNK N   1      34.648  18.268   8.119  0.00  0.00     0.163 C 
HETATM   12  O   UNK N   1      35.282  19.229   8.538  0.00  0.00    -0.648 OA
BRANCH  11  13
HETATM   13  O   UNK N   1      34.406  18.155   6.803  0.00  0.00    -0.775 OA
HETATM   14  H   UNK N   1      33.544  17.944   6.502  0.00  0.00     0.167 HD
ENDBRANCH  11  13
ENDBRANCH   1  11
TORSDOF 5
ENDMDL
MODEL 3
REMARK VINA RESULT:      -4.3     12.875     13.632
REMARK  5 active torsions:
REMARK  status: ('A' for Active; 'I' for Inactive)
REMARK    1  A    between atoms: C_2  and  N_1 
REMARK    2  A    between atoms: C_2  and  C_3 
REMARK    3  A    between atoms: C_2  and  C_7 
REMARK    4  A    between atoms: C_3  and  C_4 
REMARK       I    between atoms: C_4  and  N_5 
REMARK    5  A    between atoms: C_7  and  O_8 
ROOT
HETATM    1  C   UNK N   1      21.362  12.403  10.879  0.00  0.00     0.182 C 
ENDROOT
BRANCH   1   2
HETATM    2  N   UNK N   1      20.526  11.837  11.932  0.00  0.00    -0.417 N 
HETATM    3  H   UNK N   1      19.538  12.084  11.986  0.00  0.00     0.150 HD
HETATM    4  H   UNK N   1      20.930  11.195  12.614  0.00  0.00     0.150 HD
ENDBRANCH   1   2
BRANCH   1   5
HETATM    5  C   UNK N   1      22.764  11.859  10.584  0.00  0.00     0.138 C 
BRANCH   5   6
HETATM    6  C   UNK N   1      23.873  12.098  11.568  0.00  0.00     0.217 C 
HETATM    7  N   UNK N   1      25.087  12.446  11.107  0.00  0.00    -0.370 N 
HETATM    8  H   UNK N   1      25.238  12.540  10.138  0.00  0.00     0.159 HD
HETATM    9  H   UNK N   1      25.826  12.607  11.738  0.00  0.00     0.159 HD
HETATM   10  O   UNK N   1      23.696  11.984  12.772  0.00  0.00    -0.274 OA
ENDBRANCH   5   6
ENDBRANCH   1   5
BRANCH   1  11
HETATM   11  C   UNK N   1      20.815  13.543  10.080  0.00  0.00     0.163 C 
HETATM   12  O   UNK N   1      19.603  13.661   9.946  0.00  0.00    -0.648 OA
BRANCH  11  13
HETATM   13  O   UNK N   1      21.636  14.439   9.509  0.00  0.00    -0.775 OA
HETATM   14  H   UNK N   1      22.233  14.932  10.038  0.00  0.00     0.167 HD
ENDBRANCH  11  13
ENDBRANCH   1  11
TORSDOF 5
ENDMDL
MODEL 4
REMARK VINA RESULT:      -4.3      3.009      4.048
REMARK  5 active torsions:
REMARK  status: ('A' for Active; 'I' for Inactive)
REMARK    1  A    between atoms: C_2  and  N_1 
REMARK    2  A    between atoms: C_2  and  C_3 
REMARK    3  A    between atoms: C_2  and  C_7 
REMARK    4  A    between atoms: C_3  and  C_4 
REMARK       I    between atoms: C_4  and  N_5 
REMARK    5  A    between atoms: C_7  and  O_8 
ROOT
HETATM    1  C   UNK N   1      33.495  17.295   8.675  0.00  0.00     0.182 C 
ENDROOT
BRANCH   1   2
HETATM    2  N   UNK N   1      32.085  17.629   8.840  0.00  0.00    -0.417 N 
HETATM    3  H   UNK N   1      31.518  17.124   9.521  0.00  0.00     0.150 HD
HETATM    4  H   UNK N   1      31.667  18.368   8.274  0.00  0.00     0.150 HD
ENDBRANCH   1   2
BRANCH   1   5
HETATM    5  C   UNK N   1      34.114  16.062   9.342  0.00  0.00     0.138 C 
BRANCH   5   6
HETATM    6  C   UNK N   1      35.379  16.208  10.138  0.00  0.00     0.217 C 
HETATM    7  N   UNK N   1      36.186  15.141  10.277  0.00  0.00    -0.370 N 
HETATM    8  H   UNK N   1      35.944  14.282   9.861  0.00  0.00     0.159 HD
HETATM    9  H   UNK N   1      37.019  15.219  10.796  0.00  0.00     0.159 HD
HETATM   10  O   UNK N   1      35.688  17.269  10.659  0.00  0.00    -0.274 OA
ENDBRANCH   5   6
ENDBRANCH   1   5
BRANCH   1  11
HETATM   11  C   UNK N   1      34.339  18.194   7.829  0.00  0.00     0.163 C 
HETATM   12  O   UNK N   1      34.376  18.024   6.615  0.00  0.00    -0.648 OA
BRANCH  11  13
HETATM   13  O   UNK N   1      35.056  19.186   8.381  0.00  0.00    -0.775 OA
HETATM   14  H   UNK N   1      35.958  19.296   8.151  0.00  0.00     0.167 HD
ENDBRANCH  11  13
ENDBRANCH   1  11
TORSDOF 5
ENDMDL
MODEL 5
REMARK VINA RESULT:      -4.2      4.204      4.662
REMARK  5 active torsions:
REMARK  status: ('A' for Active; 'I' for Inactive)
REMARK    1  A    between atoms: C_2  and  N_1 
REMARK    2  A    between atoms: C_2  and  C_3 
REMARK    3  A    between atoms: C_2  and  C_7 
REMARK    4  A    between atoms: C_3  and  C_4 
REMARK       I    between atoms: C_4  and  N_5 
REMARK    5  A    between atoms: C_7  and  O_8 
ROOT
HETATM    1  C   UNK N   1      34.583  17.032   9.145  0.00  0.00     0.182 C 
ENDROOT
BRANCH   1   2
HETATM    2  N   UNK N   1      34.986  17.210  10.535  0.00  0.00    -0.417 N 
HETATM    3  H   UNK N   1      35.919  16.929  10.836  0.00  0.00     0.150 HD
HETATM    4  H   UNK N   1      34.334  17.616  11.207  0.00  0.00     0.150 HD
ENDBRANCH   1   2
BRANCH   1   5
HETATM    5  C   UNK N   1      34.107  15.677   8.612  0.00  0.00     0.138 C 
BRANCH   5   6
HETATM    6  C   UNK N   1      32.671  15.274   8.793  0.00  0.00     0.217 C 
HETATM    7  N   UNK N   1      32.180  15.160  10.039  0.00  0.00    -0.370 N 
HETATM    8  H   UNK N   1      32.759  15.340  10.816  0.00  0.00     0.159 HD
HETATM    9  H   UNK N   1      31.241  14.897  10.176  0.00  0.00     0.159 HD
HETATM   10  O   UNK N   1      31.945  15.049   7.837  0.00  0.00    -0.274 OA
ENDBRANCH   5   6
ENDBRANCH   1   5
BRANCH   1  11
HETATM   11  C   UNK N   1      34.646  18.218   8.236  0.00  0.00     0.163 C 
HETATM   12  O   UNK N   1      34.047  18.192   7.167  0.00  0.00    -0.648 OA
BRANCH  11  13
HETATM   13  O   UNK N   1      35.349  19.309   8.576  0.00  0.00    -0.775 OA
HETATM   14  H   UNK N   1      34.907  20.120   8.739  0.00  0.00     0.167 HD
ENDBRANCH  11  13
ENDBRANCH   1  11
TORSDOF 5
ENDMDL
MODEL 6
REMARK VINA RESULT:      -4.1      1.413      4.015
REMARK  5 active torsions:
REMARK  status: ('A' for Active; 'I' for Inactive)
REMARK    1  A    between atoms: C_2  and  N_1 
REMARK    2  A    between atoms: C_2  and  C_3 
REMARK    3  A    between atoms: C_2  and  C_7 
REMARK    4  A    between atoms: C_3  and  C_4 
REMARK       I    between atoms: C_4  and  N_5 
REMARK    5  A    between atoms: C_7  and  O_8 
ROOT
HETATM    1  C   UNK N   1      36.211  14.090  12.461  0.00  0.00     0.182 C 
ENDROOT
BRANCH   1   2
HETATM    2  N   UNK N   1      37.389  13.533  11.807  0.00  0.00    -0.417 N 
HETATM    3  H   UNK N   1      38.302  13.965  11.947  0.00  0.00     0.150 HD
HETATM    4  H   UNK N   1      37.299  12.711  11.210  0.00  0.00     0.150 HD
ENDBRANCH   1   2
BRANCH   1   5
HETATM    5  C   UNK N   1      35.156  14.883  11.682  0.00  0.00     0.138 C 
BRANCH   5   6
HETATM    6  C   UNK N   1      35.569  16.100  10.905  0.00  0.00     0.217 C 
HETATM    7  N   UNK N   1      34.617  16.928  10.440  0.00  0.00    -0.370 N 
HETATM    8  H   UNK N   1      33.667  16.733  10.611  0.00  0.00     0.159 HD
HETATM    9  H   UNK N   1      34.870  17.731   9.929  0.00  0.00     0.159 HD
HETATM   10  O   UNK N   1      36.745  16.352  10.689  0.00  0.00    -0.274 OA
ENDBRANCH   5   6
ENDBRANCH   1   5
BRANCH   1  11
HETATM   11  C   UNK N   1      36.050  13.869  13.932  0.00  0.00     0.163 C 
HETATM   12  O   UNK N   1      34.974  13.480  14.371  0.00  0.00    -0.648 OA
BRANCH  11  13
HETATM   13  O   UNK N   1      37.070  14.092  14.776  0.00  0.00    -0.775 OA
HETATM   14  H   UNK N   1      36.917  14.111  15.701  0.00  0.00     0.167 HD
ENDBRANCH  11  13
ENDBRANCH   1  11
TORSDOF 5
ENDMDL
MODEL 7
REMARK VINA RESULT:      -4.0     17.286     18.403
REMARK  5 active torsions:
REMARK  status: ('A' for Active; 'I' for Inactive)
REMARK    1  A    between atoms: C_2  and  N_1 
REMARK    2  A    between atoms: C_2  and  C_3 
REMARK    3  A    between atoms: C_2  and  C_7 
REMARK    4  A    between atoms: C_3  and  C_4 
REMARK       I    between atoms: C_4  and  N_5 
REMARK    5  A    between atoms: C_7  and  O_8 
ROOT
HETATM    1  C   UNK N   1      20.343  18.488   2.163  0.00  0.00     0.182 C 
ENDROOT
BRANCH   1   2
HETATM    2  N   UNK N   1      19.163  17.898   2.785  0.00  0.00    -0.417 N 
HETATM    3  H   UNK N   1      18.265  18.379   2.732  0.00  0.00     0.150 HD
HETATM    4  H   UNK N   1      19.236  17.005   3.273  0.00  0.00     0.150 HD
ENDBRANCH   1   2
BRANCH   1   5
HETATM    5  C   UNK N   1      21.474  19.098   2.998  0.00  0.00     0.138 C 
BRANCH   5   6
HETATM    6  C   UNK N   1      21.843  20.541   2.802  0.00  0.00     0.217 C 
HETATM    7  N   UNK N   1      20.871  21.428   2.525  0.00  0.00    -0.370 N 
HETATM    8  H   UNK N   1      19.936  21.128   2.454  0.00  0.00     0.159 HD
HETATM    9  H   UNK N   1      21.095  22.377   2.394  0.00  0.00     0.159 HD
HETATM   10  O   UNK N   1      23.000  20.922   2.888  0.00  0.00    -0.274 OA
ENDBRANCH   5   6
ENDBRANCH   1   5
BRANCH   1  11
HETATM   11  C   UNK N   1      20.429  18.485   0.669  0.00  0.00     0.163 C 
HETATM   12  O   UNK N   1      20.371  17.422   0.062  0.00  0.00    -0.648 OA
BRANCH  11  13
HETATM   13  O   UNK N   1      20.568  19.632  -0.014  0.00  0.00    -0.775 OA
HETATM   14  H   UNK N   1      20.622  19.617  -0.950  0.00  0.00     0.167 HD
ENDBRANCH  11  13
ENDBRANCH   1  11
TORSDOF 5
ENDMDL
MODEL 8
REMARK VINA RESULT:      -4.0     17.568     18.462
REMARK  5 active torsions:
REMARK  status: ('A' for Active; 'I' for Inactive)
REMARK    1  A    between atoms: C_2  and  N_1 
REMARK    2  A    between atoms: C_2  and  C_3 
REMARK    3  A    between atoms: C_2  and  C_7 
REMARK    4  A    between atoms: C_3  and  C_4 
REMARK       I    between atoms: C_4  and  N_5 
REMARK    5  A    between atoms: C_7  and  O_8 
ROOT
HETATM    1  C   UNK N   1      21.026  19.160   2.497  0.00  0.00     0.182 C 
ENDROOT
BRANCH   1   2
HETATM    2  N   UNK N   1      21.948  18.676   3.517  0.00  0.00    -0.417 N 
HETATM    3  H   UNK N   1      22.909  18.442   3.266  0.00  0.00     0.150 HD
HETATM    4  H   UNK N   1      21.632  18.571   4.482  0.00  0.00     0.150 HD
ENDBRANCH   1   2
BRANCH   1   5
HETATM    5  C   UNK N   1      19.802  18.345   2.065  0.00  0.00     0.138 C 
BRANCH   5   6
HETATM    6  C   UNK N   1      19.968  17.230   1.072  0.00  0.00     0.217 C 
HETATM    7  N   UNK N   1      19.647  15.978   1.442  0.00  0.00    -0.370 N 
HETATM    8  H   UNK N   1      19.308  15.803   2.351  0.00  0.00     0.159 HD
HETATM    9  H   UNK N   1      19.749  15.235   0.804  0.00  0.00     0.159 HD
HETATM   10  O   UNK N   1      20.386  17.436  -0.057  0.00  0.00    -0.274 OA
ENDBRANCH   5   6
ENDBRANCH   1   5
BRANCH   1  11
HETATM   11  C   UNK N   1      21.302  20.490   1.870  0.00  0.00     0.163 C 
HETATM   12  O   UNK N   1      21.298  20.596   0.649  0.00  0.00    -0.648 OA
BRANCH  11  13
HETATM   13  O   UNK N   1      21.555  21.568   2.629  0.00  0.00    -0.775 OA
HETATM   14  H   UNK N   1      22.069  22.273   2.285  0.00  0.00     0.167 HD
ENDBRANCH  11  13
ENDBRANCH   1  11
TORSDOF 5
ENDMDL
MODEL 9
REMARK VINA RESULT:      -4.0     16.589     17.838
REMARK  5 active torsions:
REMARK  status: ('A' for Active; 'I' for Inactive)
REMARK    1  A    between atoms: C_2  and  N_1 
REMARK    2  A    between atoms: C_2  and  C_3 
REMARK    3  A    between atoms: C_2  and  C_7 
REMARK    4  A    between atoms: C_3  and  C_4 
REMARK       I    between atoms: C_4  and  N_5 
REMARK    5  A    between atoms: C_7  and  O_8 
ROOT
HETATM    1  C   UNK N   1      20.197  19.473   2.511  0.00  0.00     0.182 C 
ENDROOT
BRANCH   1   2
HETATM    2  N   UNK N   1      18.950  18.726   2.391  0.00  0.00    -0.417 N 
HETATM    3  H   UNK N   1      18.682  18.061   3.116  0.00  0.00     0.150 HD
HETATM    4  H   UNK N   1      18.346  18.869   1.581  0.00  0.00     0.150 HD
ENDBRANCH   1   2
BRANCH   1   5
HETATM    5  C   UNK N   1      21.025  19.455   3.800  0.00  0.00     0.138 C 
BRANCH   5   6
HETATM    6  C   UNK N   1      21.069  18.207   4.634  0.00  0.00     0.217 C 
HETATM    7  N   UNK N   1      21.446  18.299   5.921  0.00  0.00    -0.370 N 
HETATM    8  H   UNK N   1      21.689  19.174   6.303  0.00  0.00     0.159 HD
HETATM    9  H   UNK N   1      21.481  17.491   6.483  0.00  0.00     0.159 HD
HETATM   10  O   UNK N   1      20.770  17.117   4.171  0.00  0.00    -0.274 OA
ENDBRANCH   5   6
ENDBRANCH   1   5
BRANCH   1  11
HETATM   11  C   UNK N   1      20.658  20.270   1.332  0.00  0.00     0.163 C 
HETATM   12  O   UNK N   1      21.075  21.410   1.498  0.00  0.00    -0.648 OA
BRANCH  11  13
HETATM   13  O   UNK N   1      20.620  19.751   0.094  0.00  0.00    -0.775 OA
HETATM   14  H   UNK N   1      19.986  19.095  -0.120  0.00  0.00     0.167 HD
ENDBRANCH  11  13
ENDBRANCH   1  11
TORSDOF 5
ENDMDL
