MODEL 1
REMARK VINA RESULT:      -4.1      0.000      0.000
REMARK  6 active torsions:
REMARK  status: ('A' for Active; 'I' for Inactive)
REMARK    1  A    between atoms: N_2  and  C_5 
REMARK    2  A    between atoms: C_5  and  C_6 
REMARK    3  A    between atoms: C_6  and  O_7 
REMARK    4  A    between atoms: O_7  and  P_8 
REMARK    5  A    between atoms: P_8  and  O_9 
REMARK    6  A    between atoms: P_8  and  O_10 
ROOT
HETATM    1  O   UNK N   1      34.533  18.071   6.795  0.00  0.00    -0.295 OA
ENDROOT
BRANCH   1   2
HETATM    2  C   UNK N   1      34.044  16.988   6.056  0.00  0.00     0.208 C 
BRANCH   2   3
HETATM    3  C   UNK N   1      33.095  17.513   4.978  0.00  0.00     0.262 C 
BRANCH   3   4
HETATM    4  N   UNK N   1      31.970  16.613   4.708  0.00  0.00    -0.077 N 
HETATM    5  C   UNK N   1      30.748  17.399   4.738  0.00  0.00     0.271 C 
HETATM    6  C   UNK N   1      31.868  15.573   5.718  0.00  0.00     0.271 C 
HETATM    7  C   UNK N   1      32.089  16.012   3.390  0.00  0.00     0.271 C 
ENDBRANCH   3   4
ENDBRANCH   2   3
ENDBRANCH   1   2
BRANCH   1   8
HETATM    8  P   UNK N   1      34.046  17.770   8.437  0.00  0.00     0.390 P 
HETATM    9  O   UNK N   1      34.754  16.435   8.080  0.00  0.00    -0.632 OA
BRANCH   8  10
HETATM   10  O   UNK N   1      35.239  17.626   9.690  0.00  0.00    -0.307 OA
HETATM   11  H   UNK N   1      36.192  17.746   9.552  0.00  0.00     0.222 HD
ENDBRANCH   8  10
BRANCH   8  12
HETATM   12  O   UNK N   1      35.190  19.075   8.368  0.00  0.00    -0.307 OA
HETATM   13  H   UNK N   1      36.132  19.045   8.598  0.00  0.00     0.222 HD
ENDBRANCH   8  12
ENDBRANCH   1   8
TORSDOF 6
ENDMDL
MODEL 2
REMARK VINA RESULT:      -4.1      4.786      6.012
REMARK  6 active torsions:
REMARK  status: ('A' for Active; 'I' for Inactive)
REMARK    1  A    between atoms: N_2  and  C_5 
REMARK    2  A    between atoms: C_5  and  C_6 
REMARK    3  A    between atoms: C_6  and  O_7 
REMARK    4  A    between atoms: O_7  and  P_8 
REMARK    5  A    between atoms: P_8  and  O_9 
REMARK    6  A    between atoms: P_8  and  O_10 
ROOT
HETATM    1  O   UNK N   1      35.234  17.559   9.651  0.00  0.00    -0.295 OA
ENDROOT
BRANCH   1   2
HETATM    2  C   UNK N   1      35.164  16.182   9.885  0.00  0.00     0.208 C 
BRANCH   2   3
HETATM    3  C   UNK N   1      36.138  15.821  11.007  0.00  0.00     0.262 C 
BRANCH   3   4
HETATM    4  N   UNK N   1      35.980  14.446  11.491  0.00  0.00    -0.077 N 
HETATM    5  C   UNK N   1      36.017  14.473  12.943  0.00  0.00     0.271 C 
HETATM    6  C   UNK N   1      37.059  13.591  11.024  0.00  0.00     0.271 C 
HETATM    7  C   UNK N   1      34.699  13.894  11.081  0.00  0.00     0.271 C 
ENDBRANCH   3   4
ENDBRANCH   2   3
ENDBRANCH   1   2
BRANCH   1   8
HETATM    8  P   UNK N   1      34.072  17.877   8.396  0.00  0.00     0.390 P 
HETATM    9  O   UNK N   1      34.995  19.121   8.280  0.00  0.00    -0.632 OA
BRANCH   8  10
HETATM   10  O   UNK N   1      34.555  17.837   6.729  0.00  0.00    -0.307 OA
HETATM   11  H   UNK N   1      34.035  18.211   6.002  0.00  0.00     0.222 HD
ENDBRANCH   8  10
BRANCH   8  12
HETATM   12  O   UNK N   1      34.981  16.440   8.039  0.00  0.00    -0.307 OA
HETATM   13  H   UNK N   1      34.758  15.747   7.398  0.00  0.00     0.222 HD
ENDBRANCH   8  12
ENDBRANCH   1   8
TORSDOF 6
ENDMDL
MODEL 3
REMARK VINA RESULT:      -4.0     11.637     12.499
REMARK  6 active torsions:
REMARK  status: ('A' for Active; 'I' for Inactive)
REMARK    1  A    between atoms: N_2  and  C_5 
REMARK    2  A    between atoms: C_5  and  C_6 
REMARK    3  A    between atoms: C_6  and  O_7 
REMARK    4  A    between atoms: O_7  and  P_8 
REMARK    5  A    between atoms: P_8  and  O_9 
REMARK    6  A    between atoms: P_8  and  O_10 
ROOT
HETATM    1  O   UNK N   1      43.954  24.127   3.506  0.00  0.00    -0.295 OA
ENDROOT
BRANCH   1   2
HETATM    2  C   UNK N   1      43.516  22.801   3.435  0.00  0.00     0.208 C 
BRANCH   2   3
HETATM    3  C   UNK N   1      42.282  22.735   2.534  0.00  0.00     0.262 C 
BRANCH   3   4
HETATM    4  N   UNK N   1      41.798  21.369   2.313  0.00  0.00    -0.077 N 
HETATM    5  C   UNK N   1      42.273  20.541   3.409  0.00  0.00     0.271 C 
HETATM    6  C   UNK N   1      42.311  20.818   1.070  0.00  0.00     0.271 C 
HETATM    7  C   UNK N   1      40.345  21.326   2.310  0.00  0.00     0.271 C 
ENDBRANCH   3   4
ENDBRANCH   2   3
ENDBRANCH   1   2
BRANCH   1   8
HETATM    8  P   UNK N   1      45.119  24.301   2.226  0.00  0.00     0.390 P 
HETATM    9  O   UNK N   1      45.091  25.740   2.809  0.00  0.00    -0.632 OA
BRANCH   8  10
HETATM   10  O   UNK N   1      46.789  24.593   2.599  0.00  0.00    -0.307 OA
HETATM   11  H   UNK N   1      47.520  24.025   2.310  0.00  0.00     0.222 HD
ENDBRANCH   8  10
BRANCH   8  12
HETATM   12  O   UNK N   1      45.697  23.193   3.432  0.00  0.00    -0.307 OA
HETATM   13  H   UNK N   1      46.260  23.394   4.196  0.00  0.00     0.222 HD
ENDBRANCH   8  12
ENDBRANCH   1   8
TORSDOF 6
ENDMDL
MODEL 4
REMARK VINA RESULT:      -3.9     11.816     12.812
REMARK  6 active torsions:
REMARK  status: ('A' for Active; 'I' for Inactive)
REMARK    1  A    between atoms: N_2  and  C_5 
REMARK    2  A    between atoms: C_5  and  C_6 
REMARK    3  A    between atoms: C_6  and  O_7 
REMARK    4  A    between atoms: O_7  and  P_8 
REMARK    5  A    between atoms: P_8  and  O_9 
REMARK    6  A    between atoms: P_8  and  O_10 
ROOT
HETATM    1  O   UNK N   1      29.677  22.226  -3.282  0.00  0.00    -0.295 OA
ENDROOT
BRANCH   1   2
HETATM    2  C   UNK N   1      29.257  23.292  -4.085  0.00  0.00     0.208 C 
BRANCH   2   3
HETATM    3  C   UNK N   1      28.082  23.993  -3.402  0.00  0.00     0.262 C 
BRANCH   3   4
HETATM    4  N   UNK N   1      27.291  24.822  -4.316  0.00  0.00    -0.077 N 
HETATM    5  C   UNK N   1      26.648  25.865  -3.535  0.00  0.00     0.271 C 
HETATM    6  C   UNK N   1      26.255  24.045  -4.977  0.00  0.00     0.271 C 
HETATM    7  C   UNK N   1      28.141  25.457  -5.309  0.00  0.00     0.271 C 
ENDBRANCH   3   4
ENDBRANCH   2   3
ENDBRANCH   1   2
BRANCH   1   8
HETATM    8  P   UNK N   1      31.401  22.407  -3.136  0.00  0.00     0.390 P 
HETATM    9  O   UNK N   1      30.928  22.841  -1.722  0.00  0.00    -0.632 OA
BRANCH   8  10
HETATM   10  O   UNK N   1      32.304  21.353  -2.093  0.00  0.00    -0.307 OA
HETATM   11  H   UNK N   1      32.937  20.688  -2.405  0.00  0.00     0.222 HD
ENDBRANCH   8  10
BRANCH   8  12
HETATM   12  O   UNK N   1      30.981  20.743  -3.407  0.00  0.00    -0.307 OA
HETATM   13  H   UNK N   1      31.586  20.000  -3.559  0.00  0.00     0.222 HD
ENDBRANCH   8  12
ENDBRANCH   1   8
TORSDOF 6
ENDMDL
MODEL 5
REMARK VINA RESULT:      -3.9     12.773     13.766
REMARK  6 active torsions:
REMARK  status: ('A' for Active; 'I' for Inactive)
REMARK    1  A    between atoms: N_2  and  C_5 
REMARK    2  A    between atoms: C_5  and  C_6 
REMARK    3  A    between atoms: C_6  and  O_7 
REMARK    4  A    between atoms: O_7  and  P_8 
REMARK    5  A    between atoms: P_8  and  O_9 
REMARK    6  A    between atoms: P_8  and  O_10 
ROOT
HETATM    1  O   UNK N   1      19.589  19.548   2.731  0.00  0.00    -0.295 OA
ENDROOT
BRANCH   1   2
HETATM    2  C   UNK N   1      19.593  18.224   2.281  0.00  0.00     0.208 C 
BRANCH   2   3
HETATM    3  C   UNK N   1      20.034  17.313   3.428  0.00  0.00     0.262 C 
BRANCH   3   4
HETATM    4  N   UNK N   1      20.574  16.029   2.973  0.00  0.00    -0.077 N 
HETATM    5  C   UNK N   1      19.692  14.977   3.450  0.00  0.00     0.271 C 
HETATM    6  C   UNK N   1      21.902  15.790   3.514  0.00  0.00     0.271 C 
HETATM    7  C   UNK N   1      20.612  15.965   1.521  0.00  0.00     0.271 C 
ENDBRANCH   3   4
ENDBRANCH   2   3
ENDBRANCH   1   2
BRANCH   1   8
HETATM    8  P   UNK N   1      21.263  19.994   2.879  0.00  0.00     0.390 P 
HETATM    9  O   UNK N   1      21.016  20.237   1.365  0.00  0.00    -0.632 OA
BRANCH   8  10
HETATM   10  O   UNK N   1      21.748  21.649   2.675  0.00  0.00    -0.307 OA
HETATM   11  H   UNK N   1      22.656  21.969   2.786  0.00  0.00     0.222 HD
ENDBRANCH   8  10
BRANCH   8  12
HETATM   12  O   UNK N   1      20.262  21.063   3.813  0.00  0.00    -0.307 OA
HETATM   13  H   UNK N   1      20.545  21.685   4.500  0.00  0.00     0.222 HD
ENDBRANCH   8  12
ENDBRANCH   1   8
TORSDOF 6
ENDMDL
MODEL 6
REMARK VINA RESULT:      -3.9     12.273     13.213
REMARK  6 active torsions:
REMARK  status: ('A' for Active; 'I' for Inactive)
REMARK    1  A    between atoms: N_2  and  C_5 
REMARK    2  A    between atoms: C_5  and  C_6 
REMARK    3  A    between atoms: C_6  and  O_7 
REMARK    4  A    between atoms: O_7  and  P_8 
REMARK    5  A    between atoms: P_8  and  O_9 
REMARK    6  A    between atoms: P_8  and  O_10 
ROOT
HETATM    1  O   UNK N   1      21.189  18.897   2.275  0.00  0.00    -0.295 OA
ENDROOT
BRANCH   1   2
HETATM    2  C   UNK N   1      21.793  19.199   3.499  0.00  0.00     0.208 C 
BRANCH   2   3
HETATM    3  C   UNK N   1      22.544  17.963   3.998  0.00  0.00     0.262 C 
BRANCH   3   4
HETATM    4  N   UNK N   1      21.902  17.321   5.149  0.00  0.00    -0.077 N 
HETATM    5  C   UNK N   1      22.901  16.516   5.830  0.00  0.00     0.271 C 
HETATM    6  C   UNK N   1      20.819  16.446   4.733  0.00  0.00     0.271 C 
HETATM    7  C   UNK N   1      21.403  18.313   6.087  0.00  0.00     0.271 C 
ENDBRANCH   3   4
ENDBRANCH   2   3
ENDBRANCH   1   2
BRANCH   1   8
HETATM    8  P   UNK N   1      20.655  20.422   1.631  0.00  0.00     0.390 P 
HETATM    9  O   UNK N   1      22.175  20.685   1.818  0.00  0.00    -0.632 OA
BRANCH   8  10
HETATM   10  O   UNK N   1      21.152  20.923   0.045  0.00  0.00    -0.307 OA
HETATM   11  H   UNK N   1      22.072  21.082  -0.214  0.00  0.00     0.222 HD
ENDBRANCH   8  10
BRANCH   8  12
HETATM   12  O   UNK N   1      20.420  19.153   0.469  0.00  0.00    -0.307 OA
HETATM   13  H   UNK N   1      19.955  18.313   0.601  0.00  0.00     0.222 HD
ENDBRANCH   8  12
ENDBRANCH   1   8
TORSDOF 6
ENDMDL
MODEL 7
REMARK VINA RESULT:      -3.8     12.608     13.317
REMARK  6 active torsions:
REMARK  status: ('A' for Active; 'I' for Inactive)
REMARK    1  A    between atoms: N_2  and  C_5 
REMARK    2  A    between atoms: C_5  and  C_6 
REMARK    3  A    between atoms: C_6  and  O_7 
REMARK    4  A    between atoms: O_7  and  P_8 
REMARK    5  A    between atoms: P_8  and  O_9 
REMARK    6  A    between atoms: P_8  and  O_10 
ROOT
HETATM    1  O   UNK N   1      20.570  13.202   8.432  0.00  0.00    -0.295 OA
ENDROOT
BRANCH   1   2
HETATM    2  C   UNK N   1      21.885  13.033   7.987  0.00  0.00     0.208 C 
BRANCH   2   3
HETATM    3  C   UNK N   1      22.842  13.487   9.091  0.00  0.00     0.262 C 
BRANCH   3   4
HETATM    4  N   UNK N   1      23.467  12.373   9.810  0.00  0.00    -0.077 N 
HETATM    5  C   UNK N   1      23.504  11.227   8.919  0.00  0.00     0.271 C 
HETATM    6  C   UNK N   1      22.701  12.008  10.991  0.00  0.00     0.271 C 
HETATM    7  C   UNK N   1      24.833  12.698  10.188  0.00  0.00     0.271 C 
ENDBRANCH   3   4
ENDBRANCH   2   3
ENDBRANCH   1   2
BRANCH   1   8
HETATM    8  P   UNK N   1      20.466  14.857   8.958  0.00  0.00     0.390 P 
HETATM    9  O   UNK N   1      19.867  14.954   7.529  0.00  0.00    -0.632 OA
BRANCH   8  10
HETATM   10  O   UNK N   1      18.918  15.587   9.245  0.00  0.00    -0.307 OA
HETATM   11  H   UNK N   1      18.319  15.333   9.964  0.00  0.00     0.222 HD
ENDBRANCH   8  10
BRANCH   8  12
HETATM   12  O   UNK N   1      19.463  13.837   9.944  0.00  0.00    -0.307 OA
HETATM   13  H   UNK N   1      18.520  13.646   9.824  0.00  0.00     0.222 HD
ENDBRANCH   8  12
ENDBRANCH   1   8
TORSDOF 6
ENDMDL
MODEL 8
REMARK VINA RESULT:      -3.8      3.415      4.230
REMARK  6 active torsions:
REMARK  status: ('A' for Active; 'I' for Inactive)
REMARK    1  A    between atoms: N_2  and  C_5 
REMARK    2  A    between atoms: C_5  and  C_6 
REMARK    3  A    between atoms: C_6  and  O_7 
REMARK    4  A    between atoms: O_7  and  P_8 
REMARK    5  A    between atoms: P_8  and  O_9 
REMARK    6  A    between atoms: P_8  and  O_10 
ROOT
HETATM    1  O   UNK N   1      34.919  16.063  10.842  0.00  0.00    -0.295 OA
ENDROOT
BRANCH   1   2
HETATM    2  C   UNK N   1      35.048  16.155   9.452  0.00  0.00     0.208 C 
BRANCH   2   3
HETATM    3  C   UNK N   1      34.272  17.379   8.963  0.00  0.00     0.262 C 
BRANCH   3   4
HETATM    4  N   UNK N   1      33.261  17.058   7.952  0.00  0.00    -0.077 N 
HETATM    5  C   UNK N   1      32.002  17.650   8.371  0.00  0.00     0.271 C 
HETATM    6  C   UNK N   1      33.070  15.623   7.828  0.00  0.00     0.271 C 
HETATM    7  C   UNK N   1      33.619  17.622   6.661  0.00  0.00     0.271 C 
ENDBRANCH   3   4
ENDBRANCH   2   3
ENDBRANCH   1   2
BRANCH   1   8
HETATM    8  P   UNK N   1      35.158  14.382  11.220  0.00  0.00     0.390 P 
HETATM    9  O   UNK N   1      35.926  15.068  12.382  0.00  0.00    -0.632 OA
BRANCH   8  10
HETATM   10  O   UNK N   1      34.414  13.689  12.627  0.00  0.00    -0.307 OA
HETATM   11  H   UNK N   1      34.560  12.779  12.929  0.00  0.00     0.222 HD
ENDBRANCH   8  10
BRANCH   8  12
HETATM   12  O   UNK N   1      33.473  14.795  11.309  0.00  0.00    -0.307 OA
HETATM   13  H   UNK N   1      32.795  14.654  10.629  0.00  0.00     0.222 HD
ENDBRANCH   8  12
ENDBRANCH   1   8
TORSDOF 6
ENDMDL
MODEL 9
REMARK VINA RESULT:      -3.8      7.465      8.557
REMARK  6 active torsions:
REMARK  status: ('A' for Active; 'I' for Inactive)
REMARK    1  A    between atoms: N_2  and  C_5 
REMARK    2  A    between atoms: C_5  and  C_6 
REMARK    3  A    between atoms: C_6  and  O_7 
REMARK    4  A    between atoms: O_7  and  P_8 
REMARK    5  A    between atoms: P_8  and  O_9 
REMARK    6  A    between atoms: P_8  and  O_10 
ROOT
HETATM    1  O   UNK N   1      36.285  14.342  11.439  0.00  0.00    -0.295 OA
ENDROOT
BRANCH   1   2
HETATM    2  C   UNK N   1      35.489  14.207  12.581  0.00  0.00     0.208 C 
BRANCH   2   3
HETATM    3  C   UNK N   1      36.397  14.072  13.804  0.00  0.00     0.262 C 
BRANCH   3   4
HETATM    4  N   UNK N   1      36.064  12.920  14.648  0.00  0.00    -0.077 N 
HETATM    5  C   UNK N   1      37.193  12.005  14.625  0.00  0.00     0.271 C 
HETATM    6  C   UNK N   1      34.896  12.215  14.148  0.00  0.00     0.271 C 
HETATM    7  C   UNK N   1      35.842  13.331  16.025  0.00  0.00     0.271 C 
ENDBRANCH   3   4
ENDBRANCH   2   3
ENDBRANCH   1   2
BRANCH   1   8
HETATM    8  P   UNK N   1      35.365  15.333  10.345  0.00  0.00     0.390 P 
HETATM    9  O   UNK N   1      34.341  15.112  11.491  0.00  0.00    -0.632 OA
BRANCH   8  10
HETATM   10  O   UNK N   1      34.935  16.955  10.789  0.00  0.00    -0.307 OA
HETATM   11  H   UNK N   1      35.236  17.748  10.319  0.00  0.00     0.222 HD
ENDBRANCH   8  10
BRANCH   8  12
HETATM   12  O   UNK N   1      36.740  16.205  10.951  0.00  0.00    -0.307 OA
HETATM   13  H   UNK N   1      37.197  16.950  10.530  0.00  0.00     0.222 HD
ENDBRANCH   8  12
ENDBRANCH   1   8
TORSDOF 6
ENDMDL
