MODEL 1
REMARK VINA RESULT:      -4.0      0.000      0.000
REMARK  3 active torsions:
REMARK  status: ('A' for Active; 'I' for Inactive)
REMARK    1  A    between atoms: N_2  and  C_3 
REMARK    2  A    between atoms: C_3  and  C_5 
REMARK    3  A    between atoms: C_5  and  O_6 
ROOT
HETATM    1  C   UNK N   1      34.531  17.068   9.105  0.00  0.00     0.092 C 
HETATM    2  C   UNK N   1      33.974  15.940   8.665  0.00  0.00     0.050 C 
ENDROOT
BRANCH   1   3
HETATM    3  N   UNK N   1      34.919  17.141  10.473  0.00  0.00    -0.390 N 
HETATM    4  C   UNK N   1      35.484  16.036  11.203  0.00  0.00     0.146 C 
HETATM    5  H   UNK N   1      34.793  17.996  10.947  0.00  0.00     0.159 HD
ENDBRANCH   1   3
BRANCH   1   6
HETATM    6  C   UNK N   1      34.723  18.199   8.154  0.00  0.00     0.192 C 
HETATM    7  O   UNK N   1      34.325  18.124   7.003  0.00  0.00    -0.645 OA
BRANCH   6   8
HETATM    8  O   UNK N   1      35.344  19.325   8.562  0.00  0.00    -0.772 OA
HETATM    9  H   UNK N   1      35.210  19.646   9.432  0.00  0.00     0.167 HD
ENDBRANCH   6   8
ENDBRANCH   1   6
TORSDOF 3
ENDMDL
MODEL 2
REMARK VINA RESULT:      -3.8     15.623     16.323
REMARK  3 active torsions:
REMARK  status: ('A' for Active; 'I' for Inactive)
REMARK    1  A    between atoms: N_2  and  C_3 
REMARK    2  A    between atoms: C_3  and  C_5 
REMARK    3  A    between atoms: C_5  and  O_6 
ROOT
HETATM    1  C   UNK N   1      20.566  19.099   1.924  0.00  0.00     0.092 C 
HETATM    2  C   UNK N   1      21.152  18.830   3.091  0.00  0.00     0.050 C 
ENDROOT
BRANCH   1   3
HETATM    3  N   UNK N   1      19.655  18.143   1.391  0.00  0.00    -0.390 N 
HETATM    4  C   UNK N   1      20.051  17.045   0.548  0.00  0.00     0.146 C 
HETATM    5  H   UNK N   1      18.700  18.238   1.612  0.00  0.00     0.159 HD
ENDBRANCH   1   3
BRANCH   1   6
HETATM    6  C   UNK N   1      20.886  20.378   1.231  0.00  0.00     0.192 C 
HETATM    7  O   UNK N   1      21.395  21.308   1.836  0.00  0.00    -0.645 OA
BRANCH   6   8
HETATM    8  O   UNK N   1      20.613  20.521  -0.082  0.00  0.00    -0.772 OA
HETATM    9  H   UNK N   1      20.660  19.780  -0.653  0.00  0.00     0.167 HD
ENDBRANCH   6   8
ENDBRANCH   1   6
TORSDOF 3
ENDMDL
MODEL 3
REMARK VINA RESULT:      -3.8     12.242     12.917
REMARK  3 active torsions:
REMARK  status: ('A' for Active; 'I' for Inactive)
REMARK    1  A    between atoms: N_2  and  C_3 
REMARK    2  A    between atoms: C_3  and  C_5 
REMARK    3  A    between atoms: C_5  and  O_6 
ROOT
HETATM    1  C   UNK N   1      23.211  11.935  11.641  0.00  0.00     0.092 C 
HETATM    2  C   UNK N   1      23.242  11.929  12.973  0.00  0.00     0.050 C 
ENDROOT
BRANCH   1   3
HETATM    3  N   UNK N   1      21.982  11.622  10.993  0.00  0.00    -0.390 N 
HETATM    4  C   UNK N   1      20.952  12.590  10.722  0.00  0.00     0.146 C 
HETATM    5  H   UNK N   1      21.829  10.689  10.714  0.00  0.00     0.159 HD
ENDBRANCH   1   3
BRANCH   1   6
HETATM    6  C   UNK N   1      24.454  12.267  10.889  0.00  0.00     0.192 C 
HETATM    7  O   UNK N   1      24.570  11.975   9.710  0.00  0.00    -0.645 OA
BRANCH   6   8
HETATM    8  O   UNK N   1      25.470  12.898  11.511  0.00  0.00    -0.772 OA
HETATM    9  H   UNK N   1      25.346  13.256  12.368  0.00  0.00     0.167 HD
ENDBRANCH   6   8
ENDBRANCH   1   6
TORSDOF 3
ENDMDL
MODEL 4
REMARK VINA RESULT:      -3.8      1.593      2.288
REMARK  3 active torsions:
REMARK  status: ('A' for Active; 'I' for Inactive)
REMARK    1  A    between atoms: N_2  and  C_3 
REMARK    2  A    between atoms: C_3  and  C_5 
REMARK    3  A    between atoms: C_5  and  O_6 
ROOT
HETATM    1  C   UNK N   1      33.732  17.337   8.835  0.00  0.00     0.092 C 
HETATM    2  C   UNK N   1      34.391  16.411   9.530  0.00  0.00     0.050 C 
ENDROOT
BRANCH   1   3
HETATM    3  N   UNK N   1      32.314  17.394   8.961  0.00  0.00    -0.390 N 
HETATM    4  C   UNK N   1      31.414  16.507   8.272  0.00  0.00     0.146 C 
HETATM    5  H   UNK N   1      31.928  18.079   9.554  0.00  0.00     0.159 HD
ENDBRANCH   1   3
BRANCH   1   6
HETATM    6  C   UNK N   1      34.498  18.269   7.961  0.00  0.00     0.192 C 
HETATM    7  O   UNK N   1      34.416  18.197   6.745  0.00  0.00    -0.645 OA
BRANCH   6   8
HETATM    8  O   UNK N   1      35.296  19.207   8.510  0.00  0.00    -0.772 OA
HETATM    9  H   UNK N   1      35.309  19.326   9.439  0.00  0.00     0.167 HD
ENDBRANCH   6   8
ENDBRANCH   1   6
TORSDOF 3
ENDMDL
MODEL 5
REMARK VINA RESULT:      -3.6      2.650      3.523
REMARK  3 active torsions:
REMARK  status: ('A' for Active; 'I' for Inactive)
REMARK    1  A    between atoms: N_2  and  C_3 
REMARK    2  A    between atoms: C_3  and  C_5 
REMARK    3  A    between atoms: C_5  and  O_6 
ROOT
HETATM    1  C   UNK N   1      34.728  15.151  11.255  0.00  0.00     0.092 C 
HETATM    2  C   UNK N   1      35.167  14.185  12.061  0.00  0.00     0.050 C 
ENDROOT
BRANCH   1   3
HETATM    3  N   UNK N   1      33.390  15.072  10.774  0.00  0.00    -0.390 N 
HETATM    4  C   UNK N   1      33.049  14.812   9.400  0.00  0.00     0.146 C 
HETATM    5  H   UNK N   1      32.656  15.203  11.418  0.00  0.00     0.159 HD
ENDBRANCH   1   3
BRANCH   1   6
HETATM    6  C   UNK N   1      35.648  16.266  10.893  0.00  0.00     0.192 C 
HETATM    7  O   UNK N   1      35.213  17.371  10.612  0.00  0.00    -0.645 OA
BRANCH   6   8
HETATM    8  O   UNK N   1      36.981  16.061  10.872  0.00  0.00    -0.772 OA
HETATM    9  H   UNK N   1      37.461  16.182  10.077  0.00  0.00     0.167 HD
ENDBRANCH   6   8
ENDBRANCH   1   6
TORSDOF 3
ENDMDL
MODEL 6
REMARK VINA RESULT:      -3.4     11.965     12.549
REMARK  3 active torsions:
REMARK  status: ('A' for Active; 'I' for Inactive)
REMARK    1  A    between atoms: N_2  and  C_3 
REMARK    2  A    between atoms: C_3  and  C_5 
REMARK    3  A    between atoms: C_5  and  O_6 
ROOT
HETATM    1  C   UNK N   1      22.915  12.451  10.821  0.00  0.00     0.092 C 
HETATM    2  C   UNK N   1      21.967  13.195  10.253  0.00  0.00     0.050 C 
ENDROOT
BRANCH   1   3
HETATM    3  N   UNK N   1      22.589  11.734  12.008  0.00  0.00    -0.390 N 
HETATM    4  C   UNK N   1      23.256  11.929  13.268  0.00  0.00     0.146 C 
HETATM    5  H   UNK N   1      21.865  11.067  11.963  0.00  0.00     0.159 HD
ENDBRANCH   1   3
BRANCH   1   6
HETATM    6  C   UNK N   1      24.267  12.399  10.197  0.00  0.00     0.192 C 
HETATM    7  O   UNK N   1      24.447  11.817   9.140  0.00  0.00    -0.645 OA
BRANCH   6   8
HETATM    8  O   UNK N   1      25.312  13.001  10.801  0.00  0.00    -0.772 OA
HETATM    9  H   UNK N   1      26.130  13.081  10.351  0.00  0.00     0.167 HD
ENDBRANCH   6   8
ENDBRANCH   1   6
TORSDOF 3
ENDMDL
MODEL 7
REMARK VINA RESULT:      -3.3     14.668     15.214
REMARK  3 active torsions:
REMARK  status: ('A' for Active; 'I' for Inactive)
REMARK    1  A    between atoms: N_2  and  C_3 
REMARK    2  A    between atoms: C_3  and  C_5 
REMARK    3  A    between atoms: C_5  and  O_6 
ROOT
HETATM    1  C   UNK N   1      20.802  19.362   2.725  0.00  0.00     0.092 C 
HETATM    2  C   UNK N   1      19.521  19.007   2.629  0.00  0.00     0.050 C 
ENDROOT
BRANCH   1   3
HETATM    3  N   UNK N   1      21.662  18.571   3.539  0.00  0.00    -0.390 N 
HETATM    4  C   UNK N   1      21.535  18.464   4.968  0.00  0.00     0.146 C 
HETATM    5  H   UNK N   1      22.386  18.068   3.098  0.00  0.00     0.159 HD
ENDBRANCH   1   3
BRANCH   1   6
HETATM    6  C   UNK N   1      21.278  20.563   1.982  0.00  0.00     0.192 C 
HETATM    7  O   UNK N   1      21.338  20.563   0.763  0.00  0.00    -0.645 OA
BRANCH   6   8
HETATM    8  O   UNK N   1      21.650  21.669   2.657  0.00  0.00    -0.772 OA
HETATM    9  H   UNK N   1      22.551  21.804   2.876  0.00  0.00     0.167 HD
ENDBRANCH   6   8
ENDBRANCH   1   6
TORSDOF 3
ENDMDL
MODEL 8
REMARK VINA RESULT:      -3.2     11.195     11.690
REMARK  3 active torsions:
REMARK  status: ('A' for Active; 'I' for Inactive)
REMARK    1  A    between atoms: N_2  and  C_3 
REMARK    2  A    between atoms: C_3  and  C_5 
REMARK    3  A    between atoms: C_5  and  O_6 
ROOT
HETATM    1  C   UNK N   1      43.480  21.322   3.469  0.00  0.00     0.092 C 
HETATM    2  C   UNK N   1      43.834  20.078   3.147  0.00  0.00     0.050 C 
ENDROOT
BRANCH   1   3
HETATM    3  N   UNK N   1      42.280  21.848   2.912  0.00  0.00    -0.390 N 
HETATM    4  C   UNK N   1      42.229  23.032   2.095  0.00  0.00     0.146 C 
HETATM    5  H   UNK N   1      41.436  21.374   3.096  0.00  0.00     0.159 HD
ENDBRANCH   1   3
BRANCH   1   6
HETATM    6  C   UNK N   1      44.348  22.106   4.392  0.00  0.00     0.192 C 
HETATM    7  O   UNK N   1      43.869  22.725   5.328  0.00  0.00    -0.645 OA
BRANCH   6   8
HETATM    8  O   UNK N   1      45.682  22.138   4.200  0.00  0.00    -0.772 OA
HETATM    9  H   UNK N   1      46.098  22.932   3.928  0.00  0.00     0.167 HD
ENDBRANCH   6   8
ENDBRANCH   1   6
TORSDOF 3
ENDMDL
MODEL 9
REMARK VINA RESULT:      -3.2      2.731      3.327
REMARK  3 active torsions:
REMARK  status: ('A' for Active; 'I' for Inactive)
REMARK    1  A    between atoms: N_2  and  C_3 
REMARK    2  A    between atoms: C_3  and  C_5 
REMARK    3  A    between atoms: C_5  and  O_6 
ROOT
HETATM    1  C   UNK N   1      32.373  17.596   7.849  0.00  0.00     0.092 C 
HETATM    2  C   UNK N   1      31.780  17.084   6.771  0.00  0.00     0.050 C 
ENDROOT
BRANCH   1   3
HETATM    3  N   UNK N   1      31.592  17.782   9.025  0.00  0.00    -0.390 N 
HETATM    4  C   UNK N   1      30.359  18.524   9.056  0.00  0.00     0.146 C 
HETATM    5  H   UNK N   1      31.913  17.378   9.864  0.00  0.00     0.159 HD
ENDBRANCH   1   3
BRANCH   1   6
HETATM    6  C   UNK N   1      33.818  17.952   7.780  0.00  0.00     0.192 C 
HETATM    7  O   UNK N   1      34.462  18.157   8.796  0.00  0.00    -0.645 OA
BRANCH   6   8
HETATM    8  O   UNK N   1      34.432  18.051   6.584  0.00  0.00    -0.772 OA
HETATM    9  H   UNK N   1      34.686  18.891   6.255  0.00  0.00     0.167 HD
ENDBRANCH   6   8
ENDBRANCH   1   6
TORSDOF 3
ENDMDL
