MODEL 1
REMARK VINA RESULT:      -6.6      0.000      0.000
REMARK  15 active torsions:
REMARK  status: ('A' for Active; 'I' for Inactive)
REMARK    1  A    between atoms: C_2  and  C_1 
REMARK    2  A    between atoms: C_5  and  C_1 
REMARK    3  A    between atoms: C_8  and  C_2 
REMARK    4  A    between atoms: C_6  and  C_3 
REMARK    5  A    between atoms: N_21  and  C_3 
REMARK    6  A    between atoms: C_7  and  C_4 
REMARK    7  A    between atoms: O_22  and  C_4 
REMARK    8  A    between atoms: C_10  and  C_6 
REMARK    9  A    between atoms: C_6  and  O_23 
REMARK   10  A    between atoms: C_10  and  C_7 
REMARK   11  A    between atoms: C_7  and  O_24 
REMARK   12  A    between atoms: O_26  and  C_8 
REMARK   13  A    between atoms: C_10  and  O_27 
REMARK   14  A    between atoms: O_28  and  C_12 
REMARK   15  A    between atoms: O_30  and  C_14 
ROOT
HETATM    1  C   UNK N   1      22.010  13.552   8.447  0.00  0.00     0.079 A 
HETATM    2  C   UNK N   1      23.219  14.985   7.002  0.00  0.00     0.129 A 
HETATM    3  C   UNK N   1      22.106  15.830   6.886  0.00  0.00     0.145 A 
HETATM    4  C   UNK N   1      24.388  15.329   6.317  0.00  0.00     0.174 A 
HETATM    5  C   UNK N   1      20.884  14.401   8.344  0.00  0.00     0.272 A 
HETATM    6  C   UNK N   1      23.327  17.263   5.457  0.00  0.00     0.224 A 
HETATM    7  N   UNK N   1      23.149  13.873   7.777  0.00  0.00    -0.349 N 
ATOM      8  HN  UNK N   1      23.965  13.267   7.858  1.00  0.00     0.166 HD
HETATM    9  N   UNK N   1      22.187  16.948   6.118  0.00  0.00    -0.306 N 
ATOM     10  HN  UNK N   1      21.375  17.559   6.036  1.00  0.00     0.171 HD
HETATM   11  N   UNK N   1      24.418  16.458   5.559  0.00  0.00    -0.301 N 
ATOM     12  HN  UNK N   1      25.273  16.705   5.060  1.00  0.00     0.171 HD
HETATM   13  N   UNK N   1      20.959  15.540   7.560  0.00  0.00    -0.294 N 
HETATM   14  O   UNK N   1      19.858  14.134   8.950  0.00  0.00    -0.266 OA
ENDROOT
BRANCH  13  15
HETATM   15  C   UNK N   1      19.842  16.484   7.433  0.00  0.00     0.168 C 
BRANCH  15  16
HETATM   16  C   UNK N   1      19.869  17.529   8.550  0.00  0.00     0.168 C 
BRANCH  16  17
HETATM   17  C   UNK N   1      18.474  17.722   9.194  0.00  0.00     0.179 C 
BRANCH  17  18
HETATM   18  C   UNK N   1      18.509  18.364  10.603  0.00  0.00     0.173 C 
BRANCH  18  19
HETATM   19  C   UNK N   1      17.091  18.533  11.144  0.00  0.00     0.198 C 
BRANCH  19  20
HETATM   20  O   UNK N   1      16.938  19.790  11.732  0.00  0.00    -0.398 OA
HETATM   21  H   UNK N   1      17.506  20.091  12.457  0.00  0.00     0.209 HD
ENDBRANCH  19  20
ENDBRANCH  18  19
BRANCH  18  22
HETATM   22  O   UNK N   1      19.151  19.603  10.580  0.00  0.00    -0.391 OA
HETATM   23  H   UNK N   1      20.094  19.808  10.477  0.00  0.00     0.210 HD
ENDBRANCH  18  22
ENDBRANCH  17  18
BRANCH  17  24
HETATM   24  O   UNK N   1      17.871  16.468   9.310  0.00  0.00    -0.390 OA
HETATM   25  H   UNK N   1      17.543  15.997  10.092  0.00  0.00     0.210 HD
ENDBRANCH  17  24
ENDBRANCH  16  17
BRANCH  16  26
HETATM   26  O   UNK N   1      20.367  18.748   8.075  0.00  0.00    -0.391 OA
HETATM   27  H   UNK N   1      20.826  19.192   7.345  0.00  0.00     0.210 HD
ENDBRANCH  16  26
ENDBRANCH  15  16
ENDBRANCH  13  15
BRANCH   1  28
HETATM   28  C   UNK N   1      21.995  12.323   9.305  0.00  0.00     0.073 C 
BRANCH  28  29
HETATM   29  C   UNK N   1      22.484  12.620  10.714  0.00  0.00     0.116 C 
BRANCH  29  30
HETATM   30  C   UNK N   1      23.921  12.235  10.856  0.00  0.00     0.139 C 
HETATM   31  O   UNK N   1      24.582  11.960   9.867  0.00  0.00    -0.650 OA
BRANCH  30  32
HETATM   32  O   UNK N   1      24.494  12.214  12.073  0.00  0.00    -0.776 OA
HETATM   33  H   UNK N   1      24.344  12.916  12.674  0.00  0.00     0.167 HD
ENDBRANCH  30  32
ENDBRANCH  29  30
ENDBRANCH  28  29
ENDBRANCH   1  28
BRANCH   4  34
HETATM   34  O   UNK N   1      25.483  14.554   6.405  0.00  0.00    -0.344 OA
HETATM   35  H   UNK N   1      25.551  13.684   6.064  0.00  0.00     0.219 HD
ENDBRANCH   4  34
BRANCH   6  36
HETATM   36  O   UNK N   1      23.377  18.375   4.708  0.00  0.00    -0.332 OA
HETATM   37  H   UNK N   1      22.640  18.949   4.624  0.00  0.00     0.221 HD
ENDBRANCH   6  36
TORSDOF 15
ENDMDL
MODEL 2
REMARK VINA RESULT:      -6.6      9.125     13.109
REMARK  15 active torsions:
REMARK  status: ('A' for Active; 'I' for Inactive)
REMARK    1  A    between atoms: C_2  and  C_1 
REMARK    2  A    between atoms: C_5  and  C_1 
REMARK    3  A    between atoms: C_8  and  C_2 
REMARK    4  A    between atoms: C_6  and  C_3 
REMARK    5  A    between atoms: N_21  and  C_3 
REMARK    6  A    between atoms: C_7  and  C_4 
REMARK    7  A    between atoms: O_22  and  C_4 
REMARK    8  A    between atoms: C_10  and  C_6 
REMARK    9  A    between atoms: C_6  and  O_23 
REMARK   10  A    between atoms: C_10  and  C_7 
REMARK   11  A    between atoms: C_7  and  O_24 
REMARK   12  A    between atoms: O_26  and  C_8 
REMARK   13  A    between atoms: C_10  and  O_27 
REMARK   14  A    between atoms: O_28  and  C_12 
REMARK   15  A    between atoms: O_30  and  C_14 
ROOT
HETATM    1  C   UNK N   1      32.360  17.382   5.315  0.00  0.00     0.079 A 
HETATM    2  C   UNK N   1      30.608  17.300   6.904  0.00  0.00     0.129 A 
HETATM    3  C   UNK N   1      31.540  17.252   7.950  0.00  0.00     0.145 A 
HETATM    4  C   UNK N   1      29.248  17.293   7.226  0.00  0.00     0.174 A 
HETATM    5  C   UNK N   1      33.309  17.342   6.362  0.00  0.00     0.272 A 
HETATM    6  C   UNK N   1      29.782  17.187   9.530  0.00  0.00     0.224 A 
HETATM    7  N   UNK N   1      31.035  17.367   5.617  0.00  0.00    -0.349 N 
ATOM      8  HN  UNK N   1      30.349  17.406   4.863  1.00  0.00     0.166 HD
HETATM    9  N   UNK N   1      31.105  17.197   9.236  0.00  0.00    -0.306 N 
ATOM     10  HN  UNK N   1      31.787  17.161   9.994  1.00  0.00     0.171 HD
HETATM   11  N   UNK N   1      28.863  17.236   8.529  0.00  0.00    -0.301 N 
ATOM     12  HN  UNK N   1      27.870  17.231   8.760  1.00  0.00     0.171 HD
HETATM   13  N   UNK N   1      32.873  17.282   7.675  0.00  0.00    -0.294 N 
HETATM   14  O   UNK N   1      34.503  17.368   6.108  0.00  0.00    -0.266 OA
ENDROOT
BRANCH  13  15
HETATM   15  C   UNK N   1      33.800  17.272   8.813  0.00  0.00     0.168 C 
BRANCH  15  16
HETATM   16  C   UNK N   1      34.218  15.845   9.176  0.00  0.00     0.168 C 
BRANCH  16  17
HETATM   17  C   UNK N   1      34.665  15.732  10.654  0.00  0.00     0.179 C 
BRANCH  17  18
HETATM   18  C   UNK N   1      36.055  15.079  10.849  0.00  0.00     0.173 C 
BRANCH  18  19
HETATM   19  C   UNK N   1      36.102  14.316  12.170  0.00  0.00     0.198 C 
BRANCH  19  20
HETATM   20  O   UNK N   1      36.383  15.184  13.228  0.00  0.00    -0.398 OA
HETATM   21  H   UNK N   1      35.832  15.960  13.416  0.00  0.00     0.209 HD
ENDBRANCH  19  20
ENDBRANCH  18  19
BRANCH  18  22
HETATM   22  O   UNK N   1      37.072  16.034  10.824  0.00  0.00    -0.391 OA
HETATM   23  H   UNK N   1      37.104  16.890  10.369  0.00  0.00     0.210 HD
ENDBRANCH  18  22
ENDBRANCH  17  18
BRANCH  17  24
HETATM   24  O   UNK N   1      33.726  14.952  11.333  0.00  0.00    -0.390 OA
HETATM   25  H   UNK N   1      33.774  14.524  12.202  0.00  0.00     0.210 HD
ENDBRANCH  17  24
ENDBRANCH  16  17
BRANCH  16  26
HETATM   26  O   UNK N   1      35.229  15.393   8.319  0.00  0.00    -0.391 OA
HETATM   27  H   UNK N   1      36.187  15.322   8.182  0.00  0.00     0.210 HD
ENDBRANCH  16  26
ENDBRANCH  15  16
ENDBRANCH  13  15
BRANCH   1  28
HETATM   28  C   UNK N   1      32.775  17.476   3.878  0.00  0.00     0.073 C 
BRANCH  28  29
HETATM   29  C   UNK N   1      32.444  16.202   3.116  0.00  0.00     0.116 C 
BRANCH  29  30
HETATM   30  C   UNK N   1      33.655  15.334   3.007  0.00  0.00     0.139 C 
HETATM   31  O   UNK N   1      34.083  15.016   1.908  0.00  0.00    -0.650 OA
BRANCH  30  32
HETATM   32  O   UNK N   1      34.289  14.919   4.118  0.00  0.00    -0.776 OA
HETATM   33  H   UNK N   1      34.772  15.531   4.637  0.00  0.00     0.167 HD
ENDBRANCH  30  32
ENDBRANCH  29  30
ENDBRANCH  28  29
ENDBRANCH   1  28
BRANCH   4  34
HETATM   34  O   UNK N   1      28.317  17.348   6.257  0.00  0.00    -0.344 OA
HETATM   35  H   UNK N   1      28.375  16.900   5.436  0.00  0.00     0.219 HD
ENDBRANCH   4  34
BRANCH   6  36
HETATM   36  O   UNK N   1      29.385  17.135  10.810  0.00  0.00    -0.332 OA
HETATM   37  H   UNK N   1      29.085  17.897  11.266  0.00  0.00     0.221 HD
ENDBRANCH   6  36
TORSDOF 15
ENDMDL
MODEL 3
REMARK VINA RESULT:      -6.4      3.390      6.732
REMARK  15 active torsions:
REMARK  status: ('A' for Active; 'I' for Inactive)
REMARK    1  A    between atoms: C_2  and  C_1 
REMARK    2  A    between atoms: C_5  and  C_1 
REMARK    3  A    between atoms: C_8  and  C_2 
REMARK    4  A    between atoms: C_6  and  C_3 
REMARK    5  A    between atoms: N_21  and  C_3 
REMARK    6  A    between atoms: C_7  and  C_4 
REMARK    7  A    between atoms: O_22  and  C_4 
REMARK    8  A    between atoms: C_10  and  C_6 
REMARK    9  A    between atoms: C_6  and  O_23 
REMARK   10  A    between atoms: C_10  and  C_7 
REMARK   11  A    between atoms: C_7  and  O_24 
REMARK   12  A    between atoms: O_26  and  C_8 
REMARK   13  A    between atoms: C_10  and  O_27 
REMARK   14  A    between atoms: O_28  and  C_12 
REMARK   15  A    between atoms: O_30  and  C_14 
ROOT
HETATM    1  C   UNK N   1      23.852  18.466   4.479  0.00  0.00     0.079 A 
HETATM    2  C   UNK N   1      21.906  19.286   3.408  0.00  0.00     0.129 A 
HETATM    3  C   UNK N   1      21.231  18.090   3.688  0.00  0.00     0.145 A 
HETATM    4  C   UNK N   1      21.218  20.294   2.726  0.00  0.00     0.174 A 
HETATM    5  C   UNK N   1      23.178  17.259   4.774  0.00  0.00     0.272 A 
HETATM    6  C   UNK N   1      19.288  18.925   2.631  0.00  0.00     0.224 A 
HETATM    7  N   UNK N   1      23.193  19.449   3.808  0.00  0.00    -0.349 N 
ATOM      8  HN  UNK N   1      23.674  20.325   3.603  1.00  0.00     0.166 HD
HETATM    9  N   UNK N   1      19.940  17.938   3.294  0.00  0.00    -0.306 N 
ATOM     10  HN  UNK N   1      19.452  17.066   3.499  1.00  0.00     0.171 HD
HETATM   11  N   UNK N   1      19.926  20.093   2.352  0.00  0.00    -0.301 N 
ATOM     12  HN  UNK N   1      19.427  20.830   1.854  1.00  0.00     0.171 HD
HETATM   13  N   UNK N   1      21.863  17.097   4.372  0.00  0.00    -0.294 N 
HETATM   14  O   UNK N   1      23.752  16.372   5.386  0.00  0.00    -0.266 OA
ENDROOT
BRANCH  13  15
HETATM   15  C   UNK N   1      21.091  15.885   4.673  0.00  0.00     0.168 C 
BRANCH  15  16
HETATM   16  C   UNK N   1      20.225  16.074   5.920  0.00  0.00     0.168 C 
BRANCH  16  17
HETATM   17  C   UNK N   1      20.559  15.035   7.019  0.00  0.00     0.179 C 
BRANCH  17  18
HETATM   18  C   UNK N   1      20.316  15.540   8.463  0.00  0.00     0.173 C 
BRANCH  18  19
HETATM   19  C   UNK N   1      20.667  14.449   9.471  0.00  0.00     0.198 C 
BRANCH  19  20
HETATM   20  O   UNK N   1      19.511  13.805   9.918  0.00  0.00    -0.398 OA
HETATM   21  H   UNK N   1      18.866  14.246  10.491  0.00  0.00     0.209 HD
ENDBRANCH  19  20
ENDBRANCH  18  19
BRANCH  18  22
HETATM   22  O   UNK N   1      18.991  15.937   8.645  0.00  0.00    -0.391 OA
HETATM   23  H   UNK N   1      18.528  16.718   8.303  0.00  0.00     0.210 HD
ENDBRANCH  18  22
ENDBRANCH  17  18
BRANCH  17  24
HETATM   24  O   UNK N   1      21.910  14.700   6.903  0.00  0.00    -0.390 OA
HETATM   25  H   UNK N   1      22.677  14.996   7.416  0.00  0.00     0.210 HD
ENDBRANCH  17  24
ENDBRANCH  16  17
BRANCH  16  26
HETATM   26  O   UNK N   1      18.864  16.023   5.589  0.00  0.00    -0.391 OA
HETATM   27  H   UNK N   1      18.216  15.760   4.916  0.00  0.00     0.210 HD
ENDBRANCH  16  26
ENDBRANCH  15  16
ENDBRANCH  13  15
BRANCH   1  28
HETATM   28  C   UNK N   1      25.265  18.708   4.915  0.00  0.00     0.073 C 
BRANCH  28  29
HETATM   29  C   UNK N   1      25.659  20.168   4.746  0.00  0.00     0.116 C 
BRANCH  29  30
HETATM   30  C   UNK N   1      26.436  20.352   3.483  0.00  0.00     0.139 C 
HETATM   31  O   UNK N   1      25.893  20.814   2.492  0.00  0.00    -0.650 OA
BRANCH  30  32
HETATM   32  O   UNK N   1      27.742  20.030   3.444  0.00  0.00    -0.776 OA
HETATM   33  H   UNK N   1      28.379  20.612   3.807  0.00  0.00     0.167 HD
ENDBRANCH  30  32
ENDBRANCH  29  30
ENDBRANCH  28  29
ENDBRANCH   1  28
BRANCH   4  34
HETATM   34  O   UNK N   1      21.821  21.461   2.444  0.00  0.00    -0.344 OA
HETATM   35  H   UNK N   1      21.664  22.266   2.897  0.00  0.00     0.219 HD
ENDBRANCH   4  34
BRANCH   6  36
HETATM   36  O   UNK N   1      18.013  18.746   2.256  0.00  0.00    -0.332 OA
HETATM   37  H   UNK N   1      17.333  19.338   2.515  0.00  0.00     0.221 HD
ENDBRANCH   6  36
TORSDOF 15
ENDMDL
MODEL 4
REMARK VINA RESULT:      -6.3      5.441      7.732
REMARK  15 active torsions:
REMARK  status: ('A' for Active; 'I' for Inactive)
REMARK    1  A    between atoms: C_2  and  C_1 
REMARK    2  A    between atoms: C_5  and  C_1 
REMARK    3  A    between atoms: C_8  and  C_2 
REMARK    4  A    between atoms: C_6  and  C_3 
REMARK    5  A    between atoms: N_21  and  C_3 
REMARK    6  A    between atoms: C_7  and  C_4 
REMARK    7  A    between atoms: O_22  and  C_4 
REMARK    8  A    between atoms: C_10  and  C_6 
REMARK    9  A    between atoms: C_6  and  O_23 
REMARK   10  A    between atoms: C_10  and  C_7 
REMARK   11  A    between atoms: C_7  and  O_24 
REMARK   12  A    between atoms: O_26  and  C_8 
REMARK   13  A    between atoms: C_10  and  O_27 
REMARK   14  A    between atoms: O_28  and  C_12 
REMARK   15  A    between atoms: O_30  and  C_14 
ROOT
HETATM    1  C   UNK N   1      24.162  18.596   4.431  0.00  0.00     0.079 A 
HETATM    2  C   UNK N   1      22.170  19.422   3.454  0.00  0.00     0.129 A 
HETATM    3  C   UNK N   1      21.526  18.202   3.701  0.00  0.00     0.145 A 
HETATM    4  C   UNK N   1      21.443  20.444   2.837  0.00  0.00     0.174 A 
HETATM    5  C   UNK N   1      23.520  17.364   4.692  0.00  0.00     0.272 A 
HETATM    6  C   UNK N   1      19.538  19.042   2.737  0.00  0.00     0.224 A 
HETATM    7  N   UNK N   1      23.465  19.594   3.824  0.00  0.00    -0.349 N 
ATOM      8  HN  UNK N   1      23.923  20.487   3.644  1.00  0.00     0.166 HD
HETATM    9  N   UNK N   1      20.227  18.041   3.337  0.00  0.00    -0.306 N 
ATOM     10  HN  UNK N   1      19.762  17.152   3.518  1.00  0.00     0.171 HD
HETATM   11  N   UNK N   1      20.144  20.234   2.492  0.00  0.00    -0.301 N 
ATOM     12  HN  UNK N   1      19.617  20.982   2.042  1.00  0.00     0.171 HD
HETATM   13  N   UNK N   1      22.197  17.193   4.322  0.00  0.00    -0.294 N 
HETATM   14  O   UNK N   1      24.128  16.463   5.249  0.00  0.00    -0.266 OA
ENDROOT
BRANCH  13  15
HETATM   15  C   UNK N   1      21.458  15.954   4.591  0.00  0.00     0.168 C 
BRANCH  15  16
HETATM   16  C   UNK N   1      21.485  15.016   3.382  0.00  0.00     0.168 C 
BRANCH  16  17
HETATM   17  C   UNK N   1      20.084  14.434   3.070  0.00  0.00     0.179 C 
BRANCH  17  18
HETATM   18  C   UNK N   1      19.772  14.309   1.559  0.00  0.00     0.173 C 
BRANCH  18  19
HETATM   19  C   UNK N   1      20.204  15.575   0.823  0.00  0.00     0.198 C 
BRANCH  19  20
HETATM   20  O   UNK N   1      19.146  16.484   0.749  0.00  0.00    -0.398 OA
HETATM   21  H   UNK N   1      18.418  16.478   1.390  0.00  0.00     0.209 HD
ENDBRANCH  19  20
ENDBRANCH  18  19
BRANCH  18  22
HETATM   22  O   UNK N   1      18.412  14.081   1.339  0.00  0.00    -0.391 OA
HETATM   23  H   UNK N   1      17.872  13.308   1.566  0.00  0.00     0.210 HD
ENDBRANCH  18  22
ENDBRANCH  17  18
BRANCH  17  24
HETATM   24  O   UNK N   1      19.127  15.278   3.638  0.00  0.00    -0.390 OA
HETATM   25  H   UNK N   1      18.625  15.195   4.463  0.00  0.00     0.210 HD
ENDBRANCH  17  24
ENDBRANCH  16  17
BRANCH  16  26
HETATM   26  O   UNK N   1      22.415  13.987   3.576  0.00  0.00    -0.391 OA
HETATM   27  H   UNK N   1      22.832  13.204   3.182  0.00  0.00     0.210 HD
ENDBRANCH  16  26
ENDBRANCH  15  16
ENDBRANCH  13  15
BRANCH   1  28
HETATM   28  C   UNK N   1      25.583  18.848   4.837  0.00  0.00     0.073 C 
BRANCH  28  29
HETATM   29  C   UNK N   1      25.939  20.323   4.734  0.00  0.00     0.116 C 
BRANCH  29  30
HETATM   30  C   UNK N   1      26.625  20.779   5.980  0.00  0.00     0.139 C 
HETATM   31  O   UNK N   1      27.709  21.336   5.913  0.00  0.00    -0.650 OA
BRANCH  30  32
HETATM   32  O   UNK N   1      26.039  20.596   7.177  0.00  0.00    -0.776 OA
HETATM   33  H   UNK N   1      26.289  21.126   7.907  0.00  0.00     0.167 HD
ENDBRANCH  30  32
ENDBRANCH  29  30
ENDBRANCH  28  29
ENDBRANCH   1  28
BRANCH   4  34
HETATM   34  O   UNK N   1      22.015  21.635   2.589  0.00  0.00    -0.344 OA
HETATM   35  H   UNK N   1      22.789  21.953   3.011  0.00  0.00     0.219 HD
ENDBRANCH   4  34
BRANCH   6  36
HETATM   36  O   UNK N   1      18.255  18.853   2.392  0.00  0.00    -0.332 OA
HETATM   37  H   UNK N   1      17.590  18.690   3.032  0.00  0.00     0.221 HD
ENDBRANCH   6  36
TORSDOF 15
ENDMDL
MODEL 5
REMARK VINA RESULT:      -6.3      5.804      7.394
REMARK  15 active torsions:
REMARK  status: ('A' for Active; 'I' for Inactive)
REMARK    1  A    between atoms: C_2  and  C_1 
REMARK    2  A    between atoms: C_5  and  C_1 
REMARK    3  A    between atoms: C_8  and  C_2 
REMARK    4  A    between atoms: C_6  and  C_3 
REMARK    5  A    between atoms: N_21  and  C_3 
REMARK    6  A    between atoms: C_7  and  C_4 
REMARK    7  A    between atoms: O_22  and  C_4 
REMARK    8  A    between atoms: C_10  and  C_6 
REMARK    9  A    between atoms: C_6  and  O_23 
REMARK   10  A    between atoms: C_10  and  C_7 
REMARK   11  A    between atoms: C_7  and  O_24 
REMARK   12  A    between atoms: O_26  and  C_8 
REMARK   13  A    between atoms: C_10  and  O_27 
REMARK   14  A    between atoms: O_28  and  C_12 
REMARK   15  A    between atoms: O_30  and  C_14 
ROOT
HETATM    1  C   UNK N   1      23.440  16.081   3.439  0.00  0.00     0.079 A 
HETATM    2  C   UNK N   1      21.901  14.891   2.091  0.00  0.00     0.129 A 
HETATM    3  C   UNK N   1      20.853  15.706   2.542  0.00  0.00     0.145 A 
HETATM    4  C   UNK N   1      21.608  13.886   1.165  0.00  0.00     0.174 A 
HETATM    5  C   UNK N   1      22.393  16.915   3.895  0.00  0.00     0.272 A 
HETATM    6  C   UNK N   1      19.327  14.521   1.181  0.00  0.00     0.224 A 
HETATM    7  N   UNK N   1      23.164  15.095   2.544  0.00  0.00    -0.349 N 
ATOM      8  HN  UNK N   1      23.919  14.499   2.206  1.00  0.00     0.166 HD
HETATM    9  N   UNK N   1      19.593  15.502   2.076  0.00  0.00    -0.306 N 
ATOM     10  HN  UNK N   1      18.834  16.097   2.408  1.00  0.00     0.171 HD
HETATM   11  N   UNK N   1      20.330  13.721   0.729  0.00  0.00    -0.301 N 
ATOM     12  HN  UNK N   1      20.121  12.987   0.053  1.00  0.00     0.171 HD
HETATM   13  N   UNK N   1      21.106  16.710   3.427  0.00  0.00    -0.294 N 
HETATM   14  O   UNK N   1      22.627  17.813   4.689  0.00  0.00    -0.266 OA
ENDROOT
BRANCH  13  15
HETATM   15  C   UNK N   1      19.977  17.557   3.829  0.00  0.00     0.168 C 
BRANCH  15  16
HETATM   16  C   UNK N   1      19.683  18.628   2.777  0.00  0.00     0.168 C 
BRANCH  16  17
HETATM   17  C   UNK N   1      20.005  20.052   3.294  0.00  0.00     0.179 C 
BRANCH  17  18
HETATM   18  C   UNK N   1      20.725  20.954   2.262  0.00  0.00     0.173 C 
BRANCH  18  19
HETATM   19  C   UNK N   1      21.080  20.150   1.013  0.00  0.00     0.198 C 
BRANCH  19  20
HETATM   20  O   UNK N   1      20.601  20.788  -0.133  0.00  0.00    -0.398 OA
HETATM   21  H   UNK N   1      19.752  21.257  -0.143  0.00  0.00     0.209 HD
ENDBRANCH  19  20
ENDBRANCH  18  19
BRANCH  18  22
HETATM   22  O   UNK N   1      21.883  21.517   2.801  0.00  0.00    -0.391 OA
HETATM   23  H   UNK N   1      21.978  22.254   3.424  0.00  0.00     0.210 HD
ENDBRANCH  18  22
ENDBRANCH  17  18
BRANCH  17  24
HETATM   24  O   UNK N   1      20.835  19.930   4.411  0.00  0.00    -0.390 OA
HETATM   25  H   UNK N   1      21.420  19.206   4.684  0.00  0.00     0.210 HD
ENDBRANCH  17  24
ENDBRANCH  16  17
BRANCH  16  26
HETATM   26  O   UNK N   1      18.351  18.548   2.349  0.00  0.00    -0.391 OA
HETATM   27  H   UNK N   1      17.764  18.470   1.581  0.00  0.00     0.210 HD
ENDBRANCH  16  26
ENDBRANCH  15  16
ENDBRANCH  13  15
BRANCH   1  28
HETATM   28  C   UNK N   1      24.856  16.276   3.889  0.00  0.00     0.073 C 
BRANCH  28  29
HETATM   29  C   UNK N   1      25.733  15.095   3.498  0.00  0.00     0.116 C 
BRANCH  29  30
HETATM   30  C   UNK N   1      26.567  15.441   2.309  0.00  0.00     0.139 C 
HETATM   31  O   UNK N   1      27.766  15.632   2.436  0.00  0.00    -0.650 OA
BRANCH  30  32
HETATM   32  O   UNK N   1      26.002  15.520   1.091  0.00  0.00    -0.776 OA
HETATM   33  H   UNK N   1      25.388  16.202   0.902  0.00  0.00     0.167 HD
ENDBRANCH  30  32
ENDBRANCH  29  30
ENDBRANCH  28  29
ENDBRANCH   1  28
BRANCH   4  34
HETATM   34  O   UNK N   1      22.581  13.086   0.696  0.00  0.00    -0.344 OA
HETATM   35  H   UNK N   1      23.352  12.847   1.173  0.00  0.00     0.219 HD
ENDBRANCH   4  34
BRANCH   6  36
HETATM   36  O   UNK N   1      18.073  14.346   0.737  0.00  0.00    -0.332 OA
HETATM   37  H   UNK N   1      17.401  13.985   1.283  0.00  0.00     0.221 HD
ENDBRANCH   6  36
TORSDOF 15
ENDMDL
MODEL 6
REMARK VINA RESULT:      -6.2      8.246     12.005
REMARK  15 active torsions:
REMARK  status: ('A' for Active; 'I' for Inactive)
REMARK    1  A    between atoms: C_2  and  C_1 
REMARK    2  A    between atoms: C_5  and  C_1 
REMARK    3  A    between atoms: C_8  and  C_2 
REMARK    4  A    between atoms: C_6  and  C_3 
REMARK    5  A    between atoms: N_21  and  C_3 
REMARK    6  A    between atoms: C_7  and  C_4 
REMARK    7  A    between atoms: O_22  and  C_4 
REMARK    8  A    between atoms: C_10  and  C_6 
REMARK    9  A    between atoms: C_6  and  O_23 
REMARK   10  A    between atoms: C_10  and  C_7 
REMARK   11  A    between atoms: C_7  and  O_24 
REMARK   12  A    between atoms: O_26  and  C_8 
REMARK   13  A    between atoms: C_10  and  O_27 
REMARK   14  A    between atoms: O_28  and  C_12 
REMARK   15  A    between atoms: O_30  and  C_14 
ROOT
HETATM    1  C   UNK N   1      31.415  17.462   8.487  0.00  0.00     0.079 A 
HETATM    2  C   UNK N   1      33.466  16.374   8.948  0.00  0.00     0.129 A 
HETATM    3  C   UNK N   1      33.191  15.410   7.968  0.00  0.00     0.145 A 
HETATM    4  C   UNK N   1      34.669  16.280   9.653  0.00  0.00     0.174 A 
HETATM    5  C   UNK N   1      31.131  16.500   7.491  0.00  0.00     0.272 A 
HETATM    6  C   UNK N   1      35.249  14.340   8.426  0.00  0.00     0.224 A 
HETATM    7  N   UNK N   1      32.579  17.374   9.184  0.00  0.00    -0.349 N 
ATOM      8  HN  UNK N   1      32.790  18.073   9.897  1.00  0.00     0.166 HD
HETATM    9  N   UNK N   1      34.088  14.417   7.731  0.00  0.00    -0.306 N 
ATOM     10  HN  UNK N   1      33.884  13.718   7.017  1.00  0.00     0.171 HD
HETATM   11  N   UNK N   1      35.535  15.267   9.379  0.00  0.00    -0.301 N 
ATOM     12  HN  UNK N   1      36.412  15.202   9.895  1.00  0.00     0.171 HD
HETATM   13  N   UNK N   1      32.039  15.484   7.246  0.00  0.00    -0.294 N 
HETATM   14  O   UNK N   1      30.095  16.572   6.847  0.00  0.00    -0.266 OA
ENDROOT
BRANCH  13  15
HETATM   15  C   UNK N   1      31.827  14.472   6.205  0.00  0.00     0.168 C 
BRANCH  15  16
HETATM   16  C   UNK N   1      32.477  14.888   4.884  0.00  0.00     0.168 C 
BRANCH  16  17
HETATM   17  C   UNK N   1      31.429  15.087   3.761  0.00  0.00     0.179 C 
BRANCH  17  18
HETATM   18  C   UNK N   1      31.562  16.429   3.000  0.00  0.00     0.173 C 
BRANCH  18  19
HETATM   19  C   UNK N   1      31.934  17.551   3.966  0.00  0.00     0.198 C 
BRANCH  19  20
HETATM   20  O   UNK N   1      30.784  18.162   4.473  0.00  0.00    -0.398 OA
HETATM   21  H   UNK N   1      30.134  18.591   3.896  0.00  0.00     0.209 HD
ENDBRANCH  19  20
ENDBRANCH  18  19
BRANCH  18  22
HETATM   22  O   UNK N   1      30.378  16.756   2.337  0.00  0.00    -0.391 OA
HETATM   23  H   UNK N   1      30.020  17.627   2.107  0.00  0.00     0.210 HD
ENDBRANCH  18  22
ENDBRANCH  17  18
BRANCH  17  24
HETATM   24  O   UNK N   1      30.159  15.047   4.340  0.00  0.00    -0.390 OA
HETATM   25  H   UNK N   1      29.889  14.854   5.252  0.00  0.00     0.210 HD
ENDBRANCH  17  24
ENDBRANCH  16  17
BRANCH  16  26
HETATM   26  O   UNK N   1      33.447  13.956   4.494  0.00  0.00    -0.391 OA
HETATM   27  H   UNK N   1      33.766  13.390   3.774  0.00  0.00     0.210 HD
ENDBRANCH  16  26
ENDBRANCH  15  16
ENDBRANCH  13  15
BRANCH   1  28
HETATM   28  C   UNK N   1      30.482  18.599   8.775  0.00  0.00     0.073 C 
BRANCH  28  29
HETATM   29  C   UNK N   1      29.497  18.247   9.880  0.00  0.00     0.116 C 
BRANCH  29  30
HETATM   30  C   UNK N   1      28.136  18.019   9.309  0.00  0.00     0.139 C 
HETATM   31  O   UNK N   1      27.576  16.947   9.471  0.00  0.00    -0.650 OA
BRANCH  30  32
HETATM   32  O   UNK N   1      27.516  19.003   8.633  0.00  0.00    -0.776 OA
HETATM   33  H   UNK N   1      27.380  19.836   9.038  0.00  0.00     0.167 HD
ENDBRANCH  30  32
ENDBRANCH  29  30
ENDBRANCH  28  29
ENDBRANCH   1  28
BRANCH   4  34
HETATM   34  O   UNK N   1      34.981  17.187  10.595  0.00  0.00    -0.344 OA
HETATM   35  H   UNK N   1      35.165  16.984  11.491  0.00  0.00     0.219 HD
ENDBRANCH   4  34
BRANCH   6  36
HETATM   36  O   UNK N   1      36.116  13.350   8.166  0.00  0.00    -0.332 OA
HETATM   37  H   UNK N   1      35.867  12.447   8.219  0.00  0.00     0.221 HD
ENDBRANCH   6  36
TORSDOF 15
ENDMDL
MODEL 7
REMARK VINA RESULT:      -6.1      2.987      6.874
REMARK  15 active torsions:
REMARK  status: ('A' for Active; 'I' for Inactive)
REMARK    1  A    between atoms: C_2  and  C_1 
REMARK    2  A    between atoms: C_5  and  C_1 
REMARK    3  A    between atoms: C_8  and  C_2 
REMARK    4  A    between atoms: C_6  and  C_3 
REMARK    5  A    between atoms: N_21  and  C_3 
REMARK    6  A    between atoms: C_7  and  C_4 
REMARK    7  A    between atoms: O_22  and  C_4 
REMARK    8  A    between atoms: C_10  and  C_6 
REMARK    9  A    between atoms: C_6  and  O_23 
REMARK   10  A    between atoms: C_10  and  C_7 
REMARK   11  A    between atoms: C_7  and  O_24 
REMARK   12  A    between atoms: O_26  and  C_8 
REMARK   13  A    between atoms: C_10  and  O_27 
REMARK   14  A    between atoms: O_28  and  C_12 
REMARK   15  A    between atoms: O_30  and  C_14 
ROOT
HETATM    1  C   UNK N   1      21.278  18.434   4.030  0.00  0.00     0.079 A 
HETATM    2  C   UNK N   1      23.490  18.015   4.763  0.00  0.00     0.129 A 
HETATM    3  C   UNK N   1      23.094  16.781   5.298  0.00  0.00     0.145 A 
HETATM    4  C   UNK N   1      24.833  18.387   4.875  0.00  0.00     0.174 A 
HETATM    5  C   UNK N   1      20.869  17.189   4.559  0.00  0.00     0.272 A 
HETATM    6  C   UNK N   1      25.309  16.365   6.011  0.00  0.00     0.224 A 
HETATM    7  N   UNK N   1      22.581  18.809   4.142  0.00  0.00    -0.349 N 
ATOM      8  HN  UNK N   1      22.880  19.703   3.753  1.00  0.00     0.166 HD
HETATM    9  N   UNK N   1      24.012  15.987   5.908  0.00  0.00    -0.306 N 
ATOM     10  HN  UNK N   1      23.719  15.090   6.296  1.00  0.00     0.171 HD
HETATM   11  N   UNK N   1      25.713  17.557   5.496  0.00  0.00    -0.301 N 
ATOM     12  HN  UNK N   1      26.692  17.832   5.577  1.00  0.00     0.171 HD
HETATM   13  N   UNK N   1      21.799  16.376   5.185  0.00  0.00    -0.294 N 
HETATM   14  O   UNK N   1      19.706  16.832   4.455  0.00  0.00    -0.266 OA
ENDROOT
BRANCH  13  15
HETATM   15  C   UNK N   1      21.453  15.056   5.727  0.00  0.00     0.168 C 
BRANCH  15  16
HETATM   16  C   UNK N   1      20.910  15.166   7.153  0.00  0.00     0.168 C 
BRANCH  16  17
HETATM   17  C   UNK N   1      21.358  13.974   8.035  0.00  0.00     0.179 C 
BRANCH  17  18
HETATM   18  C   UNK N   1      20.962  14.106   9.527  0.00  0.00     0.173 C 
BRANCH  18  19
HETATM   19  C   UNK N   1      21.500  12.920  10.324  0.00  0.00     0.198 C 
BRANCH  19  20
HETATM   20  O   UNK N   1      22.828  13.142  10.696  0.00  0.00    -0.398 OA
HETATM   21  H   UNK N   1      23.142  12.981  11.599  0.00  0.00     0.209 HD
ENDBRANCH  19  20
ENDBRANCH  18  19
BRANCH  18  22
HETATM   22  O   UNK N   1      19.577  14.182   9.679  0.00  0.00    -0.391 OA
HETATM   23  H   UNK N   1      18.909  13.484   9.603  0.00  0.00     0.210 HD
ENDBRANCH  18  22
ENDBRANCH  17  18
BRANCH  17  24
HETATM   24  O   UNK N   1      22.750  13.882   7.967  0.00  0.00    -0.390 OA
HETATM   25  H   UNK N   1      23.360  13.252   8.382  0.00  0.00     0.210 HD
ENDBRANCH  17  24
ENDBRANCH  16  17
BRANCH  16  26
HETATM   26  O   UNK N   1      19.514  15.276   7.144  0.00  0.00    -0.391 OA
HETATM   27  H   UNK N   1      18.686  14.964   7.541  0.00  0.00     0.210 HD
ENDBRANCH  16  26
ENDBRANCH  15  16
ENDBRANCH  13  15
BRANCH   1  28
HETATM   28  C   UNK N   1      20.322  19.341   3.317  0.00  0.00     0.073 C 
BRANCH  28  29
HETATM   29  C   UNK N   1      20.391  19.150   1.809  0.00  0.00     0.116 C 
BRANCH  29  30
HETATM   30  C   UNK N   1      20.992  20.354   1.161  0.00  0.00     0.139 C 
HETATM   31  O   UNK N   1      21.831  21.014   1.753  0.00  0.00    -0.650 OA
BRANCH  30  32
HETATM   32  O   UNK N   1      20.625  20.700  -0.086  0.00  0.00    -0.776 OA
HETATM   33  H   UNK N   1      20.328  21.571  -0.263  0.00  0.00     0.167 HD
ENDBRANCH  30  32
ENDBRANCH  29  30
ENDBRANCH  28  29
ENDBRANCH   1  28
BRANCH   4  34
HETATM   34  O   UNK N   1      25.261  19.556   4.369  0.00  0.00    -0.344 OA
HETATM   35  H   UNK N   1      25.092  19.854   3.497  0.00  0.00     0.219 HD
ENDBRANCH   4  34
BRANCH   6  36
HETATM   36  O   UNK N   1      26.192  15.557   6.617  0.00  0.00    -0.332 OA
HETATM   37  H   UNK N   1      26.400  14.708   6.278  0.00  0.00     0.221 HD
ENDBRANCH   6  36
TORSDOF 15
ENDMDL
MODEL 8
REMARK VINA RESULT:      -5.9      4.121      8.791
REMARK  15 active torsions:
REMARK  status: ('A' for Active; 'I' for Inactive)
REMARK    1  A    between atoms: C_2  and  C_1 
REMARK    2  A    between atoms: C_5  and  C_1 
REMARK    3  A    between atoms: C_8  and  C_2 
REMARK    4  A    between atoms: C_6  and  C_3 
REMARK    5  A    between atoms: N_21  and  C_3 
REMARK    6  A    between atoms: C_7  and  C_4 
REMARK    7  A    between atoms: O_22  and  C_4 
REMARK    8  A    between atoms: C_10  and  C_6 
REMARK    9  A    between atoms: C_6  and  O_23 
REMARK   10  A    between atoms: C_10  and  C_7 
REMARK   11  A    between atoms: C_7  and  O_24 
REMARK   12  A    between atoms: O_26  and  C_8 
REMARK   13  A    between atoms: C_10  and  O_27 
REMARK   14  A    between atoms: O_28  and  C_12 
REMARK   15  A    between atoms: O_30  and  C_14 
ROOT
HETATM    1  C   UNK N   1      21.781  19.177   3.955  0.00  0.00     0.079 A 
HETATM    2  C   UNK N   1      22.432  17.331   5.286  0.00  0.00     0.129 A 
HETATM    3  C   UNK N   1      23.780  17.570   4.984  0.00  0.00     0.145 A 
HETATM    4  C   UNK N   1      22.121  16.263   6.133  0.00  0.00     0.174 A 
HETATM    5  C   UNK N   1      23.138  19.432   3.650  0.00  0.00     0.272 A 
HETATM    6  C   UNK N   1      24.420  15.734   6.328  0.00  0.00     0.224 A 
HETATM    7  N   UNK N   1      21.468  18.135   4.771  0.00  0.00    -0.349 N 
ATOM      8  HN  UNK N   1      20.490  17.955   5.000  1.00  0.00     0.166 HD
HETATM    9  N   UNK N   1      24.740  16.767   5.512  0.00  0.00    -0.306 N 
ATOM     10  HN  UNK N   1      25.720  16.944   5.289  1.00  0.00     0.171 HD
HETATM   11  N   UNK N   1      23.118  15.488   6.635  0.00  0.00    -0.301 N 
ATOM     12  HN  UNK N   1      22.887  14.709   7.253  1.00  0.00     0.171 HD
HETATM   13  N   UNK N   1      24.121  18.616   4.182  0.00  0.00    -0.294 N 
HETATM   14  O   UNK N   1      23.437  20.372   2.929  0.00  0.00    -0.266 OA
ENDROOT
BRANCH  13  15
HETATM   15  C   UNK N   1      25.551  18.842   3.936  0.00  0.00     0.168 C 
BRANCH  15  16
HETATM   16  C   UNK N   1      26.105  19.937   4.849  0.00  0.00     0.168 C 
BRANCH  16  17
HETATM   17  C   UNK N   1      27.652  19.902   4.921  0.00  0.00     0.179 C 
BRANCH  17  18
HETATM   18  C   UNK N   1      28.246  18.481   5.079  0.00  0.00     0.173 C 
BRANCH  18  19
HETATM   19  C   UNK N   1      28.423  18.142   6.557  0.00  0.00     0.198 C 
BRANCH  19  20
HETATM   20  O   UNK N   1      27.313  17.441   7.035  0.00  0.00    -0.398 OA
HETATM   21  H   UNK N   1      27.403  16.670   7.616  0.00  0.00     0.209 HD
ENDBRANCH  19  20
ENDBRANCH  18  19
BRANCH  18  22
HETATM   22  O   UNK N   1      29.474  18.369   4.424  0.00  0.00    -0.391 OA
HETATM   23  H   UNK N   1      29.996  17.577   4.223  0.00  0.00     0.210 HD
ENDBRANCH  18  22
ENDBRANCH  17  18
BRANCH  17  24
HETATM   24  O   UNK N   1      28.052  20.659   6.024  0.00  0.00    -0.390 OA
HETATM   25  H   UNK N   1      27.700  21.491   6.377  0.00  0.00     0.210 HD
ENDBRANCH  17  24
ENDBRANCH  16  17
BRANCH  16  26
HETATM   26  O   UNK N   1      25.548  19.842   6.130  0.00  0.00    -0.391 OA
HETATM   27  H   UNK N   1      25.724  19.647   7.064  0.00  0.00     0.210 HD
ENDBRANCH  16  26
ENDBRANCH  15  16
ENDBRANCH  13  15
BRANCH   1  28
HETATM   28  C   UNK N   1      20.678  20.045   3.431  0.00  0.00     0.073 C 
BRANCH  28  29
HETATM   29  C   UNK N   1      20.338  19.705   1.987  0.00  0.00     0.116 C 
BRANCH  29  30
HETATM   30  C   UNK N   1      20.752  20.818   1.081  0.00  0.00     0.139 C 
HETATM   31  O   UNK N   1      21.078  20.580  -0.071  0.00  0.00    -0.650 OA
BRANCH  30  32
HETATM   32  O   UNK N   1      20.746  22.087   1.527  0.00  0.00    -0.776 OA
HETATM   33  H   UNK N   1      21.127  22.294   2.357  0.00  0.00     0.167 HD
ENDBRANCH  30  32
ENDBRANCH  29  30
ENDBRANCH  28  29
ENDBRANCH   1  28
BRANCH   4  34
HETATM   34  O   UNK N   1      20.843  16.001   6.458  0.00  0.00    -0.344 OA
HETATM   35  H   UNK N   1      20.377  16.408   7.162  0.00  0.00     0.219 HD
ENDBRANCH   4  34
BRANCH   6  36
HETATM   36  O   UNK N   1      25.391  14.961   6.836  0.00  0.00    -0.332 OA
HETATM   37  H   UNK N   1      25.220  14.327   7.507  0.00  0.00     0.221 HD
ENDBRANCH   6  36
TORSDOF 15
ENDMDL
MODEL 9
REMARK VINA RESULT:      -5.9      4.138      7.594
REMARK  15 active torsions:
REMARK  status: ('A' for Active; 'I' for Inactive)
REMARK    1  A    between atoms: C_2  and  C_1 
REMARK    2  A    between atoms: C_5  and  C_1 
REMARK    3  A    between atoms: C_8  and  C_2 
REMARK    4  A    between atoms: C_6  and  C_3 
REMARK    5  A    between atoms: N_21  and  C_3 
REMARK    6  A    between atoms: C_7  and  C_4 
REMARK    7  A    between atoms: O_22  and  C_4 
REMARK    8  A    between atoms: C_10  and  C_6 
REMARK    9  A    between atoms: C_6  and  O_23 
REMARK   10  A    between atoms: C_10  and  C_7 
REMARK   11  A    between atoms: C_7  and  O_24 
REMARK   12  A    between atoms: O_26  and  C_8 
REMARK   13  A    between atoms: C_10  and  O_27 
REMARK   14  A    between atoms: O_28  and  C_12 
REMARK   15  A    between atoms: O_30  and  C_14 
ROOT
HETATM    1  C   UNK N   1      22.396  16.536   4.225  0.00  0.00     0.079 A 
HETATM    2  C   UNK N   1      21.193  18.175   3.013  0.00  0.00     0.129 A 
HETATM    3  C   UNK N   1      22.197  19.120   3.267  0.00  0.00     0.145 A 
HETATM    4  C   UNK N   1      20.089  18.568   2.250  0.00  0.00     0.174 A 
HETATM    5  C   UNK N   1      23.418  17.479   4.481  0.00  0.00     0.272 A 
HETATM    6  C   UNK N   1      20.995  20.745   2.041  0.00  0.00     0.224 A 
HETATM    7  N   UNK N   1      21.314  16.911   3.491  0.00  0.00    -0.349 N 
ATOM      8  HN  UNK N   1      20.581  16.229   3.297  1.00  0.00     0.166 HD
HETATM    9  N   UNK N   1      22.074  20.381   2.776  0.00  0.00    -0.306 N 
ATOM     10  HN  UNK N   1      22.806  21.066   2.964  1.00  0.00     0.171 HD
HETATM   11  N   UNK N   1      20.012  19.842   1.781  0.00  0.00    -0.301 N 
ATOM     12  HN  UNK N   1      19.205  20.125   1.226  1.00  0.00     0.171 HD
HETATM   13  N   UNK N   1      23.298  18.766   3.986  0.00  0.00    -0.294 N 
HETATM   14  O   UNK N   1      24.403  17.154   5.127  0.00  0.00    -0.266 OA
ENDROOT
BRANCH  13  15
HETATM   15  C   UNK N   1      24.334  19.786   4.183  0.00  0.00     0.168 C 
BRANCH  15  16
HETATM   16  C   UNK N   1      25.370  19.752   3.058  0.00  0.00     0.168 C 
BRANCH  16  17
HETATM   17  C   UNK N   1      26.815  19.881   3.598  0.00  0.00     0.179 C 
BRANCH  17  18
HETATM   18  C   UNK N   1      27.406  18.560   4.151  0.00  0.00     0.173 C 
BRANCH  18  19
HETATM   19  C   UNK N   1      27.809  18.733   5.613  0.00  0.00     0.198 C 
BRANCH  19  20
HETATM   20  O   UNK N   1      26.751  18.386   6.457  0.00  0.00    -0.398 OA
HETATM   21  H   UNK N   1      26.724  17.537   6.925  0.00  0.00     0.209 HD
ENDBRANCH  19  20
ENDBRANCH  18  19
BRANCH  18  22
HETATM   22  O   UNK N   1      28.512  18.148   3.407  0.00  0.00    -0.391 OA
HETATM   23  H   UNK N   1      29.018  18.630   2.734  0.00  0.00     0.210 HD
ENDBRANCH  18  22
ENDBRANCH  17  18
BRANCH  17  24
HETATM   24  O   UNK N   1      26.810  20.816   4.635  0.00  0.00    -0.390 OA
HETATM   25  H   UNK N   1      26.435  21.710   4.674  0.00  0.00     0.210 HD
ENDBRANCH  17  24
ENDBRANCH  16  17
BRANCH  16  26
HETATM   26  O   UNK N   1      25.105  20.750   2.111  0.00  0.00    -0.391 OA
HETATM   27  H   UNK N   1      24.609  20.977   1.309  0.00  0.00     0.210 HD
ENDBRANCH  16  26
ENDBRANCH  15  16
ENDBRANCH  13  15
BRANCH   1  28
HETATM   28  C   UNK N   1      22.488  15.121   4.711  0.00  0.00     0.073 C 
BRANCH  28  29
HETATM   29  C   UNK N   1      21.159  14.636   5.270  0.00  0.00     0.116 C 
BRANCH  29  30
HETATM   30  C   UNK N   1      21.082  14.913   6.736  0.00  0.00     0.139 C 
HETATM   31  O   UNK N   1      22.096  15.176   7.364  0.00  0.00    -0.650 OA
BRANCH  30  32
HETATM   32  O   UNK N   1      19.892  14.896   7.363  0.00  0.00    -0.776 OA
HETATM   33  H   UNK N   1      19.116  15.148   6.902  0.00  0.00     0.167 HD
ENDBRANCH  30  32
ENDBRANCH  29  30
ENDBRANCH  28  29
ENDBRANCH   1  28
BRANCH   4  34
HETATM   34  O   UNK N   1      19.107  17.693   1.972  0.00  0.00    -0.344 OA
HETATM   35  H   UNK N   1      19.056  16.822   2.312  0.00  0.00     0.219 HD
ENDBRANCH   4  34
BRANCH   6  36
HETATM   36  O   UNK N   1      20.903  21.997   1.568  0.00  0.00    -0.332 OA
HETATM   37  H   UNK N   1      20.280  22.610   1.907  0.00  0.00     0.221 HD
ENDBRANCH   6  36
TORSDOF 15
ENDMDL
