MODEL 1
REMARK VINA RESULT:      -8.0      0.000      0.000
REMARK  11 active torsions:
REMARK  status: ('A' for Active; 'I' for Inactive)
REMARK    1  A    between atoms: C_2  and  C_4 
REMARK    2  A    between atoms: C_4  and  C_5 
REMARK    3  A    between atoms: C_5  and  N_6 
REMARK    4  A    between atoms: C_5  and  C_15 
REMARK       I    between atoms: N_6  and  C_7 
REMARK       I    between atoms: C_7  and  N_9 
REMARK       I    between atoms: C_15  and  N_17 
REMARK    5  A    between atoms: C_18  and  N_17 
REMARK    6  A    between atoms: C_18  and  C_19 
REMARK    7  A    between atoms: C_18  and  C_27 
REMARK    8  A    between atoms: C_19  and  C_20 
REMARK    9  A    between atoms: C_20  and  C_21 
REMARK   10  A    between atoms: C_28  and  S_29 
REMARK   11  A    between atoms: S_29  and  C_32 
ROOT
HETATM    1  C   UNK N   1      22.978  15.308   6.425  0.00  0.00     0.108 C 
ENDROOT
BRANCH   1   2
HETATM    2  N   UNK N   1      24.255  15.993   6.345  0.00  0.00    -0.351 N 
HETATM    3  C   UNK N   1      24.800  16.428   5.180  0.00  0.00     0.241 C 
HETATM    4  O   UNK N   1      24.275  16.149   4.111  0.00  0.00    -0.271 OA
HETATM    5  H   UNK N   1      24.752  16.152   7.180  0.00  0.00     0.163 HD
BRANCH   3   6
HETATM    6  C   UNK N   1      26.120  17.155   5.174  0.00  0.00     0.178 C 
BRANCH   6   7
HETATM    7  C   UNK N   1      25.753  18.612   4.876  0.00  0.00     0.038 C 
BRANCH   7   8
HETATM    8  C   UNK N   1      26.814  19.380   4.108  0.00  0.00    -0.020 C 
HETATM    9  C   UNK N   1      27.714  20.159   5.047  0.00  0.00     0.009 C 
HETATM   10  C   UNK N   1      26.105  20.332   3.173  0.00  0.00     0.009 C 
ENDBRANCH   7   8
ENDBRANCH   6   7
BRANCH   6  11
HETATM   11  N   UNK N   1      26.627  17.058   6.534  0.00  0.00    -0.330 N 
HETATM   12  C   UNK N   1      27.890  16.839   6.991  0.00  0.00     0.319 C 
HETATM   13  O   UNK N   1      28.122  17.125   8.158  0.00  0.00    -0.247 OA
HETATM   14  N   UNK N   1      28.914  16.382   6.205  0.00  0.00    -0.330 N 
HETATM   15  C   UNK N   1      28.724  15.837   4.875  0.00  0.00     0.153 C 
HETATM   16  C   UNK N   1      30.278  16.507   6.670  0.00  0.00     0.153 C 
HETATM   17  C   UNK N   1      29.822  16.377   3.951  0.00  0.00     0.187 C 
HETATM   18  O   UNK N   1      30.306  17.597   4.461  0.00  0.00    -0.388 OA
HETATM   19  C   UNK N   1      31.082  17.293   5.607  0.00  0.00     0.187 C 
HETATM   20  H   UNK N   1      25.946  17.169   7.238  0.00  0.00     0.165 HD
ENDBRANCH   6  11
ENDBRANCH   3   6
ENDBRANCH   1   2
BRANCH   1  21
HETATM   21  C   UNK N   1      23.012  13.878   6.980  0.00  0.00     0.034 C 
BRANCH  21  22
HETATM   22  C   UNK N   1      22.030  13.627   8.133  0.00  0.00     0.041 C 
BRANCH  22  23
HETATM   23  C   UNK N   1      22.696  13.074   9.354  0.00  0.00    -0.058 A 
HETATM   24  C   UNK N   1      24.086  12.915   9.369  0.00  0.00     0.007 A 
HETATM   25  C   UNK N   1      24.715  12.351  10.481  0.00  0.00     0.001 A 
HETATM   26  C   UNK N   1      23.955  11.943  11.580  0.00  0.00     0.000 A 
HETATM   27  C   UNK N   1      22.566  12.104  11.570  0.00  0.00     0.001 A 
HETATM   28  C   UNK N   1      21.935  12.669  10.457  0.00  0.00     0.007 A 
ENDBRANCH  22  23
ENDBRANCH  21  22
ENDBRANCH   1  21
BRANCH   1  29
HETATM   29  C   UNK N   1      21.924  16.176   7.048  0.00  0.00     0.010 C 
HETATM   30  C   UNK N   1      20.879  16.788   6.464  0.00  0.00     0.112 C 
BRANCH  30  31
HETATM   31  S   UNK N   1      20.391  16.830   4.724  0.00  0.00     0.196 S 
HETATM   32  O   UNK N   1      18.883  16.587   4.583  0.00  0.00    -0.218 OA
HETATM   33  O   UNK N   1      20.951  15.622   3.960  0.00  0.00    -0.218 OA
BRANCH  31  34
HETATM   34  C   UNK N   1      20.833  18.280   3.780  0.00  0.00     0.063 A 
HETATM   35  C   UNK N   1      19.916  18.796   2.858  0.00  0.00     0.024 A 
HETATM   36  C   UNK N   1      20.259  19.891   2.062  0.00  0.00     0.002 A 
HETATM   37  C   UNK N   1      21.526  20.469   2.181  0.00  0.00     0.000 A 
HETATM   38  C   UNK N   1      22.446  19.955   3.101  0.00  0.00     0.002 A 
HETATM   39  C   UNK N   1      22.102  18.858   3.898  0.00  0.00     0.024 A 
ENDBRANCH  31  34
ENDBRANCH  30  31
ENDBRANCH   1  29
TORSDOF 11
ENDMDL
MODEL 2
REMARK VINA RESULT:      -8.0      1.455      1.940
REMARK  11 active torsions:
REMARK  status: ('A' for Active; 'I' for Inactive)
REMARK    1  A    between atoms: C_2  and  C_4 
REMARK    2  A    between atoms: C_4  and  C_5 
REMARK    3  A    between atoms: C_5  and  N_6 
REMARK    4  A    between atoms: C_5  and  C_15 
REMARK       I    between atoms: N_6  and  C_7 
REMARK       I    between atoms: C_7  and  N_9 
REMARK       I    between atoms: C_15  and  N_17 
REMARK    5  A    between atoms: C_18  and  N_17 
REMARK    6  A    between atoms: C_18  and  C_19 
REMARK    7  A    between atoms: C_18  and  C_27 
REMARK    8  A    between atoms: C_19  and  C_20 
REMARK    9  A    between atoms: C_20  and  C_21 
REMARK   10  A    between atoms: C_28  and  S_29 
REMARK   11  A    between atoms: S_29  and  C_32 
ROOT
HETATM    1  C   UNK N   1      22.798  15.933   6.147  0.00  0.00     0.108 C 
ENDROOT
BRANCH   1   2
HETATM    2  N   UNK N   1      24.101  16.571   6.117  0.00  0.00    -0.351 N 
HETATM    3  C   UNK N   1      24.947  16.499   5.058  0.00  0.00     0.241 C 
HETATM    4  O   UNK N   1      24.684  15.777   4.107  0.00  0.00    -0.271 OA
HETATM    5  H   UNK N   1      24.387  17.085   6.908  0.00  0.00     0.163 HD
BRANCH   3   6
HETATM    6  C   UNK N   1      26.276  17.207   5.087  0.00  0.00     0.178 C 
BRANCH   6   7
HETATM    7  C   UNK N   1      25.936  18.673   4.800  0.00  0.00     0.038 C 
BRANCH   7   8
HETATM    8  C   UNK N   1      26.934  19.384   3.903  0.00  0.00    -0.020 C 
HETATM    9  C   UNK N   1      28.032  20.038   4.717  0.00  0.00     0.009 C 
HETATM   10  C   UNK N   1      26.181  20.435   3.121  0.00  0.00     0.009 C 
ENDBRANCH   7   8
ENDBRANCH   6   7
BRANCH   6  11
HETATM   11  N   UNK N   1      26.755  17.087   6.456  0.00  0.00    -0.330 N 
HETATM   12  C   UNK N   1      28.002  16.828   6.935  0.00  0.00     0.319 C 
HETATM   13  O   UNK N   1      28.221  17.099   8.107  0.00  0.00    -0.247 OA
HETATM   14  N   UNK N   1      29.026  16.344   6.165  0.00  0.00    -0.330 N 
HETATM   15  C   UNK N   1      28.845  15.813   4.829  0.00  0.00     0.153 C 
HETATM   16  C   UNK N   1      30.384  16.425   6.656  0.00  0.00     0.153 C 
HETATM   17  C   UNK N   1      29.976  16.324   3.928  0.00  0.00     0.187 C 
HETATM   18  O   UNK N   1      30.487  17.527   4.455  0.00  0.00    -0.388 OA
HETATM   19  C   UNK N   1      31.232  17.193   5.613  0.00  0.00     0.187 C 
HETATM   20  H   UNK N   1      26.065  17.215   7.147  0.00  0.00     0.165 HD
ENDBRANCH   6  11
ENDBRANCH   3   6
ENDBRANCH   1   2
BRANCH   1  21
HETATM   21  C   UNK N   1      22.744  14.533   6.773  0.00  0.00     0.034 C 
BRANCH  21  22
HETATM   22  C   UNK N   1      21.621  14.347   7.803  0.00  0.00     0.041 C 
BRANCH  22  23
HETATM   23  C   UNK N   1      22.048  13.540   8.989  0.00  0.00    -0.058 A 
HETATM   24  C   UNK N   1      23.391  13.173   9.126  0.00  0.00     0.007 A 
HETATM   25  C   UNK N   1      23.794  12.376  10.199  0.00  0.00     0.001 A 
HETATM   26  C   UNK N   1      22.854  11.942  11.137  0.00  0.00     0.000 A 
HETATM   27  C   UNK N   1      21.511  12.310  11.005  0.00  0.00     0.001 A 
HETATM   28  C   UNK N   1      21.107  13.109   9.931  0.00  0.00     0.007 A 
ENDBRANCH  22  23
ENDBRANCH  21  22
ENDBRANCH   1  21
BRANCH   1  29
HETATM   29  C   UNK N   1      21.739  16.866   6.655  0.00  0.00     0.010 C 
HETATM   30  C   UNK N   1      21.133  17.885   6.020  0.00  0.00     0.112 C 
BRANCH  30  31
HETATM   31  S   UNK N   1      21.407  18.532   4.354  0.00  0.00     0.196 S 
HETATM   32  O   UNK N   1      22.872  18.953   4.176  0.00  0.00    -0.218 OA
HETATM   33  O   UNK N   1      20.694  19.877   4.155  0.00  0.00    -0.218 OA
BRANCH  31  34
HETATM   34  C   UNK N   1      20.934  17.495   2.980  0.00  0.00     0.063 A 
HETATM   35  C   UNK N   1      21.327  16.152   2.975  0.00  0.00     0.024 A 
HETATM   36  C   UNK N   1      21.025  15.335   1.883  0.00  0.00     0.002 A 
HETATM   37  C   UNK N   1      20.333  15.862   0.789  0.00  0.00     0.000 A 
HETATM   38  C   UNK N   1      19.940  17.204   0.790  0.00  0.00     0.002 A 
HETATM   39  C   UNK N   1      20.243  18.023   1.883  0.00  0.00     0.024 A 
ENDBRANCH  31  34
ENDBRANCH  30  31
ENDBRANCH   1  29
TORSDOF 11
ENDMDL
MODEL 3
REMARK VINA RESULT:      -7.9      1.341      1.778
REMARK  11 active torsions:
REMARK  status: ('A' for Active; 'I' for Inactive)
REMARK    1  A    between atoms: C_2  and  C_4 
REMARK    2  A    between atoms: C_4  and  C_5 
REMARK    3  A    between atoms: C_5  and  N_6 
REMARK    4  A    between atoms: C_5  and  C_15 
REMARK       I    between atoms: N_6  and  C_7 
REMARK       I    between atoms: C_7  and  N_9 
REMARK       I    between atoms: C_15  and  N_17 
REMARK    5  A    between atoms: C_18  and  N_17 
REMARK    6  A    between atoms: C_18  and  C_19 
REMARK    7  A    between atoms: C_18  and  C_27 
REMARK    8  A    between atoms: C_19  and  C_20 
REMARK    9  A    between atoms: C_20  and  C_21 
REMARK   10  A    between atoms: C_28  and  S_29 
REMARK   11  A    between atoms: S_29  and  C_32 
ROOT
HETATM    1  C   UNK N   1      22.712  15.348   6.314  0.00  0.00     0.108 C 
ENDROOT
BRANCH   1   2
HETATM    2  N   UNK N   1      24.026  15.956   6.211  0.00  0.00    -0.351 N 
HETATM    3  C   UNK N   1      24.475  16.586   5.096  0.00  0.00     0.241 C 
HETATM    4  O   UNK N   1      23.814  16.565   4.067  0.00  0.00    -0.271 OA
HETATM    5  H   UNK N   1      24.623  15.908   6.993  0.00  0.00     0.163 HD
BRANCH   3   6
HETATM    6  C   UNK N   1      25.843  17.216   5.068  0.00  0.00     0.178 C 
BRANCH   6   7
HETATM    7  C   UNK N   1      25.576  18.702   4.808  0.00  0.00     0.038 C 
BRANCH   7   8
HETATM    8  C   UNK N   1      26.531  19.346   3.818  0.00  0.00    -0.020 C 
HETATM    9  C   UNK N   1      27.696  20.002   4.530  0.00  0.00     0.009 C 
HETATM   10  C   UNK N   1      25.755  20.384   3.042  0.00  0.00     0.009 C 
ENDBRANCH   7   8
ENDBRANCH   6   7
BRANCH   6  11
HETATM   11  N   UNK N   1      26.376  17.055   6.413  0.00  0.00    -0.330 N 
HETATM   12  C   UNK N   1      27.639  16.767   6.832  0.00  0.00     0.319 C 
HETATM   13  O   UNK N   1      27.910  17.005   8.001  0.00  0.00    -0.247 OA
HETATM   14  N   UNK N   1      28.623  16.289   6.008  0.00  0.00    -0.330 N 
HETATM   15  C   UNK N   1      28.379  15.795   4.667  0.00  0.00     0.153 C 
HETATM   16  C   UNK N   1      30.001  16.340   6.443  0.00  0.00     0.153 C 
HETATM   17  C   UNK N   1      29.479  16.315   3.733  0.00  0.00     0.187 C 
HETATM   18  O   UNK N   1      30.028  17.497   4.269  0.00  0.00    -0.388 OA
HETATM   19  C   UNK N   1      30.816  17.123   5.386  0.00  0.00     0.187 C 
HETATM   20  H   UNK N   1      25.718  17.173   7.135  0.00  0.00     0.165 HD
ENDBRANCH   6  11
ENDBRANCH   3   6
ENDBRANCH   1   2
BRANCH   1  21
HETATM   21  C   UNK N   1      22.672  13.904   6.832  0.00  0.00     0.034 C 
BRANCH  21  22
HETATM   22  C   UNK N   1      23.627  13.629   8.001  0.00  0.00     0.041 C 
BRANCH  22  23
HETATM   23  C   UNK N   1      22.916  13.167   9.235  0.00  0.00    -0.058 A 
HETATM   24  C   UNK N   1      23.636  12.513  10.241  0.00  0.00     0.007 A 
HETATM   25  C   UNK N   1      22.976  12.029  11.373  0.00  0.00     0.001 A 
HETATM   26  C   UNK N   1      21.595  12.196  11.500  0.00  0.00     0.000 A 
HETATM   27  C   UNK N   1      20.874  12.853  10.498  0.00  0.00     0.001 A 
HETATM   28  C   UNK N   1      21.533  13.338   9.365  0.00  0.00     0.007 A 
ENDBRANCH  22  23
ENDBRANCH  21  22
ENDBRANCH   1  21
BRANCH   1  29
HETATM   29  C   UNK N   1      21.733  16.262   6.990  0.00  0.00     0.010 C 
HETATM   30  C   UNK N   1      20.422  16.432   6.742  0.00  0.00     0.112 C 
BRANCH  30  31
HETATM   31  S   UNK N   1      19.379  15.664   5.480  0.00  0.00     0.196 S 
HETATM   32  O   UNK N   1      17.899  15.963   5.754  0.00  0.00    -0.218 OA
HETATM   33  O   UNK N   1      19.392  14.134   5.603  0.00  0.00    -0.218 OA
BRANCH  31  34
HETATM   34  C   UNK N   1      19.737  16.043   3.772  0.00  0.00     0.063 A 
HETATM   35  C   UNK N   1      19.836  17.382   3.380  0.00  0.00     0.024 A 
HETATM   36  C   UNK N   1      20.052  17.708   2.039  0.00  0.00     0.002 A 
HETATM   37  C   UNK N   1      20.164  16.693   1.085  0.00  0.00     0.000 A 
HETATM   38  C   UNK N   1      20.065  15.353   1.474  0.00  0.00     0.002 A 
HETATM   39  C   UNK N   1      19.847  15.027   2.817  0.00  0.00     0.024 A 
ENDBRANCH  31  34
ENDBRANCH  30  31
ENDBRANCH   1  29
TORSDOF 11
ENDMDL
MODEL 4
REMARK VINA RESULT:      -7.9     13.219     16.157
REMARK  11 active torsions:
REMARK  status: ('A' for Active; 'I' for Inactive)
REMARK    1  A    between atoms: C_2  and  C_4 
REMARK    2  A    between atoms: C_4  and  C_5 
REMARK    3  A    between atoms: C_5  and  N_6 
REMARK    4  A    between atoms: C_5  and  C_15 
REMARK       I    between atoms: N_6  and  C_7 
REMARK       I    between atoms: C_7  and  N_9 
REMARK       I    between atoms: C_15  and  N_17 
REMARK    5  A    between atoms: C_18  and  N_17 
REMARK    6  A    between atoms: C_18  and  C_19 
REMARK    7  A    between atoms: C_18  and  C_27 
REMARK    8  A    between atoms: C_19  and  C_20 
REMARK    9  A    between atoms: C_20  and  C_21 
REMARK   10  A    between atoms: C_28  and  S_29 
REMARK   11  A    between atoms: S_29  and  C_32 
ROOT
HETATM    1  C   UNK N   1      26.068  24.731  -6.183  0.00  0.00     0.108 C 
ENDROOT
BRANCH   1   2
HETATM    2  N   UNK N   1      27.469  24.816  -5.815  0.00  0.00    -0.351 N 
HETATM    3  C   UNK N   1      27.907  24.817  -4.530  0.00  0.00     0.241 C 
HETATM    4  O   UNK N   1      27.108  24.865  -3.606  0.00  0.00    -0.271 OA
HETATM    5  H   UNK N   1      28.138  24.874  -6.535  0.00  0.00     0.163 HD
BRANCH   3   6
HETATM    6  C   UNK N   1      29.380  24.884  -4.221  0.00  0.00     0.178 C 
BRANCH   6   7
HETATM    7  C   UNK N   1      29.661  26.375  -4.009  0.00  0.00     0.038 C 
BRANCH   7   8
HETATM    8  C   UNK N   1      31.045  26.681  -3.465  0.00  0.00    -0.020 C 
HETATM    9  C   UNK N   1      31.187  28.151  -3.126  0.00  0.00     0.009 C 
HETATM   10  C   UNK N   1      32.050  26.300  -4.526  0.00  0.00     0.009 C 
ENDBRANCH   7   8
ENDBRANCH   6   7
BRANCH   6  11
HETATM   11  N   UNK N   1      29.548  24.182  -2.957  0.00  0.00    -0.330 N 
HETATM   12  C   UNK N   1      30.334  23.117  -2.637  0.00  0.00     0.319 C 
HETATM   13  O   UNK N   1      30.550  22.916  -1.450  0.00  0.00    -0.247 OA
HETATM   14  N   UNK N   1      30.935  22.310  -3.566  0.00  0.00    -0.330 N 
HETATM   15  C   UNK N   1      30.609  22.330  -4.979  0.00  0.00     0.153 C 
HETATM   16  C   UNK N   1      32.011  21.435  -3.157  0.00  0.00     0.153 C 
HETATM   17  C   UNK N   1      31.906  22.246  -5.793  0.00  0.00     0.187 C 
HETATM   18  O   UNK N   1      32.979  22.728  -5.017  0.00  0.00    -0.388 OA
HETATM   19  C   UNK N   1      33.251  21.751  -4.028  0.00  0.00     0.187 C 
HETATM   20  H   UNK N   1      29.006  24.534  -2.214  0.00  0.00     0.165 HD
ENDBRANCH   6  11
ENDBRANCH   3   6
ENDBRANCH   1   2
BRANCH   1  21
HETATM   21  C   UNK N   1      25.438  26.012  -6.746  0.00  0.00     0.034 C 
BRANCH  21  22
HETATM   22  C   UNK N   1      24.882  26.962  -5.676  0.00  0.00     0.041 C 
BRANCH  22  23
HETATM   23  C   UNK N   1      25.913  27.908  -5.146  0.00  0.00    -0.058 A 
HETATM   24  C   UNK N   1      25.814  28.367  -3.829  0.00  0.00     0.007 A 
HETATM   25  C   UNK N   1      26.739  29.292  -3.338  0.00  0.00     0.001 A 
HETATM   26  C   UNK N   1      27.763  29.761  -4.165  0.00  0.00     0.000 A 
HETATM   27  C   UNK N   1      27.866  29.300  -5.482  0.00  0.00     0.001 A 
HETATM   28  C   UNK N   1      26.942  28.374  -5.974  0.00  0.00     0.007 A 
ENDBRANCH  22  23
ENDBRANCH  21  22
ENDBRANCH   1  21
BRANCH   1  29
HETATM   29  C   UNK N   1      25.787  23.505  -7.002  0.00  0.00     0.010 C 
HETATM   30  C   UNK N   1      26.188  23.212  -8.251  0.00  0.00     0.112 C 
BRANCH  30  31
HETATM   31  S   UNK N   1      27.163  24.197  -9.412  0.00  0.00     0.196 S 
HETATM   32  O   UNK N   1      28.035  23.288 -10.288  0.00  0.00    -0.218 OA
HETATM   33  O   UNK N   1      28.240  25.013  -8.681  0.00  0.00    -0.218 OA
BRANCH  31  34
HETATM   34  C   UNK N   1      26.283  25.341 -10.464  0.00  0.00     0.063 A 
HETATM   35  C   UNK N   1      27.011  26.192 -11.301  0.00  0.00     0.024 A 
HETATM   36  C   UNK N   1      26.351  27.139 -12.087  0.00  0.00     0.002 A 
HETATM   37  C   UNK N   1      24.958  27.241 -12.033  0.00  0.00     0.000 A 
HETATM   38  C   UNK N   1      24.227  26.391 -11.196  0.00  0.00     0.002 A 
HETATM   39  C   UNK N   1      24.888  25.443 -10.408  0.00  0.00     0.024 A 
ENDBRANCH  31  34
ENDBRANCH  30  31
ENDBRANCH   1  29
TORSDOF 11
ENDMDL
MODEL 5
REMARK VINA RESULT:      -7.9     12.751     17.155
REMARK  11 active torsions:
REMARK  status: ('A' for Active; 'I' for Inactive)
REMARK    1  A    between atoms: C_2  and  C_4 
REMARK    2  A    between atoms: C_4  and  C_5 
REMARK    3  A    between atoms: C_5  and  N_6 
REMARK    4  A    between atoms: C_5  and  C_15 
REMARK       I    between atoms: N_6  and  C_7 
REMARK       I    between atoms: C_7  and  N_9 
REMARK       I    between atoms: C_15  and  N_17 
REMARK    5  A    between atoms: C_18  and  N_17 
REMARK    6  A    between atoms: C_18  and  C_19 
REMARK    7  A    between atoms: C_18  and  C_27 
REMARK    8  A    between atoms: C_19  and  C_20 
REMARK    9  A    between atoms: C_20  and  C_21 
REMARK   10  A    between atoms: C_28  and  S_29 
REMARK   11  A    between atoms: S_29  and  C_32 
ROOT
HETATM    1  C   UNK N   1      27.273  25.138  -3.997  0.00  0.00     0.108 C 
ENDROOT
BRANCH   1   2
HETATM    2  N   UNK N   1      27.151  24.685  -5.370  0.00  0.00    -0.351 N 
HETATM    3  C   UNK N   1      28.160  24.755  -6.275  0.00  0.00     0.241 C 
HETATM    4  O   UNK N   1      29.204  25.325  -5.992  0.00  0.00    -0.271 OA
HETATM    5  H   UNK N   1      26.289  24.306  -5.660  0.00  0.00     0.163 HD
BRANCH   3   6
HETATM    6  C   UNK N   1      27.969  24.242  -7.679  0.00  0.00     0.178 C 
BRANCH   6   7
HETATM    7  C   UNK N   1      28.855  22.995  -7.756  0.00  0.00     0.038 C 
BRANCH   7   8
HETATM    8  C   UNK N   1      28.445  22.001  -8.827  0.00  0.00    -0.020 C 
HETATM    9  C   UNK N   1      27.946  20.708  -8.213  0.00  0.00     0.009 C 
HETATM   10  C   UNK N   1      29.657  21.725  -9.685  0.00  0.00     0.009 C 
ENDBRANCH   7   8
ENDBRANCH   6   7
BRANCH   6  11
HETATM   11  N   UNK N   1      26.573  23.843  -7.764  0.00  0.00    -0.330 N 
HETATM   12  C   UNK N   1      25.603  24.209  -8.646  0.00  0.00     0.319 C 
HETATM   13  O   UNK N   1      24.609  23.499  -8.714  0.00  0.00    -0.247 OA
HETATM   14  N   UNK N   1      25.710  25.280  -9.492  0.00  0.00    -0.330 N 
HETATM   15  C   UNK N   1      26.740  26.294  -9.378  0.00  0.00     0.153 C 
HETATM   16  C   UNK N   1      24.808  25.391 -10.617  0.00  0.00     0.153 C 
HETATM   17  C   UNK N   1      27.267  26.633 -10.778  0.00  0.00     0.187 C 
HETATM   18  O   UNK N   1      27.044  25.541 -11.640  0.00  0.00    -0.388 OA
HETATM   19  C   UNK N   1      25.653  25.499 -11.909  0.00  0.00     0.187 C 
HETATM   20  H   UNK N   1      26.283  23.205  -7.072  0.00  0.00     0.165 HD
ENDBRANCH   6  11
ENDBRANCH   3   6
ENDBRANCH   1   2
BRANCH   1  21
HETATM   21  C   UNK N   1      26.390  26.326  -3.595  0.00  0.00     0.034 C 
BRANCH  21  22
HETATM   22  C   UNK N   1      25.827  27.121  -4.781  0.00  0.00     0.041 C 
BRANCH  22  23
HETATM   23  C   UNK N   1      26.633  28.342  -5.098  0.00  0.00    -0.058 A 
HETATM   24  C   UNK N   1      27.464  28.346  -6.223  0.00  0.00     0.007 A 
HETATM   25  C   UNK N   1      28.263  29.458  -6.500  0.00  0.00     0.001 A 
HETATM   26  C   UNK N   1      28.232  30.568  -5.652  0.00  0.00     0.000 A 
HETATM   27  C   UNK N   1      27.399  30.568  -4.529  0.00  0.00     0.001 A 
HETATM   28  C   UNK N   1      26.599  29.456  -4.251  0.00  0.00     0.007 A 
ENDBRANCH  22  23
ENDBRANCH  21  22
ENDBRANCH   1  21
BRANCH   1  29
HETATM   29  C   UNK N   1      27.224  23.991  -3.031  0.00  0.00     0.010 C 
HETATM   30  C   UNK N   1      28.238  23.272  -2.518  0.00  0.00     0.112 C 
BRANCH  30  31
HETATM   31  S   UNK N   1      30.013  23.390  -2.839  0.00  0.00     0.196 S 
HETATM   32  O   UNK N   1      30.812  22.942  -1.607  0.00  0.00    -0.218 OA
HETATM   33  O   UNK N   1      30.461  24.853  -2.958  0.00  0.00    -0.218 OA
BRANCH  31  34
HETATM   34  C   UNK N   1      30.648  22.542  -4.277  0.00  0.00     0.063 A 
HETATM   35  C   UNK N   1      30.129  21.287  -4.610  0.00  0.00     0.024 A 
HETATM   36  C   UNK N   1      30.651  20.574  -5.692  0.00  0.00     0.002 A 
HETATM   37  C   UNK N   1      31.700  21.115  -6.441  0.00  0.00     0.000 A 
HETATM   38  C   UNK N   1      32.222  22.370  -6.110  0.00  0.00     0.002 A 
HETATM   39  C   UNK N   1      31.699  23.083  -5.026  0.00  0.00     0.024 A 
ENDBRANCH  31  34
ENDBRANCH  30  31
ENDBRANCH   1  29
TORSDOF 11
ENDMDL
MODEL 6
REMARK VINA RESULT:      -7.7     13.087     15.584
REMARK  11 active torsions:
REMARK  status: ('A' for Active; 'I' for Inactive)
REMARK    1  A    between atoms: C_2  and  C_4 
REMARK    2  A    between atoms: C_4  and  C_5 
REMARK    3  A    between atoms: C_5  and  N_6 
REMARK    4  A    between atoms: C_5  and  C_15 
REMARK       I    between atoms: N_6  and  C_7 
REMARK       I    between atoms: C_7  and  N_9 
REMARK       I    between atoms: C_15  and  N_17 
REMARK    5  A    between atoms: C_18  and  N_17 
REMARK    6  A    between atoms: C_18  and  C_19 
REMARK    7  A    between atoms: C_18  and  C_27 
REMARK    8  A    between atoms: C_19  and  C_20 
REMARK    9  A    between atoms: C_20  and  C_21 
REMARK   10  A    between atoms: C_28  and  S_29 
REMARK   11  A    between atoms: S_29  and  C_32 
ROOT
HETATM    1  C   UNK N   1      25.931  26.054  -6.039  0.00  0.00     0.108 C 
ENDROOT
BRANCH   1   2
HETATM    2  N   UNK N   1      27.328  25.895  -5.679  0.00  0.00    -0.351 N 
HETATM    3  C   UNK N   1      27.763  25.022  -4.735  0.00  0.00     0.241 C 
HETATM    4  O   UNK N   1      26.961  24.402  -4.051  0.00  0.00    -0.271 OA
HETATM    5  H   UNK N   1      27.995  26.450  -6.145  0.00  0.00     0.163 HD
BRANCH   3   6
HETATM    6  C   UNK N   1      29.233  24.893  -4.428  0.00  0.00     0.178 C 
BRANCH   6   7
HETATM    7  C   UNK N   1      29.725  26.337  -4.294  0.00  0.00     0.038 C 
BRANCH   7   8
HETATM    8  C   UNK N   1      31.048  26.483  -3.565  0.00  0.00    -0.020 C 
HETATM    9  C   UNK N   1      31.221  27.885  -3.018  0.00  0.00     0.009 C 
HETATM   10  C   UNK N   1      32.152  26.179  -4.551  0.00  0.00     0.009 C 
ENDBRANCH   7   8
ENDBRANCH   6   7
BRANCH   6  11
HETATM   11  N   UNK N   1      29.307  24.240  -3.130  0.00  0.00    -0.330 N 
HETATM   12  C   UNK N   1      30.061  23.186  -2.715  0.00  0.00     0.319 C 
HETATM   13  O   UNK N   1      30.193  23.030  -1.509  0.00  0.00    -0.247 OA
HETATM   14  N   UNK N   1      30.721  22.341  -3.567  0.00  0.00    -0.330 N 
HETATM   15  C   UNK N   1      30.496  22.307  -4.999  0.00  0.00     0.153 C 
HETATM   16  C   UNK N   1      31.761  21.479  -3.050  0.00  0.00     0.153 C 
HETATM   17  C   UNK N   1      31.846  22.187  -5.716  0.00  0.00     0.187 C 
HETATM   18  O   UNK N   1      32.865  22.695  -4.886  0.00  0.00    -0.388 OA
HETATM   19  C   UNK N   1      33.061  21.756  -3.843  0.00  0.00     0.187 C 
HETATM   20  H   UNK N   1      28.716  24.622  -2.441  0.00  0.00     0.165 HD
ENDBRANCH   6  11
ENDBRANCH   3   6
ENDBRANCH   1   2
BRANCH   1  21
HETATM   21  C   UNK N   1      25.199  27.244  -5.403  0.00  0.00     0.034 C 
BRANCH  21  22
HETATM   22  C   UNK N   1      25.666  27.583  -3.981  0.00  0.00     0.041 C 
BRANCH  22  23
HETATM   23  C   UNK N   1      26.675  28.688  -3.949  0.00  0.00    -0.058 A 
HETATM   24  C   UNK N   1      27.046  29.318  -5.142  0.00  0.00     0.007 A 
HETATM   25  C   UNK N   1      28.025  30.314  -5.134  0.00  0.00     0.001 A 
HETATM   26  C   UNK N   1      28.638  30.680  -3.933  0.00  0.00     0.000 A 
HETATM   27  C   UNK N   1      28.267  30.055  -2.738  0.00  0.00     0.001 A 
HETATM   28  C   UNK N   1      27.286  29.059  -2.745  0.00  0.00     0.007 A 
ENDBRANCH  22  23
ENDBRANCH  21  22
ENDBRANCH   1  21
BRANCH   1  29
HETATM   29  C   UNK N   1      25.727  25.938  -7.521  0.00  0.00     0.010 C 
HETATM   30  C   UNK N   1      25.585  24.831  -8.271  0.00  0.00     0.112 C 
BRANCH  30  31
HETATM   31  S   UNK N   1      25.638  23.091  -7.782  0.00  0.00     0.196 S 
HETATM   32  O   UNK N   1      24.505  22.309  -8.460  0.00  0.00    -0.218 OA
HETATM   33  O   UNK N   1      25.265  22.917  -6.303  0.00  0.00    -0.218 OA
BRANCH  31  34
HETATM   34  C   UNK N   1      27.173  22.213  -8.029  0.00  0.00     0.063 A 
HETATM   35  C   UNK N   1      28.322  22.935  -8.368  0.00  0.00     0.024 A 
HETATM   36  C   UNK N   1      29.521  22.268  -8.629  0.00  0.00     0.002 A 
HETATM   37  C   UNK N   1      29.572  20.873  -8.557  0.00  0.00     0.000 A 
HETATM   38  C   UNK N   1      28.424  20.148  -8.218  0.00  0.00     0.002 A 
HETATM   39  C   UNK N   1      27.223  20.816  -7.959  0.00  0.00     0.024 A 
ENDBRANCH  31  34
ENDBRANCH  30  31
ENDBRANCH   1  29
TORSDOF 11
ENDMDL
MODEL 7
REMARK VINA RESULT:      -7.6      7.866     12.534
REMARK  11 active torsions:
REMARK  status: ('A' for Active; 'I' for Inactive)
REMARK    1  A    between atoms: C_2  and  C_4 
REMARK    2  A    between atoms: C_4  and  C_5 
REMARK    3  A    between atoms: C_5  and  N_6 
REMARK    4  A    between atoms: C_5  and  C_15 
REMARK       I    between atoms: N_6  and  C_7 
REMARK       I    between atoms: C_7  and  N_9 
REMARK       I    between atoms: C_15  and  N_17 
REMARK    5  A    between atoms: C_18  and  N_17 
REMARK    6  A    between atoms: C_18  and  C_19 
REMARK    7  A    between atoms: C_18  and  C_27 
REMARK    8  A    between atoms: C_19  and  C_20 
REMARK    9  A    between atoms: C_20  and  C_21 
REMARK   10  A    between atoms: C_28  and  S_29 
REMARK   11  A    between atoms: S_29  and  C_32 
ROOT
HETATM    1  C   UNK N   1      35.277  15.301  10.659  0.00  0.00     0.108 C 
ENDROOT
BRANCH   1   2
HETATM    2  N   UNK N   1      34.195  15.533   9.720  0.00  0.00    -0.351 N 
HETATM    3  C   UNK N   1      34.009  16.709   9.068  0.00  0.00     0.241 C 
HETATM    4  O   UNK N   1      34.697  17.682   9.341  0.00  0.00    -0.271 OA
HETATM    5  H   UNK N   1      33.563  14.798   9.547  0.00  0.00     0.163 HD
BRANCH   3   6
HETATM    6  C   UNK N   1      32.877  16.872   8.087  0.00  0.00     0.178 C 
BRANCH   6   7
HETATM    7  C   UNK N   1      31.926  17.866   8.761  0.00  0.00     0.038 C 
BRANCH   7   8
HETATM    8  C   UNK N   1      30.473  17.428   8.782  0.00  0.00    -0.020 C 
HETATM    9  C   UNK N   1      29.878  17.434   7.388  0.00  0.00     0.009 C 
HETATM   10  C   UNK N   1      29.715  18.391   9.665  0.00  0.00     0.009 C 
ENDBRANCH   7   8
ENDBRANCH   6   7
BRANCH   6  11
HETATM   11  N   UNK N   1      33.464  17.494   6.910  0.00  0.00    -0.330 N 
HETATM   12  C   UNK N   1      33.374  17.154   5.595  0.00  0.00     0.319 C 
HETATM   13  O   UNK N   1      33.678  18.007   4.773  0.00  0.00    -0.247 OA
HETATM   14  N   UNK N   1      32.909  15.944   5.153  0.00  0.00    -0.330 N 
HETATM   15  C   UNK N   1      32.700  14.799   6.018  0.00  0.00     0.153 C 
HETATM   16  C   UNK N   1      32.524  15.793   3.767  0.00  0.00     0.153 C 
HETATM   17  C   UNK N   1      31.377  14.120   5.639  0.00  0.00     0.187 C 
HETATM   18  O   UNK N   1      30.531  15.058   5.014  0.00  0.00    -0.388 OA
HETATM   19  C   UNK N   1      31.058  15.300   3.721  0.00  0.00     0.187 C 
HETATM   20  H   UNK N   1      34.014  18.290   7.094  0.00  0.00     0.165 HD
ENDBRANCH   6  11
ENDBRANCH   3   6
ENDBRANCH   1   2
BRANCH   1  21
HETATM   21  C   UNK N   1      34.938  14.439  11.883  0.00  0.00     0.034 C 
BRANCH  21  22
HETATM   22  C   UNK N   1      36.112  14.227  12.849  0.00  0.00     0.041 C 
BRANCH  22  23
HETATM   23  C   UNK N   1      35.857  13.138  13.843  0.00  0.00    -0.058 A 
HETATM   24  C   UNK N   1      36.939  12.506  14.465  0.00  0.00     0.007 A 
HETATM   25  C   UNK N   1      36.718  11.452  15.354  0.00  0.00     0.001 A 
HETATM   26  C   UNK N   1      35.414  11.027  15.622  0.00  0.00     0.000 A 
HETATM   27  C   UNK N   1      34.330  11.660  15.005  0.00  0.00     0.001 A 
HETATM   28  C   UNK N   1      34.550  12.715  14.115  0.00  0.00     0.007 A 
ENDBRANCH  22  23
ENDBRANCH  21  22
ENDBRANCH   1  21
BRANCH   1  29
HETATM   29  C   UNK N   1      36.538  14.889   9.957  0.00  0.00     0.010 C 
HETATM   30  C   UNK N   1      36.791  13.766   9.261  0.00  0.00     0.112 C 
BRANCH  30  31
HETATM   31  S   UNK N   1      35.731  12.332   8.960  0.00  0.00     0.196 S 
HETATM   32  O   UNK N   1      36.248  11.527   7.760  0.00  0.00    -0.218 OA
HETATM   33  O   UNK N   1      34.348  12.760   8.448  0.00  0.00    -0.218 OA
BRANCH  31  34
HETATM   34  C   UNK N   1      35.448  11.216  10.325  0.00  0.00     0.063 A 
HETATM   35  C   UNK N   1      36.547  10.656  10.984  0.00  0.00     0.024 A 
HETATM   36  C   UNK N   1      36.355   9.732  12.013  0.00  0.00     0.002 A 
HETATM   37  C   UNK N   1      35.059   9.360  12.382  0.00  0.00     0.000 A 
HETATM   38  C   UNK N   1      33.957   9.919  11.725  0.00  0.00     0.002 A 
HETATM   39  C   UNK N   1      34.150  10.844  10.693  0.00  0.00     0.024 A 
ENDBRANCH  31  34
ENDBRANCH  30  31
ENDBRANCH   1  29
TORSDOF 11
ENDMDL
MODEL 8
REMARK VINA RESULT:      -7.6     13.036     15.998
REMARK  11 active torsions:
REMARK  status: ('A' for Active; 'I' for Inactive)
REMARK    1  A    between atoms: C_2  and  C_4 
REMARK    2  A    between atoms: C_4  and  C_5 
REMARK    3  A    between atoms: C_5  and  N_6 
REMARK    4  A    between atoms: C_5  and  C_15 
REMARK       I    between atoms: N_6  and  C_7 
REMARK       I    between atoms: C_7  and  N_9 
REMARK       I    between atoms: C_15  and  N_17 
REMARK    5  A    between atoms: C_18  and  N_17 
REMARK    6  A    between atoms: C_18  and  C_19 
REMARK    7  A    between atoms: C_18  and  C_27 
REMARK    8  A    between atoms: C_19  and  C_20 
REMARK    9  A    between atoms: C_20  and  C_21 
REMARK   10  A    between atoms: C_28  and  S_29 
REMARK   11  A    between atoms: S_29  and  C_32 
ROOT
HETATM    1  C   UNK N   1      26.768  24.623  -3.452  0.00  0.00     0.108 C 
ENDROOT
BRANCH   1   2
HETATM    2  N   UNK N   1      27.338  25.906  -3.819  0.00  0.00    -0.351 N 
HETATM    3  C   UNK N   1      26.899  27.091  -3.322  0.00  0.00     0.241 C 
HETATM    4  O   UNK N   1      25.902  27.132  -2.615  0.00  0.00    -0.271 OA
HETATM    5  H   UNK N   1      28.084  25.918  -4.462  0.00  0.00     0.163 HD
BRANCH   3   6
HETATM    6  C   UNK N   1      27.555  28.385  -3.730  0.00  0.00     0.178 C 
BRANCH   6   7
HETATM    7  C   UNK N   1      26.681  28.914  -4.871  0.00  0.00     0.038 C 
BRANCH   7   8
HETATM    8  C   UNK N   1      27.414  29.098  -6.188  0.00  0.00    -0.020 C 
HETATM    9  C   UNK N   1      27.824  27.764  -6.777  0.00  0.00     0.009 C 
HETATM   10  C   UNK N   1      28.642  29.936  -5.916  0.00  0.00     0.009 C 
ENDBRANCH   7   8
ENDBRANCH   6   7
BRANCH   6  11
HETATM   11  N   UNK N   1      27.426  29.268  -2.580  0.00  0.00    -0.330 N 
HETATM   12  C   UNK N   1      28.375  29.951  -1.883  0.00  0.00     0.319 C 
HETATM   13  O   UNK N   1      27.996  30.874  -1.175  0.00  0.00    -0.247 OA
HETATM   14  N   UNK N   1      29.718  29.701  -1.982  0.00  0.00    -0.330 N 
HETATM   15  C   UNK N   1      30.271  28.530  -2.632  0.00  0.00     0.153 C 
HETATM   16  C   UNK N   1      30.661  30.680  -1.487  0.00  0.00     0.153 C 
HETATM   17  C   UNK N   1      31.482  28.950  -3.475  0.00  0.00     0.187 C 
HETATM   18  O   UNK N   1      31.364  30.311  -3.819  0.00  0.00    -0.388 OA
HETATM   19  C   UNK N   1      31.615  31.062  -2.645  0.00  0.00     0.187 C 
HETATM   20  H   UNK N   1      26.505  29.392  -2.255  0.00  0.00     0.165 HD
ENDBRANCH   6  11
ENDBRANCH   3   6
ENDBRANCH   1   2
BRANCH   1  21
HETATM   21  C   UNK N   1      26.181  23.791  -4.599  0.00  0.00     0.034 C 
BRANCH  21  22
HETATM   22  C   UNK N   1      26.085  24.540  -5.935  0.00  0.00     0.041 C 
BRANCH  22  23
HETATM   23  C   UNK N   1      25.950  23.621  -7.109  0.00  0.00    -0.058 A 
HETATM   24  C   UNK N   1      25.415  22.341  -6.924  0.00  0.00     0.007 A 
HETATM   25  C   UNK N   1      25.333  21.454  -8.000  0.00  0.00     0.001 A 
HETATM   26  C   UNK N   1      25.788  21.844  -9.262  0.00  0.00     0.000 A 
HETATM   27  C   UNK N   1      26.320  23.124  -9.451  0.00  0.00     0.001 A 
HETATM   28  C   UNK N   1      26.401  24.013  -8.375  0.00  0.00     0.007 A 
ENDBRANCH  22  23
ENDBRANCH  21  22
ENDBRANCH   1  21
BRANCH   1  29
HETATM   29  C   UNK N   1      27.684  23.851  -2.548  0.00  0.00     0.010 C 
HETATM   30  C   UNK N   1      28.929  23.402  -2.788  0.00  0.00     0.112 C 
BRANCH  30  31
HETATM   31  S   UNK N   1      29.928  23.518  -4.290  0.00  0.00     0.196 S 
HETATM   32  O   UNK N   1      31.387  23.839  -3.940  0.00  0.00    -0.218 OA
HETATM   33  O   UNK N   1      29.549  24.756  -5.115  0.00  0.00    -0.218 OA
BRANCH  31  34
HETATM   34  C   UNK N   1      29.895  22.128  -5.410  0.00  0.00     0.063 A 
HETATM   35  C   UNK N   1      30.828  21.099  -5.243  0.00  0.00     0.024 A 
HETATM   36  C   UNK N   1      30.866  20.031  -6.143  0.00  0.00     0.002 A 
HETATM   37  C   UNK N   1      29.973  19.993  -7.218  0.00  0.00     0.000 A 
HETATM   38  C   UNK N   1      29.040  21.022  -7.388  0.00  0.00     0.002 A 
HETATM   39  C   UNK N   1      29.002  22.091  -6.487  0.00  0.00     0.024 A 
ENDBRANCH  31  34
ENDBRANCH  30  31
ENDBRANCH   1  29
TORSDOF 11
ENDMDL
MODEL 9
REMARK VINA RESULT:      -7.5      2.891      6.274
REMARK  11 active torsions:
REMARK  status: ('A' for Active; 'I' for Inactive)
REMARK    1  A    between atoms: C_2  and  C_4 
REMARK    2  A    between atoms: C_4  and  C_5 
REMARK    3  A    between atoms: C_5  and  N_6 
REMARK    4  A    between atoms: C_5  and  C_15 
REMARK       I    between atoms: N_6  and  C_7 
REMARK       I    between atoms: C_7  and  N_9 
REMARK       I    between atoms: C_15  and  N_17 
REMARK    5  A    between atoms: C_18  and  N_17 
REMARK    6  A    between atoms: C_18  and  C_19 
REMARK    7  A    between atoms: C_18  and  C_27 
REMARK    8  A    between atoms: C_19  and  C_20 
REMARK    9  A    between atoms: C_20  and  C_21 
REMARK   10  A    between atoms: C_28  and  S_29 
REMARK   11  A    between atoms: S_29  and  C_32 
ROOT
HETATM    1  C   UNK N   1      20.936  16.112   4.499  0.00  0.00     0.108 C 
ENDROOT
BRANCH   1   2
HETATM    2  N   UNK N   1      22.363  16.281   4.295  0.00  0.00    -0.351 N 
HETATM    3  C   UNK N   1      23.080  17.305   4.823  0.00  0.00     0.241 C 
HETATM    4  O   UNK N   1      22.514  18.215   5.413  0.00  0.00    -0.271 OA
HETATM    5  H   UNK N   1      22.836  15.615   3.744  0.00  0.00     0.163 HD
BRANCH   3   6
HETATM    6  C   UNK N   1      24.565  17.404   4.589  0.00  0.00     0.178 C 
BRANCH   6   7
HETATM    7  C   UNK N   1      24.839  18.908   4.493  0.00  0.00     0.038 C 
BRANCH   7   8
HETATM    8  C   UNK N   1      25.852  19.294   3.429  0.00  0.00    -0.020 C 
HETATM    9  C   UNK N   1      27.178  19.679   4.051  0.00  0.00     0.009 C 
HETATM   10  C   UNK N   1      25.287  20.465   2.661  0.00  0.00     0.009 C 
ENDBRANCH   7   8
ENDBRANCH   6   7
BRANCH   6  11
HETATM   11  N   UNK N   1      25.188  16.881   5.796  0.00  0.00    -0.330 N 
HETATM   12  C   UNK N   1      26.326  16.151   5.955  0.00  0.00     0.319 C 
HETATM   13  O   UNK N   1      26.814  16.112   7.076  0.00  0.00    -0.247 OA
HETATM   14  N   UNK N   1      26.974  15.519   4.928  0.00  0.00    -0.330 N 
HETATM   15  C   UNK N   1      26.402  15.337   3.608  0.00  0.00     0.153 C 
HETATM   16  C   UNK N   1      28.335  15.068   5.116  0.00  0.00     0.153 C 
HETATM   17  C   UNK N   1      27.477  15.620   2.552  0.00  0.00     0.187 C 
HETATM   18  O   UNK N   1      28.456  16.474   3.097  0.00  0.00    -0.388 OA
HETATM   19  C   UNK N   1      29.215  15.707   4.015  0.00  0.00     0.187 C 
HETATM   20  H   UNK N   1      24.710  17.089   6.631  0.00  0.00     0.165 HD
ENDBRANCH   6  11
ENDBRANCH   3   6
ENDBRANCH   1   2
BRANCH   1  21
HETATM   21  C   UNK N   1      20.026  16.640   3.383  0.00  0.00     0.034 C 
BRANCH  21  22
HETATM   22  C   UNK N   1      20.643  16.566   1.979  0.00  0.00     0.041 C 
BRANCH  22  23
HETATM   23  C   UNK N   1      20.620  15.184   1.407  0.00  0.00    -0.058 A 
HETATM   24  C   UNK N   1      19.397  14.525   1.245  0.00  0.00     0.007 A 
HETATM   25  C   UNK N   1      19.366  13.214   0.762  0.00  0.00     0.001 A 
HETATM   26  C   UNK N   1      20.558  12.560   0.442  0.00  0.00     0.000 A 
HETATM   27  C   UNK N   1      21.782  13.217   0.600  0.00  0.00     0.001 A 
HETATM   28  C   UNK N   1      21.815  14.529   1.082  0.00  0.00     0.007 A 
ENDBRANCH  22  23
ENDBRANCH  21  22
ENDBRANCH   1  21
BRANCH   1  29
HETATM   29  C   UNK N   1      20.603  14.719   4.946  0.00  0.00     0.010 C 
HETATM   30  C   UNK N   1      20.888  14.113   6.112  0.00  0.00     0.112 C 
BRANCH  30  31
HETATM   31  S   UNK N   1      21.812  14.732   7.538  0.00  0.00     0.196 S 
HETATM   32  O   UNK N   1      21.270  16.099   7.975  0.00  0.00    -0.218 OA
HETATM   33  O   UNK N   1      23.251  15.101   7.150  0.00  0.00    -0.218 OA
BRANCH  31  34
HETATM   34  C   UNK N   1      21.925  13.671   8.970  0.00  0.00     0.063 A 
HETATM   35  C   UNK N   1      20.770  13.413   9.717  0.00  0.00     0.024 A 
HETATM   36  C   UNK N   1      20.842  12.639  10.877  0.00  0.00     0.002 A 
HETATM   37  C   UNK N   1      22.072  12.125  11.297  0.00  0.00     0.000 A 
HETATM   38  C   UNK N   1      23.228  12.382  10.552  0.00  0.00     0.002 A 
HETATM   39  C   UNK N   1      23.157  13.158   9.391  0.00  0.00     0.024 A 
ENDBRANCH  31  34
ENDBRANCH  30  31
ENDBRANCH   1  29
TORSDOF 11
ENDMDL
