MODEL 1
REMARK VINA RESULT:      -3.2      0.000      0.000
REMARK  6 active torsions:
REMARK  status: ('A' for Active; 'I' for Inactive)
REMARK    1  A    between atoms: N_1  and  C_2 
REMARK    2  A    between atoms: C_2  and  C_3 
REMARK    3  A    between atoms: C_3  and  C_4 
REMARK    4  A    between atoms: C_4  and  C_5 
REMARK    5  A    between atoms: C_5  and  C_6 
REMARK    6  A    between atoms: C_6  and  N_7 
ROOT
HETATM    1  C   UNK N   1      34.813  13.166  16.472  0.00  0.00     0.003 C 
ENDROOT
BRANCH   1   2
HETATM    2  C   UNK N   1      35.154  13.648  17.861  0.00  0.00     0.019 C 
BRANCH   2   3
HETATM    3  C   UNK N   1      35.290  12.447  18.767  0.00  0.00     0.111 C 
BRANCH   3   4
HETATM    4  N   UNK N   1      35.422  12.893  20.142  0.00  0.00    -0.430 N 
HETATM    5  H   UNK N   1      34.897  12.426  20.882  0.00  0.00     0.149 HD
HETATM    6  H   UNK N   1      36.040  13.672  20.369  0.00  0.00     0.149 HD
ENDBRANCH   3   4
ENDBRANCH   2   3
ENDBRANCH   1   2
BRANCH   1   7
HETATM    7  C   UNK N   1      36.083  12.849  15.718  0.00  0.00     0.019 C 
BRANCH   7   8
HETATM    8  C   UNK N   1      36.841  14.137  15.490  0.00  0.00     0.111 C 
BRANCH   8   9
HETATM    9  N   UNK N   1      36.814  14.468  14.078  0.00  0.00    -0.430 N 
HETATM   10  H   UNK N   1      37.686  14.631  13.576  0.00  0.00     0.149 HD
HETATM   11  H   UNK N   1      35.922  14.538  13.587  0.00  0.00     0.149 HD
ENDBRANCH   8   9
ENDBRANCH   7   8
ENDBRANCH   1   7
TORSDOF 6
ENDMDL
MODEL 2
REMARK VINA RESULT:      -3.2     14.293     15.183
REMARK  6 active torsions:
REMARK  status: ('A' for Active; 'I' for Inactive)
REMARK    1  A    between atoms: N_1  and  C_2 
REMARK    2  A    between atoms: C_2  and  C_3 
REMARK    3  A    between atoms: C_3  and  C_4 
REMARK    4  A    between atoms: C_4  and  C_5 
REMARK    5  A    between atoms: C_5  and  C_6 
REMARK    6  A    between atoms: C_6  and  N_7 
ROOT
HETATM    1  C   UNK N   1      21.634  12.396  10.772  0.00  0.00     0.003 C 
ENDROOT
BRANCH   1   2
HETATM    2  C   UNK N   1      22.952  12.025  11.408  0.00  0.00     0.019 C 
BRANCH   2   3
HETATM    3  C   UNK N   1      24.043  12.173  10.374  0.00  0.00     0.111 C 
BRANCH   3   4
HETATM    4  N   UNK N   1      25.214  12.770  10.991  0.00  0.00    -0.430 N 
HETATM    5  H   UNK N   1      25.245  13.776  11.158  0.00  0.00     0.149 HD
HETATM    6  H   UNK N   1      26.005  12.184  11.258  0.00  0.00     0.149 HD
ENDBRANCH   3   4
ENDBRANCH   2   3
ENDBRANCH   1   2
BRANCH   1   7
HETATM    7  C   UNK N   1      21.823  13.592   9.870  0.00  0.00     0.019 C 
BRANCH   7   8
HETATM    8  C   UNK N   1      20.474  14.224   9.619  0.00  0.00     0.111 C 
BRANCH   8   9
HETATM    9  N   UNK N   1      20.657  15.506   8.965  0.00  0.00    -0.430 N 
HETATM   10  H   UNK N   1      20.318  15.645   8.013  0.00  0.00     0.149 HD
HETATM   11  H   UNK N   1      21.124  16.268   9.456  0.00  0.00     0.149 HD
ENDBRANCH   8   9
ENDBRANCH   7   8
ENDBRANCH   1   7
TORSDOF 6
ENDMDL
MODEL 3
REMARK VINA RESULT:      -3.2      0.666      4.445
REMARK  6 active torsions:
REMARK  status: ('A' for Active; 'I' for Inactive)
REMARK    1  A    between atoms: N_1  and  C_2 
REMARK    2  A    between atoms: C_2  and  C_3 
REMARK    3  A    between atoms: C_3  and  C_4 
REMARK    4  A    between atoms: C_4  and  C_5 
REMARK    5  A    between atoms: C_5  and  C_6 
REMARK    6  A    between atoms: C_6  and  N_7 
ROOT
HETATM    1  C   UNK N   1      34.893  13.141  16.514  0.00  0.00     0.003 C 
ENDROOT
BRANCH   1   2
HETATM    2  C   UNK N   1      36.154  13.221  15.688  0.00  0.00     0.019 C 
BRANCH   2   3
HETATM    3  C   UNK N   1      35.776  13.560  14.265  0.00  0.00     0.111 C 
BRANCH   3   4
HETATM    4  N   UNK N   1      36.675  14.579  13.756  0.00  0.00    -0.430 N 
HETATM    5  H   UNK N   1      36.754  15.476  14.236  0.00  0.00     0.149 HD
HETATM    6  H   UNK N   1      37.229  14.399  12.918  0.00  0.00     0.149 HD
ENDBRANCH   3   4
ENDBRANCH   2   3
ENDBRANCH   1   2
BRANCH   1   7
HETATM    7  C   UNK N   1      35.159  13.674  17.902  0.00  0.00     0.019 C 
BRANCH   7   8
HETATM    8  C   UNK N   1      35.263  12.505  18.854  0.00  0.00     0.111 C 
BRANCH   8   9
HETATM    9  N   UNK N   1      35.149  12.984  20.219  0.00  0.00    -0.430 N 
HETATM   10  H   UNK N   1      35.656  12.512  20.968  0.00  0.00     0.149 HD
HETATM   11  H   UNK N   1      34.563  13.792  20.429  0.00  0.00     0.149 HD
ENDBRANCH   8   9
ENDBRANCH   7   8
ENDBRANCH   1   7
TORSDOF 6
ENDMDL
MODEL 4
REMARK VINA RESULT:      -3.1     14.302     15.297
REMARK  6 active torsions:
REMARK  status: ('A' for Active; 'I' for Inactive)
REMARK    1  A    between atoms: N_1  and  C_2 
REMARK    2  A    between atoms: C_2  and  C_3 
REMARK    3  A    between atoms: C_3  and  C_4 
REMARK    4  A    between atoms: C_4  and  C_5 
REMARK    5  A    between atoms: C_5  and  C_6 
REMARK    6  A    between atoms: C_6  and  N_7 
ROOT
HETATM    1  C   UNK N   1      21.573  12.321  10.928  0.00  0.00     0.003 C 
ENDROOT
BRANCH   1   2
HETATM    2  C   UNK N   1      21.639  13.188   9.693  0.00  0.00     0.019 C 
BRANCH   2   3
HETATM    3  C   UNK N   1      20.454  14.125   9.699  0.00  0.00     0.111 C 
BRANCH   3   4
HETATM    4  N   UNK N   1      20.822  15.372   9.054  0.00  0.00    -0.430 N 
HETATM    5  H   UNK N   1      21.761  15.751   9.175  0.00  0.00     0.149 HD
HETATM    6  H   UNK N   1      20.141  15.869   8.479  0.00  0.00     0.149 HD
ENDBRANCH   3   4
ENDBRANCH   2   3
ENDBRANCH   1   2
BRANCH   1   7
HETATM    7  C   UNK N   1      22.972  11.986  11.389  0.00  0.00     0.019 C 
BRANCH   7   8
HETATM    8  C   UNK N   1      23.950  12.444  10.332  0.00  0.00     0.111 C 
BRANCH   8   9
HETATM    9  N   UNK N   1      25.217  12.770  10.958  0.00  0.00    -0.430 N 
HETATM   10  H   UNK N   1      25.952  12.065  11.018  0.00  0.00     0.149 HD
HETATM   11  H   UNK N   1      25.374  13.704  11.337  0.00  0.00     0.149 HD
ENDBRANCH   8   9
ENDBRANCH   7   8
ENDBRANCH   1   7
TORSDOF 6
ENDMDL
MODEL 5
REMARK VINA RESULT:      -3.0     17.726     18.301
REMARK  6 active torsions:
REMARK  status: ('A' for Active; 'I' for Inactive)
REMARK    1  A    between atoms: N_1  and  C_2 
REMARK    2  A    between atoms: C_2  and  C_3 
REMARK    3  A    between atoms: C_3  and  C_4 
REMARK    4  A    between atoms: C_4  and  C_5 
REMARK    5  A    between atoms: C_5  and  C_6 
REMARK    6  A    between atoms: C_6  and  N_7 
ROOT
HETATM    1  C   UNK N   1      42.380  21.263   2.887  0.00  0.00     0.003 C 
ENDROOT
BRANCH   1   2
HETATM    2  C   UNK N   1      43.696  20.896   3.530  0.00  0.00     0.019 C 
BRANCH   2   3
HETATM    3  C   UNK N   1      44.200  22.088   4.309  0.00  0.00     0.111 C 
BRANCH   3   4
HETATM    4  N   UNK N   1      45.642  22.179   4.172  0.00  0.00    -0.430 N 
HETATM    5  H   UNK N   1      46.111  23.075   4.306  0.00  0.00     0.149 HD
HETATM    6  H   UNK N   1      46.186  21.348   3.943  0.00  0.00     0.149 HD
ENDBRANCH   3   4
ENDBRANCH   2   3
ENDBRANCH   1   2
BRANCH   1   7
HETATM    7  C   UNK N   1      42.406  22.714   2.469  0.00  0.00     0.019 C 
BRANCH   7   8
HETATM    8  C   UNK N   1      41.150  23.010   1.682  0.00  0.00     0.111 C 
BRANCH   8   9
HETATM    9  N   UNK N   1      41.084  24.431   1.397  0.00  0.00    -0.430 N 
HETATM   10  H   UNK N   1      41.861  24.893   0.926  0.00  0.00     0.149 HD
HETATM   11  H   UNK N   1      40.259  24.968   1.668  0.00  0.00     0.149 HD
ENDBRANCH   8   9
ENDBRANCH   7   8
ENDBRANCH   1   7
TORSDOF 6
ENDMDL
MODEL 6
REMARK VINA RESULT:      -3.0     13.874     14.845
REMARK  6 active torsions:
REMARK  status: ('A' for Active; 'I' for Inactive)
REMARK    1  A    between atoms: N_1  and  C_2 
REMARK    2  A    between atoms: C_2  and  C_3 
REMARK    3  A    between atoms: C_3  and  C_4 
REMARK    4  A    between atoms: C_4  and  C_5 
REMARK    5  A    between atoms: C_5  and  C_6 
REMARK    6  A    between atoms: C_6  and  N_7 
ROOT
HETATM    1  C   UNK N   1      22.883  13.170   9.727  0.00  0.00     0.003 C 
ENDROOT
BRANCH   1   2
HETATM    2  C   UNK N   1      23.918  12.074   9.644  0.00  0.00     0.019 C 
BRANCH   2   3
HETATM    3  C   UNK N   1      24.851  12.203  10.825  0.00  0.00     0.111 C 
BRANCH   3   4
HETATM    4  N   UNK N   1      25.618  13.428  10.703  0.00  0.00    -0.430 N 
HETATM    5  H   UNK N   1      25.147  14.332  10.750  0.00  0.00     0.149 HD
HETATM    6  H   UNK N   1      26.629  13.387  10.569  0.00  0.00     0.149 HD
ENDBRANCH   3   4
ENDBRANCH   2   3
ENDBRANCH   1   2
BRANCH   1   7
HETATM    7  C   UNK N   1      21.511  12.595   9.464  0.00  0.00     0.019 C 
BRANCH   7   8
HETATM    8  C   UNK N   1      20.647  12.835  10.680  0.00  0.00     0.111 C 
BRANCH   8   9
HETATM    9  N   UNK N   1      20.996  11.881  11.715  0.00  0.00    -0.430 N 
HETATM   10  H   UNK N   1      21.298  12.210  12.631  0.00  0.00     0.149 HD
HETATM   11  H   UNK N   1      20.940  10.879  11.526  0.00  0.00     0.149 HD
ENDBRANCH   8   9
ENDBRANCH   7   8
ENDBRANCH   1   7
TORSDOF 6
ENDMDL
MODEL 7
REMARK VINA RESULT:      -3.0     15.393     16.399
REMARK  6 active torsions:
REMARK  status: ('A' for Active; 'I' for Inactive)
REMARK    1  A    between atoms: N_1  and  C_2 
REMARK    2  A    between atoms: C_2  and  C_3 
REMARK    3  A    between atoms: C_3  and  C_4 
REMARK    4  A    between atoms: C_4  and  C_5 
REMARK    5  A    between atoms: C_5  and  C_6 
REMARK    6  A    between atoms: C_6  and  N_7 
ROOT
HETATM    1  C   UNK N   1      21.740  13.612   9.868  0.00  0.00     0.003 C 
ENDROOT
BRANCH   1   2
HETATM    2  C   UNK N   1      20.406  14.252   9.564  0.00  0.00     0.019 C 
BRANCH   2   3
HETATM    3  C   UNK N   1      20.652  15.568   8.865  0.00  0.00     0.111 C 
BRANCH   3   4
HETATM    4  N   UNK N   1      19.422  16.338   8.840  0.00  0.00    -0.430 N 
HETATM    5  H   UNK N   1      18.527  15.865   8.713  0.00  0.00     0.149 HD
HETATM    6  H   UNK N   1      19.452  17.352   8.949  0.00  0.00     0.149 HD
ENDBRANCH   3   4
ENDBRANCH   2   3
ENDBRANCH   1   2
BRANCH   1   7
HETATM    7  C   UNK N   1      21.537  12.417  10.769  0.00  0.00     0.019 C 
BRANCH   7   8
HETATM    8  C   UNK N   1      22.868  12.046  11.381  0.00  0.00     0.111 C 
BRANCH   8   9
HETATM    9  N   UNK N   1      22.658  11.559  12.732  0.00  0.00    -0.430 N 
HETATM   10  H   UNK N   1      21.938  10.861  12.915  0.00  0.00     0.149 HD
HETATM   11  H   UNK N   1      23.231  11.916  13.498  0.00  0.00     0.149 HD
ENDBRANCH   8   9
ENDBRANCH   7   8
ENDBRANCH   1   7
TORSDOF 6
ENDMDL
MODEL 8
REMARK VINA RESULT:      -3.0      9.549     10.954
REMARK  6 active torsions:
REMARK  status: ('A' for Active; 'I' for Inactive)
REMARK    1  A    between atoms: N_1  and  C_2 
REMARK    2  A    between atoms: C_2  and  C_3 
REMARK    3  A    between atoms: C_3  and  C_4 
REMARK    4  A    between atoms: C_4  and  C_5 
REMARK    5  A    between atoms: C_5  and  C_6 
REMARK    6  A    between atoms: C_6  and  N_7 
ROOT
HETATM    1  C   UNK N   1      30.599  17.208   8.936  0.00  0.00     0.003 C 
ENDROOT
BRANCH   1   2
HETATM    2  C   UNK N   1      31.895  17.827   8.469  0.00  0.00     0.019 C 
BRANCH   2   3
HETATM    3  C   UNK N   1      32.995  16.800   8.608  0.00  0.00     0.111 C 
BRANCH   3   4
HETATM    4  N   UNK N   1      33.991  17.284   9.547  0.00  0.00    -0.430 N 
HETATM    5  H   UNK N   1      34.037  18.278   9.773  0.00  0.00     0.149 HD
HETATM    6  H   UNK N   1      34.644  16.631   9.980  0.00  0.00     0.149 HD
ENDBRANCH   3   4
ENDBRANCH   2   3
ENDBRANCH   1   2
BRANCH   1   7
HETATM    7  C   UNK N   1      29.683  18.286   9.466  0.00  0.00     0.019 C 
BRANCH   7   8
HETATM    8  C   UNK N   1      28.253  17.844   9.263  0.00  0.00     0.111 C 
BRANCH   8   9
HETATM    9  N   UNK N   1      27.484  18.942   8.706  0.00  0.00    -0.430 N 
HETATM   10  H   UNK N   1      27.490  19.109   7.700  0.00  0.00     0.149 HD
HETATM   11  H   UNK N   1      26.938  19.546   9.321  0.00  0.00     0.149 HD
ENDBRANCH   8   9
ENDBRANCH   7   8
ENDBRANCH   1   7
TORSDOF 6
ENDMDL
MODEL 9
REMARK VINA RESULT:      -3.0      8.452      9.826
REMARK  6 active torsions:
REMARK  status: ('A' for Active; 'I' for Inactive)
REMARK    1  A    between atoms: N_1  and  C_2 
REMARK    2  A    between atoms: C_2  and  C_3 
REMARK    3  A    between atoms: C_3  and  C_4 
REMARK    4  A    between atoms: C_4  and  C_5 
REMARK    5  A    between atoms: C_5  and  C_6 
REMARK    6  A    between atoms: C_6  and  N_7 
ROOT
HETATM    1  C   UNK N   1      33.026  17.985   7.873  0.00  0.00     0.003 C 
ENDROOT
BRANCH   1   2
HETATM    2  C   UNK N   1      34.427  18.018   8.434  0.00  0.00     0.019 C 
BRANCH   2   3
HETATM    3  C   UNK N   1      34.646  16.770   9.257  0.00  0.00     0.111 C 
BRANCH   3   4
HETATM    4  N   UNK N   1      35.045  17.142  10.602  0.00  0.00    -0.430 N 
HETATM    5  H   UNK N   1      34.339  17.256  11.330  0.00  0.00     0.149 HD
HETATM    6  H   UNK N   1      36.030  17.290  10.819  0.00  0.00     0.149 HD
ENDBRANCH   3   4
ENDBRANCH   2   3
ENDBRANCH   1   2
BRANCH   1   7
HETATM    7  C   UNK N   1      32.403  16.636   8.140  0.00  0.00     0.019 C 
BRANCH   7   8
HETATM    8  C   UNK N   1      30.968  16.844   8.567  0.00  0.00     0.111 C 
BRANCH   8   9
HETATM    9  N   UNK N   1      30.836  18.146   9.193  0.00  0.00    -0.430 N 
HETATM   10  H   UNK N   1      30.953  18.240  10.202  0.00  0.00     0.149 HD
HETATM   11  H   UNK N   1      30.627  18.967   8.624  0.00  0.00     0.149 HD
ENDBRANCH   8   9
ENDBRANCH   7   8
ENDBRANCH   1   7
TORSDOF 6
ENDMDL
