REMARK  6 active torsions:
REMARK  status: ('A' for Active; 'I' for Inactive)
REMARK    1  A    between atoms: O_3  and  C_2 
REMARK    2  A    between atoms: C_4  and  C_2 
REMARK    3  A    between atoms: C_4  and  N_5 
REMARK    4  A    between atoms: C_6  and  C_4 
REMARK    5  A    between atoms: C_7  and  C_6 
REMARK    6  A    between atoms: O_13  and  C_12 
ROOT
HETATM    1  C   UNK N   1       0.607   1.171  -0.000  0.00  0.00     0.074 C 
ENDROOT
BRANCH   1   2
HETATM    2  C   UNK N   1       1.962   0.450  -0.000  0.00  0.00     0.177 C 
BRANCH   2   3
HETATM    3  C   UNK N   1       3.224   1.250   0.000  0.00  0.00     0.163 C 
HETATM    4  O   UNK N   1       3.177   2.464   0.000  0.00  0.00    -0.648 OA
BRANCH   3   5
HETATM    5  O   UNK N   1       4.419   0.624   0.000  0.00  0.00    -0.775 OA
HETATM    6  H   UNK N   1       4.458  -0.312   0.000  0.00  0.00     0.167 HD
ENDBRANCH   3   5
ENDBRANCH   2   3
BRANCH   2   7
HETATM    7  N   UNK N   1       2.071  -1.000  -0.000  0.00  0.00    -0.417 N 
HETATM    8  H   UNK N   1       1.228  -1.575   0.000  0.00  0.00     0.150 HD
HETATM    9  H   UNK N   1       2.990  -1.442  -0.000  0.00  0.00     0.150 HD
ENDBRANCH   2   7
ENDBRANCH   1   2
BRANCH   1  10
HETATM   10  C   UNK N   1      -0.668   0.382  -0.000  0.00  0.00    -0.056 A 
HETATM   11  C   UNK N   1      -0.699  -1.019   0.000  0.00  0.00     0.010 A 
HETATM   12  C   UNK N   1      -1.920  -1.698   0.000  0.00  0.00     0.037 A 
HETATM   13  C   UNK N   1      -3.117  -0.977   0.000  0.00  0.00     0.065 A 
HETATM   14  C   UNK N   1      -3.093   0.419   0.000  0.00  0.00     0.037 A 
HETATM   15  C   UNK N   1      -1.871   1.095  -0.000  0.00  0.00     0.010 A 
BRANCH  13  16
HETATM   16  O   UNK N   1      -4.290  -1.627   0.000  0.00  0.00    -0.361 OA
HETATM   17  H   UNK N   1      -5.093  -1.144   0.000  0.00  0.00     0.217 HD
ENDBRANCH  13  16
ENDBRANCH   1  10
TORSDOF 6
