MODEL 1
REMARK VINA RESULT:      -6.1      0.000      0.000
REMARK  4 active torsions:
REMARK  status: ('A' for Active; 'I' for Inactive)
REMARK    1  A    between atoms: C_2  and  O_3 
REMARK    2  A    between atoms: C_2  and  C_4 
REMARK    3  A    between atoms: C_4  and  O_5 
REMARK    4  A    between atoms: C_4  and  C_6 
REMARK       I    between atoms: C_13  and  N_14 
ROOT
HETATM    1  C   UNK N   1      32.877  16.067   8.186  0.00  0.00     0.057 A 
HETATM    2  C   UNK N   1      32.359  14.815   8.557  0.00  0.00     0.117 A 
HETATM    3  N   UNK N   1      32.869  14.160   9.635  0.00  0.00    -0.348 N 
ATOM      4  HN  UNK N   1      32.484  13.255   9.905  1.00  0.00     0.167 HD
HETATM    5  C   UNK N   1      33.886  14.699  10.357  0.00  0.00     0.153 A 
HETATM    6  N   UNK N   1      34.389  14.043  11.435  0.00  0.00    -0.174 N 
ATOM      7  HN  UNK N   1      33.994  13.143  11.708  1.00  0.00     0.186 HD
HETATM    8  C   UNK N   1      35.413  14.574  12.157  0.00  0.00     0.680 A 
HETATM    9  N   UNK N   1      35.912  13.885  13.279  0.00  0.00    -0.234 N 
HETATM   10  N   UNK N   1      35.956  15.770  11.800  0.00  0.00    -0.154 N 
HETATM   11  C   UNK N   1      35.478  16.467  10.721  0.00  0.00     0.290 A 
HETATM   12  O   UNK N   1      35.980  17.535  10.416  0.00  0.00    -0.265 OA
HETATM   13  C   UNK N   1      34.418  15.941   9.981  0.00  0.00     0.147 A 
HETATM   14  N   UNK N   1      33.896  16.601   8.914  0.00  0.00    -0.349 N 
ATOM     15  HN  UNK N   1      34.273  17.513   8.655  1.00  0.00     0.166 HD
HETATM   16  H   UNK N   1      36.722  14.206  13.738  0.00  0.00     0.174 HD
HETATM   17  H   UNK N   1      35.450  13.079  13.606  0.00  0.00     0.174 HD
HETATM   18  H   UNK N   1      36.703  16.140  12.325  0.00  0.00     0.187 HD
ENDROOT
BRANCH   1  19
HETATM   19  C   UNK N   1      32.286  16.844   7.032  0.00  0.00     0.197 C 
BRANCH  19  20
HETATM   20  C   UNK N   1      33.265  17.023   5.867  0.00  0.00     0.148 C 
HETATM   21  C   UNK N   1      32.538  17.568   4.650  0.00  0.00     0.042 C 
BRANCH  20  22
HETATM   22  O   UNK N   1      34.263  17.934   6.217  0.00  0.00    -0.393 OA
HETATM   23  H   UNK N   1      35.167  17.649   6.424  0.00  0.00     0.210 HD
ENDBRANCH  20  22
ENDBRANCH  19  20
BRANCH  19  24
HETATM   24  O   UNK N   1      31.109  16.236   6.582  0.00  0.00    -0.387 OA
HETATM   25  H   UNK N   1      30.360  16.771   6.274  0.00  0.00     0.210 HD
ENDBRANCH  19  24
ENDBRANCH   1  19
TORSDOF 4
ENDMDL
MODEL 2
REMARK VINA RESULT:      -6.0      3.899      6.138
REMARK  4 active torsions:
REMARK  status: ('A' for Active; 'I' for Inactive)
REMARK    1  A    between atoms: C_2  and  O_3 
REMARK    2  A    between atoms: C_2  and  C_4 
REMARK    3  A    between atoms: C_4  and  O_5 
REMARK    4  A    between atoms: C_4  and  C_6 
REMARK       I    between atoms: C_13  and  N_14 
ROOT
HETATM    1  C   UNK N   1      31.876  15.861   8.712  0.00  0.00     0.057 A 
HETATM    2  C   UNK N   1      31.577  15.499   7.388  0.00  0.00     0.117 A 
HETATM    3  N   UNK N   1      30.573  16.129   6.721  0.00  0.00    -0.348 N 
ATOM      4  HN  UNK N   1      30.366  15.868   5.757  1.00  0.00     0.167 HD
HETATM    5  C   UNK N   1      29.844  17.104   7.324  0.00  0.00     0.153 A 
HETATM    6  N   UNK N   1      28.845  17.734   6.651  0.00  0.00    -0.174 N 
ATOM      7  HN  UNK N   1      28.648  17.477   5.685  1.00  0.00     0.186 HD
HETATM    8  C   UNK N   1      28.106  18.705   7.253  0.00  0.00     0.680 A 
HETATM    9  N   UNK N   1      27.084  19.355   6.536  0.00  0.00    -0.234 N 
HETATM   10  N   UNK N   1      28.352  19.052   8.546  0.00  0.00    -0.154 N 
HETATM   11  C   UNK N   1      29.352  18.445   9.260  0.00  0.00     0.290 A 
HETATM   12  O   UNK N   1      29.554  18.769  10.418  0.00  0.00    -0.265 OA
HETATM   13  C   UNK N   1      30.127  17.457   8.651  0.00  0.00     0.147 A 
HETATM   14  N   UNK N   1      31.142  16.838   9.310  0.00  0.00    -0.349 N 
ATOM     15  HN  UNK N   1      31.356  17.111  10.270  1.00  0.00     0.166 HD
HETATM   16  H   UNK N   1      26.474  19.977   6.995  0.00  0.00     0.174 HD
HETATM   17  H   UNK N   1      26.978  19.187   5.571  0.00  0.00     0.174 HD
HETATM   18  H   UNK N   1      27.805  19.751   8.974  0.00  0.00     0.187 HD
ENDROOT
BRANCH   1  19
HETATM   19  C   UNK N   1      33.026  15.220   9.455  0.00  0.00     0.197 C 
BRANCH  19  20
HETATM   20  C   UNK N   1      34.320  16.037   9.375  0.00  0.00     0.148 C 
HETATM   21  C   UNK N   1      34.968  15.862   8.013  0.00  0.00     0.042 C 
BRANCH  20  22
HETATM   22  O   UNK N   1      34.040  17.394   9.549  0.00  0.00    -0.393 OA
HETATM   23  H   UNK N   1      34.517  17.936  10.196  0.00  0.00     0.210 HD
ENDBRANCH  20  22
ENDBRANCH  19  20
BRANCH  19  24
HETATM   24  O   UNK N   1      32.683  14.993  10.792  0.00  0.00    -0.387 OA
HETATM   25  H   UNK N   1      32.817  14.123  11.199  0.00  0.00     0.210 HD
ENDBRANCH  19  24
ENDBRANCH   1  19
TORSDOF 4
ENDMDL
MODEL 3
REMARK VINA RESULT:      -5.9     10.053     12.301
REMARK  4 active torsions:
REMARK  status: ('A' for Active; 'I' for Inactive)
REMARK    1  A    between atoms: C_2  and  O_3 
REMARK    2  A    between atoms: C_2  and  C_4 
REMARK    3  A    between atoms: C_4  and  O_5 
REMARK    4  A    between atoms: C_4  and  C_6 
REMARK       I    between atoms: C_13  and  N_14 
ROOT
HETATM    1  C   UNK N   1      22.553  19.594   3.509  0.00  0.00     0.057 A 
HETATM    2  C   UNK N   1      22.542  18.653   4.553  0.00  0.00     0.117 A 
HETATM    3  N   UNK N   1      23.706  18.306   5.167  0.00  0.00    -0.348 N 
ATOM      4  HN  UNK N   1      23.691  17.629   5.930  1.00  0.00     0.167 HD
HETATM    5  C   UNK N   1      24.887  18.851   4.776  0.00  0.00     0.153 A 
HETATM    6  N   UNK N   1      26.045  18.504   5.395  0.00  0.00    -0.174 N 
ATOM      7  HN  UNK N   1      26.025  17.835   6.164  1.00  0.00     0.186 HD
HETATM    8  C   UNK N   1      27.232  19.041   5.002  0.00  0.00     0.680 A 
HETATM    9  N   UNK N   1      28.420  18.678   5.664  0.00  0.00    -0.234 N 
HETATM   10  N   UNK N   1      27.276  19.929   3.971  0.00  0.00    -0.154 N 
HETATM   11  C   UNK N   1      26.131  20.309   3.321  0.00  0.00     0.290 A 
HETATM   12  O   UNK N   1      26.192  21.103   2.398  0.00  0.00    -0.265 OA
HETATM   13  C   UNK N   1      24.905  19.777   3.723  0.00  0.00     0.147 A 
HETATM   14  N   UNK N   1      23.740  20.136   3.122  0.00  0.00    -0.349 N 
ATOM     15  HN  UNK N   1      23.755  20.824   2.369  1.00  0.00     0.166 HD
HETATM   16  H   UNK N   1      29.292  18.974   5.316  0.00  0.00     0.174 HD
HETATM   17  H   UNK N   1      28.379  18.126   6.479  0.00  0.00     0.174 HD
HETATM   18  H   UNK N   1      28.142  20.304   3.689  0.00  0.00     0.187 HD
ENDROOT
BRANCH   1  19
HETATM   19  C   UNK N   1      21.268  20.044   2.853  0.00  0.00     0.197 C 
BRANCH  19  20
HETATM   20  C   UNK N   1      20.596  18.940   2.031  0.00  0.00     0.148 C 
HETATM   21  C   UNK N   1      19.204  18.659   2.569  0.00  0.00     0.042 C 
BRANCH  20  22
HETATM   22  O   UNK N   1      20.471  19.345   0.700  0.00  0.00    -0.393 OA
HETATM   23  H   UNK N   1      19.861  18.905   0.087  0.00  0.00     0.210 HD
ENDBRANCH  20  22
ENDBRANCH  19  20
BRANCH  19  24
HETATM   24  O   UNK N   1      20.376  20.542   3.810  0.00  0.00    -0.387 OA
HETATM   25  H   UNK N   1      19.529  20.935   3.544  0.00  0.00     0.210 HD
ENDBRANCH  19  24
ENDBRANCH   1  19
TORSDOF 4
ENDMDL
MODEL 4
REMARK VINA RESULT:      -5.8     10.786     13.400
REMARK  4 active torsions:
REMARK  status: ('A' for Active; 'I' for Inactive)
REMARK    1  A    between atoms: C_2  and  O_3 
REMARK    2  A    between atoms: C_2  and  C_4 
REMARK    3  A    between atoms: C_4  and  O_5 
REMARK    4  A    between atoms: C_4  and  C_6 
REMARK       I    between atoms: C_13  and  N_14 
ROOT
HETATM    1  C   UNK N   1      24.513  18.531   4.332  0.00  0.00     0.057 A 
HETATM    2  C   UNK N   1      23.914  17.281   4.559  0.00  0.00     0.117 A 
HETATM    3  N   UNK N   1      22.619  17.072   4.196  0.00  0.00    -0.348 N 
ATOM      4  HN  UNK N   1      22.191  16.160   4.354  1.00  0.00     0.167 HD
HETATM    5  C   UNK N   1      21.890  18.066   3.624  0.00  0.00     0.153 A 
HETATM    6  N   UNK N   1      20.599  17.851   3.260  0.00  0.00    -0.174 N 
ATOM      7  HN  UNK N   1      20.178  16.934   3.411  1.00  0.00     0.186 HD
HETATM    8  C   UNK N   1      19.861  18.844   2.694  0.00  0.00     0.680 A 
HETATM    9  N   UNK N   1      18.528  18.599   2.312  0.00  0.00    -0.234 N 
HETATM   10  N   UNK N   1      20.406  20.075   2.495  0.00  0.00    -0.154 N 
HETATM   11  C   UNK N   1      21.706  20.335   2.845  0.00  0.00     0.290 A 
HETATM   12  O   UNK N   1      22.174  21.445   2.660  0.00  0.00    -0.265 OA
HETATM   13  C   UNK N   1      22.478  19.320   3.412  0.00  0.00     0.147 A 
HETATM   14  N   UNK N   1      23.777  19.522   3.759  0.00  0.00    -0.349 N 
ATOM     15  HN  UNK N   1      24.207  20.431   3.587  1.00  0.00     0.166 HD
HETATM   16  H   UNK N   1      17.955  19.339   2.007  0.00  0.00     0.174 HD
HETATM   17  H   UNK N   1      18.167  17.683   2.351  0.00  0.00     0.174 HD
HETATM   18  H   UNK N   1      19.860  20.790   2.093  0.00  0.00     0.187 HD
ENDROOT
BRANCH   1  19
HETATM   19  C   UNK N   1      25.968  18.770   4.668  0.00  0.00     0.197 C 
BRANCH  19  20
HETATM   20  C   UNK N   1      26.373  20.243   4.561  0.00  0.00     0.148 C 
HETATM   21  C   UNK N   1      27.667  20.487   5.319  0.00  0.00     0.042 C 
BRANCH  20  22
HETATM   22  O   UNK N   1      26.586  20.585   3.224  0.00  0.00    -0.393 OA
HETATM   23  H   UNK N   1      25.885  20.973   2.678  0.00  0.00     0.210 HD
ENDBRANCH  20  22
ENDBRANCH  19  20
BRANCH  19  24
HETATM   24  O   UNK N   1      26.264  18.281   5.945  0.00  0.00    -0.387 OA
HETATM   25  H   UNK N   1      25.598  17.800   6.461  0.00  0.00     0.210 HD
ENDBRANCH  19  24
ENDBRANCH   1  19
TORSDOF 4
ENDMDL
MODEL 5
REMARK VINA RESULT:      -5.8      5.900      8.389
REMARK  4 active torsions:
REMARK  status: ('A' for Active; 'I' for Inactive)
REMARK    1  A    between atoms: C_2  and  O_3 
REMARK    2  A    between atoms: C_2  and  C_4 
REMARK    3  A    between atoms: C_4  and  O_5 
REMARK    4  A    between atoms: C_4  and  C_6 
REMARK       I    between atoms: C_13  and  N_14 
ROOT
HETATM    1  C   UNK N   1      35.128  12.672  15.172  0.00  0.00     0.057 A 
HETATM    2  C   UNK N   1      35.231  11.272  15.225  0.00  0.00     0.117 A 
HETATM    3  N   UNK N   1      35.310  10.641  16.427  0.00  0.00    -0.348 N 
ATOM      4  HN  UNK N   1      35.376   9.623  16.460  1.00  0.00     0.167 HD
HETATM    5  C   UNK N   1      35.301  11.351  17.585  0.00  0.00     0.153 A 
HETATM    6  N   UNK N   1      35.376  10.715  18.784  0.00  0.00    -0.174 N 
ATOM      7  HN  UNK N   1      35.432   9.697  18.813  1.00  0.00     0.186 HD
HETATM    8  C   UNK N   1      35.376  11.422  19.947  0.00  0.00     0.680 A 
HETATM    9  N   UNK N   1      35.442  10.744  21.180  0.00  0.00    -0.234 N 
HETATM   10  N   UNK N   1      35.311  12.781  19.924  0.00  0.00    -0.154 N 
HETATM   11  C   UNK N   1      35.232  13.462  18.738  0.00  0.00     0.290 A 
HETATM   12  O   UNK N   1      35.177  14.680  18.739  0.00  0.00    -0.265 OA
HETATM   13  C   UNK N   1      35.216  12.749  17.538  0.00  0.00     0.147 A 
HETATM   14  N   UNK N   1      35.120  13.377  16.336  0.00  0.00    -0.349 N 
ATOM     15  HN  UNK N   1      35.040  14.393  16.306  1.00  0.00     0.166 HD
HETATM   16  H   UNK N   1      35.554  11.249  22.017  0.00  0.00     0.174 HD
HETATM   17  H   UNK N   1      35.375   9.762  21.204  0.00  0.00     0.174 HD
HETATM   18  H   UNK N   1      35.321  13.282  20.772  0.00  0.00     0.187 HD
ENDROOT
BRANCH   1  19
HETATM   19  C   UNK N   1      34.976  13.393  13.852  0.00  0.00     0.197 C 
BRANCH  19  20
HETATM   20  C   UNK N   1      36.294  13.972  13.330  0.00  0.00     0.148 C 
HETATM   21  C   UNK N   1      36.023  14.979  12.225  0.00  0.00     0.042 C 
BRANCH  20  22
HETATM   22  O   UNK N   1      36.967  14.632  14.359  0.00  0.00    -0.393 OA
HETATM   23  H   UNK N   1      37.061  15.597  14.373  0.00  0.00     0.210 HD
ENDBRANCH  20  22
ENDBRANCH  19  20
BRANCH  19  24
HETATM   24  O   UNK N   1      34.408  12.547  12.893  0.00  0.00    -0.387 OA
HETATM   25  H   UNK N   1      34.818  12.439  12.020  0.00  0.00     0.210 HD
ENDBRANCH  19  24
ENDBRANCH   1  19
TORSDOF 4
ENDMDL
MODEL 6
REMARK VINA RESULT:      -5.7      2.375      5.421
REMARK  4 active torsions:
REMARK  status: ('A' for Active; 'I' for Inactive)
REMARK    1  A    between atoms: C_2  and  O_3 
REMARK    2  A    between atoms: C_2  and  C_4 
REMARK    3  A    between atoms: C_4  and  O_5 
REMARK    4  A    between atoms: C_4  and  C_6 
REMARK       I    between atoms: C_13  and  N_14 
ROOT
HETATM    1  C   UNK N   1      35.049  15.322   9.938  0.00  0.00     0.057 A 
HETATM    2  C   UNK N   1      33.880  14.863  10.568  0.00  0.00     0.117 A 
HETATM    3  N   UNK N   1      32.662  15.162  10.042  0.00  0.00    -0.348 N 
ATOM      4  HN  UNK N   1      31.817  14.819  10.499  1.00  0.00     0.167 HD
HETATM    5  C   UNK N   1      32.559  15.911   8.913  0.00  0.00     0.153 A 
HETATM    6  N   UNK N   1      31.339  16.203   8.389  0.00  0.00    -0.174 N 
ATOM      7  HN  UNK N   1      30.497  15.851   8.843  1.00  0.00     0.186 HD
HETATM    8  C   UNK N   1      31.229  16.961   7.264  0.00  0.00     0.680 A 
HETATM    9  N   UNK N   1      29.958  17.242   6.729  0.00  0.00    -0.234 N 
HETATM   10  N   UNK N   1      32.344  17.446   6.652  0.00  0.00    -0.154 N 
HETATM   11  C   UNK N   1      33.593  17.174   7.145  0.00  0.00     0.290 A 
HETATM   12  O   UNK N   1      34.579  17.621   6.584  0.00  0.00    -0.265 OA
HETATM   13  C   UNK N   1      33.721  16.386   8.291  0.00  0.00     0.147 A 
HETATM   14  N   UNK N   1      34.938  16.072   8.808  0.00  0.00    -0.349 N 
ATOM     15  HN  UNK N   1      35.782  16.404   8.341  1.00  0.00     0.166 HD
HETATM   16  H   UNK N   1      29.863  17.878   5.984  0.00  0.00     0.174 HD
HETATM   17  H   UNK N   1      29.159  16.801   7.102  0.00  0.00     0.174 HD
HETATM   18  H   UNK N   1      32.251  18.001   5.843  0.00  0.00     0.187 HD
ENDROOT
BRANCH   1  19
HETATM   19  C   UNK N   1      36.416  14.951  10.466  0.00  0.00     0.197 C 
BRANCH  19  20
HETATM   20  C   UNK N   1      37.276  14.211   9.438  0.00  0.00     0.148 C 
HETATM   21  C   UNK N   1      38.357  13.408  10.139  0.00  0.00     0.042 C 
BRANCH  20  22
HETATM   22  O   UNK N   1      36.486  13.323   8.705  0.00  0.00    -0.393 OA
HETATM   23  H   UNK N   1      36.662  13.133   7.771  0.00  0.00     0.210 HD
ENDBRANCH  20  22
ENDBRANCH  19  20
BRANCH  19  24
HETATM   24  O   UNK N   1      37.090  16.088  10.927  0.00  0.00    -0.387 OA
HETATM   25  H   UNK N   1      36.604  16.827  11.328  0.00  0.00     0.210 HD
ENDBRANCH  19  24
ENDBRANCH   1  19
TORSDOF 4
ENDMDL
MODEL 7
REMARK VINA RESULT:      -5.6      2.511      6.174
REMARK  4 active torsions:
REMARK  status: ('A' for Active; 'I' for Inactive)
REMARK    1  A    between atoms: C_2  and  O_3 
REMARK    2  A    between atoms: C_2  and  C_4 
REMARK    3  A    between atoms: C_4  and  O_5 
REMARK    4  A    between atoms: C_4  and  C_6 
REMARK       I    between atoms: C_13  and  N_14 
ROOT
HETATM    1  C   UNK N   1      34.427  16.672   9.198  0.00  0.00     0.057 A 
HETATM    2  C   UNK N   1      34.722  17.897   8.575  0.00  0.00     0.117 A 
HETATM    3  N   UNK N   1      34.159  18.200   7.374  0.00  0.00    -0.348 N 
ATOM      4  HN  UNK N   1      34.369  19.094   6.930  1.00  0.00     0.167 HD
HETATM    5  C   UNK N   1      33.319  17.327   6.761  0.00  0.00     0.153 A 
HETATM    6  N   UNK N   1      32.756  17.637   5.563  0.00  0.00    -0.174 N 
ATOM      7  HN  UNK N   1      32.961  18.536   5.127  1.00  0.00     0.186 HD
HETATM    8  C   UNK N   1      31.920  16.762   4.940  0.00  0.00     0.680 A 
HETATM    9  N   UNK N   1      31.337  17.107   3.705  0.00  0.00    -0.234 N 
HETATM   10  N   UNK N   1      31.645  15.555   5.505  0.00  0.00    -0.154 N 
HETATM   11  C   UNK N   1      32.188  15.203   6.713  0.00  0.00     0.290 A 
HETATM   12  O   UNK N   1      31.931  14.116   7.201  0.00  0.00    -0.265 OA
HETATM   13  C   UNK N   1      33.036  16.096   7.370  0.00  0.00     0.147 A 
HETATM   14  N   UNK N   1      33.585  15.802   8.578  0.00  0.00    -0.349 N 
ATOM     15  HN  UNK N   1      33.362  14.913   9.027  1.00  0.00     0.166 HD
HETATM   16  H   UNK N   1      30.823  16.439   3.197  0.00  0.00     0.174 HD
HETATM   17  H   UNK N   1      31.444  18.019   3.350  0.00  0.00     0.174 HD
HETATM   18  H   UNK N   1      31.046  14.926   5.040  0.00  0.00     0.187 HD
ENDROOT
BRANCH   1  19
HETATM   19  C   UNK N   1      34.989  16.337  10.561  0.00  0.00     0.197 C 
BRANCH  19  20
HETATM   20  C   UNK N   1      34.685  14.901  10.998  0.00  0.00     0.148 C 
HETATM   21  C   UNK N   1      35.491  14.547  12.236  0.00  0.00     0.042 C 
BRANCH  20  22
HETATM   22  O   UNK N   1      33.331  14.773  11.314  0.00  0.00    -0.393 OA
HETATM   23  H   UNK N   1      33.036  14.464  12.184  0.00  0.00     0.210 HD
ENDBRANCH  20  22
ENDBRANCH  19  20
BRANCH  19  24
HETATM   24  O   UNK N   1      36.369  16.568  10.594  0.00  0.00    -0.387 OA
HETATM   25  H   UNK N   1      36.976  15.907  10.964  0.00  0.00     0.210 HD
ENDBRANCH  19  24
ENDBRANCH   1  19
TORSDOF 4
ENDMDL
MODEL 8
REMARK VINA RESULT:      -5.4      3.470      5.828
REMARK  4 active torsions:
REMARK  status: ('A' for Active; 'I' for Inactive)
REMARK    1  A    between atoms: C_2  and  O_3 
REMARK    2  A    between atoms: C_2  and  C_4 
REMARK    3  A    between atoms: C_4  and  O_5 
REMARK    4  A    between atoms: C_4  and  C_6 
REMARK       I    between atoms: C_13  and  N_14 
ROOT
HETATM    1  C   UNK N   1      35.742  14.138  12.295  0.00  0.00     0.057 A 
HETATM    2  C   UNK N   1      36.290  14.622  13.495  0.00  0.00     0.117 A 
HETATM    3  N   UNK N   1      36.183  13.889  14.636  0.00  0.00    -0.348 N 
ATOM      4  HN  UNK N   1      36.590  14.241  15.502  1.00  0.00     0.167 HD
HETATM    5  C   UNK N   1      35.540  12.692  14.633  0.00  0.00     0.153 A 
HETATM    6  N   UNK N   1      35.440  11.961  15.775  0.00  0.00    -0.174 N 
ATOM      7  HN  UNK N   1      35.857  12.312  16.637  1.00  0.00     0.186 HD
HETATM    8  C   UNK N   1      34.790  10.765  15.780  0.00  0.00     0.680 A 
HETATM    9  N   UNK N   1      34.707  10.017  16.970  0.00  0.00    -0.234 N 
HETATM   10  N   UNK N   1      34.221  10.289  14.639  0.00  0.00    -0.154 N 
HETATM   11  C   UNK N   1      34.301  10.992  13.466  0.00  0.00     0.290 A 
HETATM   12  O   UNK N   1      33.781  10.549  12.456  0.00  0.00    -0.265 OA
HETATM   13  C   UNK N   1      34.977  12.213  13.442  0.00  0.00     0.147 A 
HETATM   14  N   UNK N   1      35.100  12.939  12.300  0.00  0.00    -0.349 N 
ATOM     15  HN  UNK N   1      34.704  12.578  11.432  1.00  0.00     0.166 HD
HETATM   16  H   UNK N   1      34.146   9.209  17.009  0.00  0.00     0.174 HD
HETATM   17  H   UNK N   1      35.212  10.303  17.766  0.00  0.00     0.174 HD
HETATM   18  H   UNK N   1      33.745   9.426  14.658  0.00  0.00     0.187 HD
ENDROOT
BRANCH   1  19
HETATM   19  C   UNK N   1      35.902  14.903  11.001  0.00  0.00     0.197 C 
BRANCH  19  20
HETATM   20  C   UNK N   1      34.584  15.486  10.483  0.00  0.00     0.148 C 
HETATM   21  C   UNK N   1      34.365  15.081   9.035  0.00  0.00     0.042 C 
BRANCH  20  22
HETATM   22  O   UNK N   1      33.515  14.994  11.235  0.00  0.00    -0.393 OA
HETATM   23  H   UNK N   1      33.587  14.176  11.751  0.00  0.00     0.210 HD
ENDBRANCH  20  22
ENDBRANCH  19  20
BRANCH  19  24
HETATM   24  O   UNK N   1      36.853  15.920  11.145  0.00  0.00    -0.387 OA
HETATM   25  H   UNK N   1      37.795  15.709  11.248  0.00  0.00     0.210 HD
ENDBRANCH  19  24
ENDBRANCH   1  19
TORSDOF 4
ENDMDL
MODEL 9
REMARK VINA RESULT:      -5.4      3.658      5.934
REMARK  4 active torsions:
REMARK  status: ('A' for Active; 'I' for Inactive)
REMARK    1  A    between atoms: C_2  and  O_3 
REMARK    2  A    between atoms: C_2  and  C_4 
REMARK    3  A    between atoms: C_4  and  O_5 
REMARK    4  A    between atoms: C_4  and  C_6 
REMARK       I    between atoms: C_13  and  N_14 
ROOT
HETATM    1  C   UNK N   1      36.536  13.790  11.913  0.00  0.00     0.057 A 
HETATM    2  C   UNK N   1      37.602  12.897  11.714  0.00  0.00     0.117 A 
HETATM    3  N   UNK N   1      37.856  11.926  12.632  0.00  0.00    -0.348 N 
ATOM      4  HN  UNK N   1      38.626  11.275  12.478  1.00  0.00     0.167 HD
HETATM    5  C   UNK N   1      37.094  11.812  13.751  0.00  0.00     0.153 A 
HETATM    6  N   UNK N   1      37.349  10.837  14.663  0.00  0.00    -0.174 N 
ATOM      7  HN  UNK N   1      38.113  10.182  14.500  1.00  0.00     0.186 HD
HETATM    8  C   UNK N   1      36.594  10.724  15.789  0.00  0.00     0.680 A 
HETATM    9  N   UNK N   1      36.866   9.700  16.716  0.00  0.00    -0.234 N 
HETATM   10  N   UNK N   1      35.576  11.597  16.024  0.00  0.00    -0.154 N 
HETATM   11  C   UNK N   1      35.283  12.593  15.129  0.00  0.00     0.290 A 
HETATM   12  O   UNK N   1      34.369  13.366  15.359  0.00  0.00    -0.265 OA
HETATM   13  C   UNK N   1      36.039  12.711  13.963  0.00  0.00     0.147 A 
HETATM   14  N   UNK N   1      35.777  13.671  13.036  0.00  0.00    -0.349 N 
ATOM     15  HN  UNK N   1      34.997  14.311  13.185  1.00  0.00     0.166 HD
HETATM   16  H   UNK N   1      36.400   9.679  17.583  0.00  0.00     0.174 HD
HETATM   17  H   UNK N   1      37.525   9.001  16.497  0.00  0.00     0.174 HD
HETATM   18  H   UNK N   1      35.043  11.510  16.847  0.00  0.00     0.187 HD
ENDROOT
BRANCH   1  19
HETATM   19  C   UNK N   1      36.193  14.838  10.879  0.00  0.00     0.197 C 
BRANCH  19  20
HETATM   20  C   UNK N   1      34.943  15.647  11.237  0.00  0.00     0.148 C 
HETATM   21  C   UNK N   1      34.646  16.663  10.147  0.00  0.00     0.042 C 
BRANCH  20  22
HETATM   22  O   UNK N   1      33.840  14.799  11.348  0.00  0.00    -0.393 OA
HETATM   23  H   UNK N   1      33.925  13.836  11.264  0.00  0.00     0.210 HD
ENDBRANCH  20  22
ENDBRANCH  19  20
BRANCH  19  24
HETATM   24  O   UNK N   1      37.279  15.696  10.671  0.00  0.00    -0.387 OA
HETATM   25  H   UNK N   1      37.141  16.611  10.376  0.00  0.00     0.210 HD
ENDBRANCH  19  24
ENDBRANCH   1  19
TORSDOF 4
ENDMDL
