MODEL 1
REMARK VINA RESULT:      -7.3      0.000      0.000
REMARK  16 active torsions:
REMARK  status: ('A' for Active; 'I' for Inactive)
REMARK    1  A    between atoms: C_18  and  C_15 
REMARK    2  A    between atoms: C_22  and  C_15 
REMARK    3  A    between atoms: C_20  and  C_16 
REMARK    4  A    between atoms: C_23  and  C_16 
REMARK    5  A    between atoms: C_19  and  C_17 
REMARK    6  A    between atoms: C_24  and  C_17 
REMARK    7  A    between atoms: O_32  and  C_21 
REMARK    8  A    between atoms: C_25  and  C_22 
REMARK    9  A    between atoms: C_22  and  N_28 
REMARK   10  A    between atoms: C_27  and  C_23 
REMARK   11  A    between atoms: C_23  and  N_30 
REMARK   12  A    between atoms: C_26  and  C_24 
REMARK   13  A    between atoms: C_24  and  S_37 
REMARK   14  A    between atoms: C_25  and  O_33 
REMARK   15  A    between atoms: C_26  and  O_34 
REMARK   16  A    between atoms: O_36  and  C_27 
ROOT
HETATM    1  C   UNK N   1      34.349  14.316   9.663  0.00  0.00     0.162 C 
ENDROOT
BRANCH   1   2
HETATM    2  C   UNK N   1      33.806  13.375   8.572  0.00  0.00     0.072 C 
BRANCH   2   3
HETATM    3  C   UNK N   1      34.418  13.506   7.207  0.00  0.00    -0.056 A 
HETATM    4  C   UNK N   1      35.474  14.400   6.992  0.00  0.00     0.007 A 
HETATM    5  C   UNK N   1      35.994  14.573   5.703  0.00  0.00     0.001 A 
HETATM    6  C   UNK N   1      35.453  13.862   4.626  0.00  0.00     0.000 A 
HETATM    7  C   UNK N   1      34.392  12.979   4.836  0.00  0.00     0.001 A 
HETATM    8  C   UNK N   1      33.871  12.808   6.121  0.00  0.00     0.007 A 
ENDBRANCH   2   3
ENDBRANCH   1   2
BRANCH   1   9
HETATM    9  C   UNK N   1      33.265  15.360   9.908  0.00  0.00     0.135 C 
HETATM   10  N   UNK N   1      33.162  16.490   9.280  0.00  0.00    -0.358 N 
ATOM     11  HN  UNK N   1      32.345  17.053   9.517  1.00  0.00     0.162 HD
BRANCH  10  12
HETATM   12  C   UNK N   1      34.051  17.065   8.284  0.00  0.00     0.185 C 
BRANCH  12  13
HETATM   13  C   UNK N   1      33.238  17.862   7.265  0.00  0.00     0.074 C 
BRANCH  13  14
HETATM   14  C   UNK N   1      32.807  17.019   6.109  0.00  0.00    -0.056 A 
HETATM   15  C   UNK N   1      31.788  16.071   6.255  0.00  0.00     0.010 A 
HETATM   16  C   UNK N   1      31.373  15.316   5.156  0.00  0.00     0.037 A 
HETATM   17  C   UNK N   1      31.978  15.505   3.910  0.00  0.00     0.065 A 
HETATM   18  C   UNK N   1      33.003  16.445   3.765  0.00  0.00     0.037 A 
HETATM   19  C   UNK N   1      33.417  17.200   4.864  0.00  0.00     0.010 A 
BRANCH  17  20
HETATM   20  O   UNK N   1      31.574  14.785   2.852  0.00  0.00    -0.361 OA
HETATM   21  H   UNK N   1      30.697  14.858   2.530  0.00  0.00     0.217 HD
ENDBRANCH  17  20
ENDBRANCH  13  14
ENDBRANCH  12  13
BRANCH  12  22
HETATM   22  C   UNK N   1      34.984  18.007   8.990  0.00  0.00     0.163 C 
HETATM   23  O   UNK N   1      35.226  19.106   8.517  0.00  0.00    -0.648 OA
BRANCH  22  24
HETATM   24  O   UNK N   1      35.569  17.637  10.147  0.00  0.00    -0.775 OA
HETATM   25  H   UNK N   1      35.390  16.991  10.802  0.00  0.00     0.167 HD
ENDBRANCH  22  24
ENDBRANCH  12  22
ENDBRANCH  10  12
BRANCH   9  26
HETATM   26  O   UNK N   1      32.340  15.078  10.847  0.00  0.00    -0.348 OA
HETATM   27  H   UNK N   1      31.559  14.941  11.347  0.00  0.00     0.219 HD
ENDBRANCH   9  26
ENDBRANCH   1   9
BRANCH   1  28
HETATM   28  N   UNK N   1      34.581  13.582  10.892  0.00  0.00    -0.361 N 
HETATM   29  C   UNK N   1      35.506  13.890  11.739  0.00  0.00     0.126 C 
ATOM     30  HN  UNK N   1      33.983  12.782  11.098  1.00  0.00     0.162 HD
BRANCH  29  31
HETATM   31  C   UNK N   1      35.672  13.065  12.990  0.00  0.00     0.122 C 
BRANCH  31  32
HETATM   32  C   UNK N   1      36.767  13.669  13.879  0.00  0.00     0.061 C 
BRANCH  32  33
HETATM   33  C   UNK N   1      36.381  13.884  15.310  0.00  0.00    -0.057 A 
HETATM   34  C   UNK N   1      36.985  14.887  16.080  0.00  0.00     0.007 A 
HETATM   35  C   UNK N   1      36.579  15.101  17.400  0.00  0.00     0.001 A 
HETATM   36  C   UNK N   1      35.561  14.318  17.953  0.00  0.00     0.000 A 
HETATM   37  C   UNK N   1      34.950  13.322  17.186  0.00  0.00     0.001 A 
HETATM   38  C   UNK N   1      35.358  13.108  15.865  0.00  0.00     0.007 A 
ENDBRANCH  32  33
ENDBRANCH  31  32
BRANCH  31  39
HETATM   39  S   UNK N   1      36.096  11.356  12.509  0.00  0.00    -0.169 SA
HETATM   40  H   UNK N   1      37.057  10.958  11.632  0.00  0.00     0.102 HD
ENDBRANCH  31  39
ENDBRANCH  29  31
BRANCH  29  41
HETATM   41  O   UNK N   1      36.329  14.937  11.502  0.00  0.00    -0.349 OA
HETATM   42  H   UNK N   1      36.313  15.505  10.757  0.00  0.00     0.219 HD
ENDBRANCH  29  41
ENDBRANCH   1  28
TORSDOF 16
ENDMDL
MODEL 2
REMARK VINA RESULT:      -7.1     12.580     14.681
REMARK  16 active torsions:
REMARK  status: ('A' for Active; 'I' for Inactive)
REMARK    1  A    between atoms: C_18  and  C_15 
REMARK    2  A    between atoms: C_22  and  C_15 
REMARK    3  A    between atoms: C_20  and  C_16 
REMARK    4  A    between atoms: C_23  and  C_16 
REMARK    5  A    between atoms: C_19  and  C_17 
REMARK    6  A    between atoms: C_24  and  C_17 
REMARK    7  A    between atoms: O_32  and  C_21 
REMARK    8  A    between atoms: C_25  and  C_22 
REMARK    9  A    between atoms: C_22  and  N_28 
REMARK   10  A    between atoms: C_27  and  C_23 
REMARK   11  A    between atoms: C_23  and  N_30 
REMARK   12  A    between atoms: C_26  and  C_24 
REMARK   13  A    between atoms: C_24  and  S_37 
REMARK   14  A    between atoms: C_25  and  O_33 
REMARK   15  A    between atoms: C_26  and  O_34 
REMARK   16  A    between atoms: O_36  and  C_27 
ROOT
HETATM    1  C   UNK N   1      20.452  15.583   4.983  0.00  0.00     0.162 C 
ENDROOT
BRANCH   1   2
HETATM    2  C   UNK N   1      20.514  14.137   4.457  0.00  0.00     0.072 C 
BRANCH   2   3
HETATM    3  C   UNK N   1      21.391  13.184   5.216  0.00  0.00    -0.056 A 
HETATM    4  C   UNK N   1      20.823  12.243   6.084  0.00  0.00     0.007 A 
HETATM    5  C   UNK N   1      21.647  11.405   6.846  0.00  0.00     0.001 A 
HETATM    6  C   UNK N   1      23.038  11.513   6.750  0.00  0.00     0.000 A 
HETATM    7  C   UNK N   1      23.608  12.458   5.894  0.00  0.00     0.001 A 
HETATM    8  C   UNK N   1      22.786  13.296   5.136  0.00  0.00     0.007 A 
ENDBRANCH   2   3
ENDBRANCH   1   2
BRANCH   1   9
HETATM    9  C   UNK N   1      19.247  16.233   4.311  0.00  0.00     0.135 C 
HETATM   10  N   UNK N   1      19.286  16.922   3.213  0.00  0.00    -0.358 N 
ATOM     11  HN  UNK N   1      18.384  17.240   2.861  1.00  0.00     0.162 HD
BRANCH  10  12
HETATM   12  C   UNK N   1      20.441  17.303   2.416  0.00  0.00     0.185 C 
BRANCH  12  13
HETATM   13  C   UNK N   1      20.285  16.765   0.994  0.00  0.00     0.074 C 
BRANCH  13  14
HETATM   14  C   UNK N   1      20.504  15.289   0.927  0.00  0.00    -0.056 A 
HETATM   15  C   UNK N   1      19.437  14.418   0.677  0.00  0.00     0.010 A 
HETATM   16  C   UNK N   1      19.665  13.043   0.582  0.00  0.00     0.037 A 
HETATM   17  C   UNK N   1      20.958  12.536   0.740  0.00  0.00     0.065 A 
HETATM   18  C   UNK N   1      22.023  13.405   0.999  0.00  0.00     0.037 A 
HETATM   19  C   UNK N   1      21.795  14.779   1.093  0.00  0.00     0.010 A 
BRANCH  17  20
HETATM   20  O   UNK N   1      21.178  11.217   0.640  0.00  0.00    -0.361 OA
HETATM   21  H   UNK N   1      21.971  10.890   0.262  0.00  0.00     0.217 HD
ENDBRANCH  17  20
ENDBRANCH  13  14
ENDBRANCH  12  13
BRANCH  12  22
HETATM   22  C   UNK N   1      20.482  18.803   2.356  0.00  0.00     0.163 C 
HETATM   23  O   UNK N   1      20.562  19.461   3.381  0.00  0.00    -0.648 OA
BRANCH  22  24
HETATM   24  O   UNK N   1      20.421  19.433   1.165  0.00  0.00    -0.775 OA
HETATM   25  H   UNK N   1      21.028  19.593   0.470  0.00  0.00     0.167 HD
ENDBRANCH  22  24
ENDBRANCH  12  22
ENDBRANCH  10  12
BRANCH   9  26
HETATM   26  O   UNK N   1      18.049  16.069   4.907  0.00  0.00    -0.348 OA
HETATM   27  H   UNK N   1      17.255  15.748   5.288  0.00  0.00     0.219 HD
ENDBRANCH   9  26
ENDBRANCH   1   9
BRANCH   1  28
HETATM   28  N   UNK N   1      20.250  15.589   6.419  0.00  0.00    -0.361 N 
HETATM   29  C   UNK N   1      20.821  16.432   7.213  0.00  0.00     0.126 C 
ATOM     30  HN  UNK N   1      19.625  14.892   6.823  1.00  0.00     0.162 HD
BRANCH  29  31
HETATM   31  C   UNK N   1      20.550  16.359   8.694  0.00  0.00     0.122 C 
BRANCH  31  32
HETATM   32  C   UNK N   1      19.976  14.982   9.058  0.00  0.00     0.061 C 
BRANCH  32  33
HETATM   33  C   UNK N   1      20.949  14.029   9.680  0.00  0.00    -0.057 A 
HETATM   34  C   UNK N   1      20.520  13.031  10.565  0.00  0.00     0.007 A 
HETATM   35  C   UNK N   1      21.438  12.123  11.100  0.00  0.00     0.001 A 
HETATM   36  C   UNK N   1      22.788  12.203  10.744  0.00  0.00     0.000 A 
HETATM   37  C   UNK N   1      23.218  13.191   9.854  0.00  0.00     0.001 A 
HETATM   38  C   UNK N   1      22.299  14.100   9.320  0.00  0.00     0.007 A 
ENDBRANCH  32  33
ENDBRANCH  31  32
BRANCH  31  39
HETATM   39  S   UNK N   1      19.380  17.687   9.140  0.00  0.00    -0.169 SA
HETATM   40  H   UNK N   1      18.813  18.603   8.309  0.00  0.00     0.102 HD
ENDBRANCH  31  39
ENDBRANCH  29  31
BRANCH  29  41
HETATM   41  O   UNK N   1      21.665  17.368   6.723  0.00  0.00    -0.349 OA
HETATM   42  H   UNK N   1      22.430  17.709   7.144  0.00  0.00     0.219 HD
ENDBRANCH  29  41
ENDBRANCH   1  28
TORSDOF 16
ENDMDL
MODEL 3
REMARK VINA RESULT:      -7.1      0.910      1.556
REMARK  16 active torsions:
REMARK  status: ('A' for Active; 'I' for Inactive)
REMARK    1  A    between atoms: C_18  and  C_15 
REMARK    2  A    between atoms: C_22  and  C_15 
REMARK    3  A    between atoms: C_20  and  C_16 
REMARK    4  A    between atoms: C_23  and  C_16 
REMARK    5  A    between atoms: C_19  and  C_17 
REMARK    6  A    between atoms: C_24  and  C_17 
REMARK    7  A    between atoms: O_32  and  C_21 
REMARK    8  A    between atoms: C_25  and  C_22 
REMARK    9  A    between atoms: C_22  and  N_28 
REMARK   10  A    between atoms: C_27  and  C_23 
REMARK   11  A    between atoms: C_23  and  N_30 
REMARK   12  A    between atoms: C_26  and  C_24 
REMARK   13  A    between atoms: C_24  and  S_37 
REMARK   14  A    between atoms: C_25  and  O_33 
REMARK   15  A    between atoms: C_26  and  O_34 
REMARK   16  A    between atoms: O_36  and  C_27 
ROOT
HETATM    1  C   UNK N   1      34.147  14.211   9.398  0.00  0.00     0.162 C 
ENDROOT
BRANCH   1   2
HETATM    2  C   UNK N   1      33.281  13.430   8.393  0.00  0.00     0.072 C 
BRANCH   2   3
HETATM    3  C   UNK N   1      33.675  13.530   6.947  0.00  0.00    -0.056 A 
HETATM    4  C   UNK N   1      32.953  12.834   5.971  0.00  0.00     0.007 A 
HETATM    5  C   UNK N   1      33.367  12.870   4.634  0.00  0.00     0.001 A 
HETATM    6  C   UNK N   1      34.509  13.593   4.272  0.00  0.00     0.000 A 
HETATM    7  C   UNK N   1      35.238  14.280   5.245  0.00  0.00     0.001 A 
HETATM    8  C   UNK N   1      34.827  14.241   6.580  0.00  0.00     0.007 A 
ENDBRANCH   2   3
ENDBRANCH   1   2
BRANCH   1   9
HETATM    9  C   UNK N   1      33.264  15.324   9.952  0.00  0.00     0.135 C 
HETATM   10  N   UNK N   1      33.219  16.538   9.497  0.00  0.00    -0.358 N 
ATOM     11  HN  UNK N   1      32.532  17.148   9.939  1.00  0.00     0.162 HD
BRANCH  10  12
HETATM   12  C   UNK N   1      34.015  17.147   8.445  0.00  0.00     0.185 C 
BRANCH  12  13
HETATM   13  C   UNK N   1      33.126  18.037   7.577  0.00  0.00     0.074 C 
BRANCH  13  14
HETATM   14  C   UNK N   1      32.619  17.315   6.371  0.00  0.00    -0.056 A 
HETATM   15  C   UNK N   1      31.473  16.515   6.446  0.00  0.00     0.010 A 
HETATM   16  C   UNK N   1      30.991  15.875   5.301  0.00  0.00     0.037 A 
HETATM   17  C   UNK N   1      31.656  16.032   4.081  0.00  0.00     0.065 A 
HETATM   18  C   UNK N   1      32.806  16.823   4.008  0.00  0.00     0.037 A 
HETATM   19  C   UNK N   1      33.287  17.464   5.152  0.00  0.00     0.010 A 
BRANCH  17  20
HETATM   20  O   UNK N   1      31.189  15.424   2.980  0.00  0.00    -0.361 OA
HETATM   21  H   UNK N   1      30.444  14.858   3.025  0.00  0.00     0.217 HD
ENDBRANCH  17  20
ENDBRANCH  13  14
ENDBRANCH  12  13
BRANCH  12  22
HETATM   22  C   UNK N   1      35.058  18.009   9.097  0.00  0.00     0.163 C 
HETATM   23  O   UNK N   1      35.640  17.623  10.099  0.00  0.00    -0.648 OA
BRANCH  22  24
HETATM   24  O   UNK N   1      35.349  19.222   8.585  0.00  0.00    -0.775 OA
HETATM   25  H   UNK N   1      35.142  20.106   8.819  0.00  0.00     0.167 HD
ENDBRANCH  22  24
ENDBRANCH  12  22
ENDBRANCH  10  12
BRANCH   9  26
HETATM   26  O   UNK N   1      32.465  15.014  10.992  0.00  0.00    -0.348 OA
HETATM   27  H   UNK N   1      32.000  14.970  11.805  0.00  0.00     0.219 HD
ENDBRANCH   9  26
ENDBRANCH   1   9
BRANCH   1  28
HETATM   28  N   UNK N   1      34.556  13.348  10.489  0.00  0.00    -0.361 N 
HETATM   29  C   UNK N   1      35.606  13.561  11.208  0.00  0.00     0.126 C 
ATOM     30  HN  UNK N   1      33.985  12.530  10.698  1.00  0.00     0.162 HD
BRANCH  29  31
HETATM   31  C   UNK N   1      35.951  12.605  12.321  0.00  0.00     0.122 C 
BRANCH  31  32
HETATM   32  C   UNK N   1      36.416  13.382  13.561  0.00  0.00     0.061 C 
BRANCH  32  33
HETATM   33  C   UNK N   1      36.069  12.754  14.875  0.00  0.00    -0.057 A 
HETATM   34  C   UNK N   1      36.606  11.514  15.248  0.00  0.00     0.007 A 
HETATM   35  C   UNK N   1      36.305  10.965  16.498  0.00  0.00     0.001 A 
HETATM   36  C   UNK N   1      35.474  11.659  17.384  0.00  0.00     0.000 A 
HETATM   37  C   UNK N   1      34.944  12.900  17.019  0.00  0.00     0.001 A 
HETATM   38  C   UNK N   1      35.245  13.447  15.767  0.00  0.00     0.007 A 
ENDBRANCH  32  33
ENDBRANCH  31  32
BRANCH  31  39
HETATM   39  S   UNK N   1      37.261  11.477  11.735  0.00  0.00    -0.169 SA
HETATM   40  H   UNK N   1      38.574  11.770  11.531  0.00  0.00     0.102 HD
ENDBRANCH  31  39
ENDBRANCH  29  31
BRANCH  29  41
HETATM   41  O   UNK N   1      36.399  14.629  10.960  0.00  0.00    -0.349 OA
HETATM   42  H   UNK N   1      36.226  15.521  11.188  0.00  0.00     0.219 HD
ENDBRANCH  29  41
ENDBRANCH   1  28
TORSDOF 16
ENDMDL
MODEL 4
REMARK VINA RESULT:      -7.0     15.424     19.756
REMARK  16 active torsions:
REMARK  status: ('A' for Active; 'I' for Inactive)
REMARK    1  A    between atoms: C_18  and  C_15 
REMARK    2  A    between atoms: C_22  and  C_15 
REMARK    3  A    between atoms: C_20  and  C_16 
REMARK    4  A    between atoms: C_23  and  C_16 
REMARK    5  A    between atoms: C_19  and  C_17 
REMARK    6  A    between atoms: C_24  and  C_17 
REMARK    7  A    between atoms: O_32  and  C_21 
REMARK    8  A    between atoms: C_25  and  C_22 
REMARK    9  A    between atoms: C_22  and  N_28 
REMARK   10  A    between atoms: C_27  and  C_23 
REMARK   11  A    between atoms: C_23  and  N_30 
REMARK   12  A    between atoms: C_26  and  C_24 
REMARK   13  A    between atoms: C_24  and  S_37 
REMARK   14  A    between atoms: C_25  and  O_33 
REMARK   15  A    between atoms: C_26  and  O_34 
REMARK   16  A    between atoms: O_36  and  C_27 
ROOT
HETATM    1  C   UNK N   1      29.125  25.328  -4.408  0.00  0.00     0.162 C 
ENDROOT
BRANCH   1   2
HETATM    2  C   UNK N   1      29.436  25.299  -5.916  0.00  0.00     0.072 C 
BRANCH   2   3
HETATM    3  C   UNK N   1      28.779  24.212  -6.716  0.00  0.00    -0.056 A 
HETATM    4  C   UNK N   1      29.138  24.006  -8.053  0.00  0.00     0.007 A 
HETATM    5  C   UNK N   1      28.471  23.040  -8.818  0.00  0.00     0.001 A 
HETATM    6  C   UNK N   1      27.438  22.287  -8.251  0.00  0.00     0.000 A 
HETATM    7  C   UNK N   1      27.070  22.497  -6.920  0.00  0.00     0.001 A 
HETATM    8  C   UNK N   1      27.732  23.463  -6.158  0.00  0.00     0.007 A 
ENDBRANCH   2   3
ENDBRANCH   1   2
BRANCH   1   9
HETATM    9  C   UNK N   1      30.464  25.485  -3.696  0.00  0.00     0.135 C 
HETATM   10  N   UNK N   1      31.290  24.519  -3.438  0.00  0.00    -0.358 N 
ATOM     11  HN  UNK N   1      32.172  24.798  -3.008  1.00  0.00     0.162 HD
BRANCH  10  12
HETATM   12  C   UNK N   1      31.130  23.094  -3.675  0.00  0.00     0.185 C 
BRANCH  12  13
HETATM   13  C   UNK N   1      32.235  22.600  -4.607  0.00  0.00     0.074 C 
BRANCH  13  14
HETATM   14  C   UNK N   1      31.689  21.818  -5.758  0.00  0.00    -0.056 A 
HETATM   15  C   UNK N   1      30.610  20.945  -5.582  0.00  0.00     0.010 A 
HETATM   16  C   UNK N   1      30.088  20.249  -6.675  0.00  0.00     0.037 A 
HETATM   17  C   UNK N   1      30.648  20.422  -7.945  0.00  0.00     0.065 A 
HETATM   18  C   UNK N   1      31.734  21.286  -8.119  0.00  0.00     0.037 A 
HETATM   19  C   UNK N   1      32.254  21.983  -7.027  0.00  0.00     0.010 A 
BRANCH  17  20
HETATM   20  O   UNK N   1      30.143  19.759  -8.996  0.00  0.00    -0.361 OA
HETATM   21  H   UNK N   1      29.292  19.966  -9.329  0.00  0.00     0.217 HD
ENDBRANCH  17  20
ENDBRANCH  13  14
ENDBRANCH  12  13
BRANCH  12  22
HETATM   22  C   UNK N   1      31.269  22.390  -2.356  0.00  0.00     0.163 C 
HETATM   23  O   UNK N   1      30.618  22.753  -1.389  0.00  0.00    -0.648 OA
BRANCH  22  24
HETATM   24  O   UNK N   1      32.126  21.357  -2.230  0.00  0.00    -0.775 OA
HETATM   25  H   UNK N   1      33.030  21.271  -1.994  0.00  0.00     0.167 HD
ENDBRANCH  22  24
ENDBRANCH  12  22
ENDBRANCH  10  12
BRANCH   9  26
HETATM   26  O   UNK N   1      30.815  26.729  -3.314  0.00  0.00    -0.348 OA
HETATM   27  H   UNK N   1      30.939  27.550  -2.877  0.00  0.00     0.219 HD
ENDBRANCH   9  26
ENDBRANCH   1   9
BRANCH   1  28
HETATM   28  N   UNK N   1      28.286  26.467  -4.089  0.00  0.00    -0.361 N 
HETATM   29  C   UNK N   1      27.090  26.357  -3.614  0.00  0.00     0.126 C 
ATOM     30  HN  UNK N   1      28.659  27.402  -4.247  1.00  0.00     0.162 HD
BRANCH  29  31
HETATM   31  C   UNK N   1      26.293  27.600  -3.314  0.00  0.00     0.122 C 
BRANCH  31  32
HETATM   32  C   UNK N   1      25.470  28.009  -4.543  0.00  0.00     0.061 C 
BRANCH  32  33
HETATM   33  C   UNK N   1      26.035  27.581  -5.862  0.00  0.00    -0.057 A 
HETATM   34  C   UNK N   1      25.444  26.548  -6.602  0.00  0.00     0.007 A 
HETATM   35  C   UNK N   1      25.960  26.193  -7.851  0.00  0.00     0.001 A 
HETATM   36  C   UNK N   1      27.065  26.875  -8.369  0.00  0.00     0.000 A 
HETATM   37  C   UNK N   1      27.653  27.911  -7.638  0.00  0.00     0.001 A 
HETATM   38  C   UNK N   1      27.136  28.265  -6.387  0.00  0.00     0.007 A 
ENDBRANCH  32  33
ENDBRANCH  31  32
BRANCH  31  39
HETATM   39  S   UNK N   1      27.446  28.931  -2.834  0.00  0.00    -0.169 SA
HETATM   40  H   UNK N   1      28.175  29.021  -1.689  0.00  0.00     0.102 HD
ENDBRANCH  31  39
ENDBRANCH  29  31
BRANCH  29  41
HETATM   41  O   UNK N   1      26.550  25.136  -3.397  0.00  0.00    -0.349 OA
HETATM   42  H   UNK N   1      26.997  24.372  -3.088  0.00  0.00     0.219 HD
ENDBRANCH  29  41
ENDBRANCH   1  28
TORSDOF 16
ENDMDL
MODEL 5
REMARK VINA RESULT:      -6.9      2.042      3.028
REMARK  16 active torsions:
REMARK  status: ('A' for Active; 'I' for Inactive)
REMARK    1  A    between atoms: C_18  and  C_15 
REMARK    2  A    between atoms: C_22  and  C_15 
REMARK    3  A    between atoms: C_20  and  C_16 
REMARK    4  A    between atoms: C_23  and  C_16 
REMARK    5  A    between atoms: C_19  and  C_17 
REMARK    6  A    between atoms: C_24  and  C_17 
REMARK    7  A    between atoms: O_32  and  C_21 
REMARK    8  A    between atoms: C_25  and  C_22 
REMARK    9  A    between atoms: C_22  and  N_28 
REMARK   10  A    between atoms: C_27  and  C_23 
REMARK   11  A    between atoms: C_23  and  N_30 
REMARK   12  A    between atoms: C_26  and  C_24 
REMARK   13  A    between atoms: C_24  and  S_37 
REMARK   14  A    between atoms: C_25  and  O_33 
REMARK   15  A    between atoms: C_26  and  O_34 
REMARK   16  A    between atoms: O_36  and  C_27 
ROOT
HETATM    1  C   UNK N   1      33.957  14.159   9.273  0.00  0.00     0.162 C 
ENDROOT
BRANCH   1   2
HETATM    2  C   UNK N   1      33.136  13.366   8.239  0.00  0.00     0.072 C 
BRANCH   2   3
HETATM    3  C   UNK N   1      33.111  13.914   6.841  0.00  0.00    -0.056 A 
HETATM    4  C   UNK N   1      31.889  14.169   6.208  0.00  0.00     0.007 A 
HETATM    5  C   UNK N   1      31.867  14.610   4.879  0.00  0.00     0.001 A 
HETATM    6  C   UNK N   1      33.065  14.785   4.177  0.00  0.00     0.000 A 
HETATM    7  C   UNK N   1      34.285  14.520   4.803  0.00  0.00     0.001 A 
HETATM    8  C   UNK N   1      34.307  14.077   6.128  0.00  0.00     0.007 A 
ENDBRANCH   2   3
ENDBRANCH   1   2
BRANCH   1   9
HETATM    9  C   UNK N   1      33.039  15.257   9.801  0.00  0.00     0.135 C 
HETATM   10  N   UNK N   1      32.934  16.447   9.297  0.00  0.00    -0.358 N 
ATOM     11  HN  UNK N   1      32.230  17.047   9.728  1.00  0.00     0.162 HD
BRANCH  10  12
HETATM   12  C   UNK N   1      33.682  17.044   8.204  0.00  0.00     0.185 C 
BRANCH  12  13
HETATM   13  C   UNK N   1      32.744  17.880   7.333  0.00  0.00     0.074 C 
BRANCH  13  14
HETATM   14  C   UNK N   1      31.356  17.918   7.883  0.00  0.00    -0.056 A 
HETATM   15  C   UNK N   1      31.052  18.692   9.009  0.00  0.00     0.010 A 
HETATM   16  C   UNK N   1      29.741  18.744   9.489  0.00  0.00     0.037 A 
HETATM   17  C   UNK N   1      28.732  18.020   8.846  0.00  0.00     0.065 A 
HETATM   18  C   UNK N   1      29.037  17.238   7.727  0.00  0.00     0.037 A 
HETATM   19  C   UNK N   1      30.347  17.187   7.247  0.00  0.00     0.010 A 
BRANCH  17  20
HETATM   20  O   UNK N   1      27.472  18.076   9.302  0.00  0.00    -0.361 OA
HETATM   21  H   UNK N   1      27.286  17.950  10.212  0.00  0.00     0.217 HD
ENDBRANCH  17  20
ENDBRANCH  13  14
ENDBRANCH  12  13
BRANCH  12  22
HETATM   22  C   UNK N   1      34.717  17.955   8.799  0.00  0.00     0.163 C 
HETATM   23  O   UNK N   1      34.951  19.040   8.290  0.00  0.00    -0.648 OA
BRANCH  22  24
HETATM   24  O   UNK N   1      35.403  17.574   9.895  0.00  0.00    -0.775 OA
HETATM   25  H   UNK N   1      35.428  17.852  10.790  0.00  0.00     0.167 HD
ENDBRANCH  22  24
ENDBRANCH  12  22
ENDBRANCH  10  12
BRANCH   9  26
HETATM   26  O   UNK N   1      32.274  14.958  10.869  0.00  0.00    -0.348 OA
HETATM   27  H   UNK N   1      31.660  14.945  11.578  0.00  0.00     0.219 HD
ENDBRANCH   9  26
ENDBRANCH   1   9
BRANCH   1  28
HETATM   28  N   UNK N   1      34.344  13.299  10.376  0.00  0.00    -0.361 N 
HETATM   29  C   UNK N   1      35.340  13.551  11.157  0.00  0.00     0.126 C 
ATOM     30  HN  UNK N   1      33.800  12.453  10.543  1.00  0.00     0.162 HD
BRANCH  29  31
HETATM   31  C   UNK N   1      35.667  12.595  12.276  0.00  0.00     0.122 C 
BRANCH  31  32
HETATM   32  C   UNK N   1      35.404  13.263  13.633  0.00  0.00     0.061 C 
BRANCH  32  33
HETATM   33  C   UNK N   1      35.257  12.322  14.789  0.00  0.00    -0.057 A 
HETATM   34  C   UNK N   1      35.696  12.678  16.072  0.00  0.00     0.007 A 
HETATM   35  C   UNK N   1      35.510  11.804  17.146  0.00  0.00     0.001 A 
HETATM   36  C   UNK N   1      34.875  10.574  16.944  0.00  0.00     0.000 A 
HETATM   37  C   UNK N   1      34.428  10.220  15.668  0.00  0.00     0.001 A 
HETATM   38  C   UNK N   1      34.616  11.095  14.593  0.00  0.00     0.007 A 
ENDBRANCH  32  33
ENDBRANCH  31  32
BRANCH  31  39
HETATM   39  S   UNK N   1      37.416  12.098  12.126  0.00  0.00    -0.169 SA
HETATM   40  H   UNK N   1      38.469  12.876  11.758  0.00  0.00     0.102 HD
ENDBRANCH  31  39
ENDBRANCH  29  31
BRANCH  29  41
HETATM   41  O   UNK N   1      36.096  14.657  10.966  0.00  0.00    -0.349 OA
HETATM   42  H   UNK N   1      36.370  15.268  11.621  0.00  0.00     0.219 HD
ENDBRANCH  29  41
ENDBRANCH   1  28
TORSDOF 16
ENDMDL
MODEL 6
REMARK VINA RESULT:      -6.9      5.789      9.161
REMARK  16 active torsions:
REMARK  status: ('A' for Active; 'I' for Inactive)
REMARK    1  A    between atoms: C_18  and  C_15 
REMARK    2  A    between atoms: C_22  and  C_15 
REMARK    3  A    between atoms: C_20  and  C_16 
REMARK    4  A    between atoms: C_23  and  C_16 
REMARK    5  A    between atoms: C_19  and  C_17 
REMARK    6  A    between atoms: C_24  and  C_17 
REMARK    7  A    between atoms: O_32  and  C_21 
REMARK    8  A    between atoms: C_25  and  C_22 
REMARK    9  A    between atoms: C_22  and  N_28 
REMARK   10  A    between atoms: C_27  and  C_23 
REMARK   11  A    between atoms: C_23  and  N_30 
REMARK   12  A    between atoms: C_26  and  C_24 
REMARK   13  A    between atoms: C_24  and  S_37 
REMARK   14  A    between atoms: C_25  and  O_33 
REMARK   15  A    between atoms: C_26  and  O_34 
REMARK   16  A    between atoms: O_36  and  C_27 
ROOT
HETATM    1  C   UNK N   1      28.313  16.711   5.558  0.00  0.00     0.162 C 
ENDROOT
BRANCH   1   2
HETATM    2  C   UNK N   1      29.071  16.829   4.223  0.00  0.00     0.072 C 
BRANCH   2   3
HETATM    3  C   UNK N   1      30.557  16.620   4.274  0.00  0.00    -0.056 A 
HETATM    4  C   UNK N   1      31.420  17.718   4.373  0.00  0.00     0.007 A 
HETATM    5  C   UNK N   1      32.806  17.524   4.346  0.00  0.00     0.001 A 
HETATM    6  C   UNK N   1      33.332  16.235   4.210  0.00  0.00     0.000 A 
HETATM    7  C   UNK N   1      32.475  15.139   4.100  0.00  0.00     0.001 A 
HETATM    8  C   UNK N   1      31.091  15.332   4.124  0.00  0.00     0.007 A 
ENDBRANCH   2   3
ENDBRANCH   1   2
BRANCH   1   9
HETATM    9  C   UNK N   1      28.263  18.115   6.151  0.00  0.00     0.135 C 
HETATM   10  N   UNK N   1      28.814  18.473   7.269  0.00  0.00    -0.358 N 
ATOM     11  HN  UNK N   1      28.741  19.464   7.497  1.00  0.00     0.162 HD
BRANCH  10  12
HETATM   12  C   UNK N   1      29.518  17.655   8.241  0.00  0.00     0.185 C 
BRANCH  12  13
HETATM   13  C   UNK N   1      30.824  18.341   8.643  0.00  0.00     0.074 C 
BRANCH  13  14
HETATM   14  C   UNK N   1      32.022  17.540   8.251  0.00  0.00    -0.056 A 
HETATM   15  C   UNK N   1      33.250  18.163   8.002  0.00  0.00     0.010 A 
HETATM   16  C   UNK N   1      34.369  17.395   7.671  0.00  0.00     0.037 A 
HETATM   17  C   UNK N   1      34.261  16.004   7.585  0.00  0.00     0.065 A 
HETATM   18  C   UNK N   1      33.032  15.381   7.822  0.00  0.00     0.037 A 
HETATM   19  C   UNK N   1      31.914  16.149   8.155  0.00  0.00     0.010 A 
BRANCH  17  20
HETATM   20  O   UNK N   1      35.338  15.266   7.274  0.00  0.00    -0.361 OA
HETATM   21  H   UNK N   1      35.270  14.335   7.183  0.00  0.00     0.217 HD
ENDBRANCH  17  20
ENDBRANCH  13  14
ENDBRANCH  12  13
BRANCH  12  22
HETATM   22  C   UNK N   1      28.649  17.537   9.460  0.00  0.00     0.163 C 
HETATM   23  O   UNK N   1      29.034  16.914  10.437  0.00  0.00    -0.648 OA
BRANCH  22  24
HETATM   24  O   UNK N   1      27.428  18.111   9.476  0.00  0.00    -0.775 OA
HETATM   25  H   UNK N   1      26.556  17.816   9.298  0.00  0.00     0.167 HD
ENDBRANCH  22  24
ENDBRANCH  12  22
ENDBRANCH  10  12
BRANCH   9  26
HETATM   26  O   UNK N   1      27.600  19.055   5.448  0.00  0.00    -0.348 OA
HETATM   27  H   UNK N   1      27.181  19.832   5.131  0.00  0.00     0.219 HD
ENDBRANCH   9  26
ENDBRANCH   1   9
BRANCH   1  28
HETATM   28  N   UNK N   1      26.957  16.249   5.329  0.00  0.00    -0.361 N 
HETATM   29  C   UNK N   1      26.140  15.945   6.281  0.00  0.00     0.126 C 
ATOM     30  HN  UNK N   1      26.633  16.159   4.367  1.00  0.00     0.162 HD
BRANCH  29  31
HETATM   31  C   UNK N   1      24.749  15.472   5.943  0.00  0.00     0.122 C 
BRANCH  31  32
HETATM   32  C   UNK N   1      24.600  13.983   6.287  0.00  0.00     0.061 C 
BRANCH  32  33
HETATM   33  C   UNK N   1      24.006  13.695   7.631  0.00  0.00    -0.057 A 
HETATM   34  C   UNK N   1      22.648  13.926   7.887  0.00  0.00     0.007 A 
HETATM   35  C   UNK N   1      22.104  13.608   9.135  0.00  0.00     0.001 A 
HETATM   36  C   UNK N   1      22.914  13.049  10.128  0.00  0.00     0.000 A 
HETATM   37  C   UNK N   1      24.267  12.809   9.874  0.00  0.00     0.001 A 
HETATM   38  C   UNK N   1      24.811  13.128   8.625  0.00  0.00     0.007 A 
ENDBRANCH  32  33
ENDBRANCH  31  32
BRANCH  31  39
HETATM   39  S   UNK N   1      24.450  15.760   4.166  0.00  0.00    -0.169 SA
HETATM   40  H   UNK N   1      24.305  16.956   3.535  0.00  0.00     0.102 HD
ENDBRANCH  31  39
ENDBRANCH  29  31
BRANCH  29  41
HETATM   41  O   UNK N   1      26.530  16.039   7.573  0.00  0.00    -0.349 OA
HETATM   42  H   UNK N   1      26.405  16.771   8.144  0.00  0.00     0.219 HD
ENDBRANCH  29  41
ENDBRANCH   1  28
TORSDOF 16
ENDMDL
MODEL 7
REMARK VINA RESULT:      -6.8     17.080     20.253
REMARK  16 active torsions:
REMARK  status: ('A' for Active; 'I' for Inactive)
REMARK    1  A    between atoms: C_18  and  C_15 
REMARK    2  A    between atoms: C_22  and  C_15 
REMARK    3  A    between atoms: C_20  and  C_16 
REMARK    4  A    between atoms: C_23  and  C_16 
REMARK    5  A    between atoms: C_19  and  C_17 
REMARK    6  A    between atoms: C_24  and  C_17 
REMARK    7  A    between atoms: O_32  and  C_21 
REMARK    8  A    between atoms: C_25  and  C_22 
REMARK    9  A    between atoms: C_22  and  N_28 
REMARK   10  A    between atoms: C_27  and  C_23 
REMARK   11  A    between atoms: C_23  and  N_30 
REMARK   12  A    between atoms: C_26  and  C_24 
REMARK   13  A    between atoms: C_24  and  S_37 
REMARK   14  A    between atoms: C_25  and  O_33 
REMARK   15  A    between atoms: C_26  and  O_34 
REMARK   16  A    between atoms: O_36  and  C_27 
ROOT
HETATM    1  C   UNK N   1      27.410  24.076  -5.259  0.00  0.00     0.162 C 
ENDROOT
BRANCH   1   2
HETATM    2  C   UNK N   1      26.330  23.236  -5.964  0.00  0.00     0.072 C 
BRANCH   2   3
HETATM    3  C   UNK N   1      26.666  22.723  -7.334  0.00  0.00    -0.056 A 
HETATM    4  C   UNK N   1      27.738  23.272  -8.048  0.00  0.00     0.007 A 
HETATM    5  C   UNK N   1      28.003  22.841  -9.354  0.00  0.00     0.001 A 
HETATM    6  C   UNK N   1      27.193  21.871  -9.952  0.00  0.00     0.000 A 
HETATM    7  C   UNK N   1      26.116  21.329  -9.246  0.00  0.00     0.001 A 
HETATM    8  C   UNK N   1      25.849  21.760  -7.944  0.00  0.00     0.007 A 
ENDBRANCH   2   3
ENDBRANCH   1   2
BRANCH   1   9
HETATM    9  C   UNK N   1      26.741  24.704  -4.041  0.00  0.00     0.135 C 
HETATM   10  N   UNK N   1      26.326  25.930  -3.967  0.00  0.00    -0.358 N 
ATOM     11  HN  UNK N   1      25.844  26.181  -3.104  1.00  0.00     0.162 HD
BRANCH  10  12
HETATM   12  C   UNK N   1      26.454  26.997  -4.946  0.00  0.00     0.185 C 
BRANCH  12  13
HETATM   13  C   UNK N   1      25.448  26.783  -6.076  0.00  0.00     0.074 C 
BRANCH  13  14
HETATM   14  C   UNK N   1      26.114  26.704  -7.411  0.00  0.00    -0.056 A 
HETATM   15  C   UNK N   1      27.412  27.195  -7.594  0.00  0.00     0.010 A 
HETATM   16  C   UNK N   1      28.034  27.081  -8.840  0.00  0.00     0.037 A 
HETATM   17  C   UNK N   1      27.357  26.479  -9.906  0.00  0.00     0.065 A 
HETATM   18  C   UNK N   1      26.057  25.998  -9.727  0.00  0.00     0.037 A 
HETATM   19  C   UNK N   1      25.437  26.110  -8.481  0.00  0.00     0.010 A 
BRANCH  17  20
HETATM   20  O   UNK N   1      27.957  26.363 -11.100  0.00  0.00    -0.361 OA
HETATM   21  H   UNK N   1      28.371  25.560 -11.352  0.00  0.00     0.217 HD
ENDBRANCH  17  20
ENDBRANCH  13  14
ENDBRANCH  12  13
BRANCH  12  22
HETATM   22  C   UNK N   1      26.129  28.292  -4.260  0.00  0.00     0.163 C 
HETATM   23  O   UNK N   1      26.547  29.350  -4.705  0.00  0.00    -0.648 OA
BRANCH  22  24
HETATM   24  O   UNK N   1      25.382  28.293  -3.137  0.00  0.00    -0.775 OA
HETATM   25  H   UNK N   1      25.132  27.645  -2.508  0.00  0.00     0.167 HD
ENDBRANCH  22  24
ENDBRANCH  12  22
ENDBRANCH  10  12
BRANCH   9  26
HETATM   26  O   UNK N   1      26.563  23.915  -2.963  0.00  0.00    -0.348 OA
HETATM   27  H   UNK N   1      26.415  23.553  -2.111  0.00  0.00     0.219 HD
ENDBRANCH   9  26
ENDBRANCH   1   9
BRANCH   1  28
HETATM   28  N   UNK N   1      28.498  23.226  -4.812  0.00  0.00    -0.361 N 
HETATM   29  C   UNK N   1      29.739  23.467  -5.070  0.00  0.00     0.126 C 
ATOM     30  HN  UNK N   1      28.269  22.396  -4.266  1.00  0.00     0.162 HD
BRANCH  29  31
HETATM   31  C   UNK N   1      30.800  22.523  -4.563  0.00  0.00     0.122 C 
BRANCH  31  32
HETATM   32  C   UNK N   1      30.462  21.082  -4.970  0.00  0.00     0.061 C 
BRANCH  32  33
HETATM   33  C   UNK N   1      30.484  20.813  -6.443  0.00  0.00    -0.057 A 
HETATM   34  C   UNK N   1      31.487  21.347  -7.262  0.00  0.00     0.007 A 
HETATM   35  C   UNK N   1      31.515  21.048  -8.627  0.00  0.00     0.001 A 
HETATM   36  C   UNK N   1      30.544  20.204  -9.176  0.00  0.00     0.000 A 
HETATM   37  C   UNK N   1      29.547  19.662  -8.361  0.00  0.00     0.001 A 
HETATM   38  C   UNK N   1      29.520  19.963  -6.995  0.00  0.00     0.007 A 
ENDBRANCH  32  33
ENDBRANCH  31  32
BRANCH  31  39
HETATM   39  S   UNK N   1      30.899  22.678  -2.748  0.00  0.00    -0.169 SA
HETATM   40  H   UNK N   1      31.989  23.007  -2.004  0.00  0.00     0.102 HD
ENDBRANCH  31  39
ENDBRANCH  29  31
BRANCH  29  41
HETATM   41  O   UNK N   1      30.088  24.551  -5.800  0.00  0.00    -0.349 OA
HETATM   42  H   UNK N   1      29.825  25.438  -5.647  0.00  0.00     0.219 HD
ENDBRANCH  29  41
ENDBRANCH   1  28
TORSDOF 16
ENDMDL
MODEL 8
REMARK VINA RESULT:      -6.6      3.365      7.882
REMARK  16 active torsions:
REMARK  status: ('A' for Active; 'I' for Inactive)
REMARK    1  A    between atoms: C_18  and  C_15 
REMARK    2  A    between atoms: C_22  and  C_15 
REMARK    3  A    between atoms: C_20  and  C_16 
REMARK    4  A    between atoms: C_23  and  C_16 
REMARK    5  A    between atoms: C_19  and  C_17 
REMARK    6  A    between atoms: C_24  and  C_17 
REMARK    7  A    between atoms: O_32  and  C_21 
REMARK    8  A    between atoms: C_25  and  C_22 
REMARK    9  A    between atoms: C_22  and  N_28 
REMARK   10  A    between atoms: C_27  and  C_23 
REMARK   11  A    between atoms: C_23  and  N_30 
REMARK   12  A    between atoms: C_26  and  C_24 
REMARK   13  A    between atoms: C_24  and  S_37 
REMARK   14  A    between atoms: C_25  and  O_33 
REMARK   15  A    between atoms: C_26  and  O_34 
REMARK   16  A    between atoms: O_36  and  C_27 
ROOT
HETATM    1  C   UNK N   1      35.280  14.467  10.156  0.00  0.00     0.162 C 
ENDROOT
BRANCH   1   2
HETATM    2  C   UNK N   1      36.074  13.545   9.212  0.00  0.00     0.072 C 
BRANCH   2   3
HETATM    3  C   UNK N   1      35.396  12.275   8.787  0.00  0.00    -0.056 A 
HETATM    4  C   UNK N   1      36.125  11.271   8.139  0.00  0.00     0.007 A 
HETATM    5  C   UNK N   1      35.475  10.119   7.679  0.00  0.00     0.001 A 
HETATM    6  C   UNK N   1      34.095   9.973   7.856  0.00  0.00     0.000 A 
HETATM    7  C   UNK N   1      33.363  10.978   8.492  0.00  0.00     0.001 A 
HETATM    8  C   UNK N   1      34.011  12.129   8.948  0.00  0.00     0.007 A 
ENDBRANCH   2   3
ENDBRANCH   1   2
BRANCH   1   9
HETATM    9  C   UNK N   1      36.286  15.031  11.153  0.00  0.00     0.135 C 
HETATM   10  N   UNK N   1      36.571  14.507  12.304  0.00  0.00    -0.358 N 
ATOM     11  HN  UNK N   1      37.310  14.973  12.829  1.00  0.00     0.162 HD
BRANCH  10  12
HETATM   12  C   UNK N   1      35.978  13.347  12.949  0.00  0.00     0.185 C 
BRANCH  12  13
HETATM   13  C   UNK N   1      36.821  12.107  12.654  0.00  0.00     0.074 C 
BRANCH  13  14
HETATM   14  C   UNK N   1      35.987  10.966  12.168  0.00  0.00    -0.056 A 
HETATM   15  C   UNK N   1      36.573   9.881  11.506  0.00  0.00     0.010 A 
HETATM   16  C   UNK N   1      35.783   8.806  11.090  0.00  0.00     0.037 A 
HETATM   17  C   UNK N   1      34.406   8.816  11.333  0.00  0.00     0.065 A 
HETATM   18  C   UNK N   1      33.818   9.904  11.985  0.00  0.00     0.037 A 
HETATM   19  C   UNK N   1      34.608  10.978  12.402  0.00  0.00     0.010 A 
BRANCH  17  20
HETATM   20  O   UNK N   1      33.649   7.780  10.941  0.00  0.00    -0.361 OA
HETATM   21  H   UNK N   1      32.932   7.908  10.351  0.00  0.00     0.217 HD
ENDBRANCH  17  20
ENDBRANCH  13  14
ENDBRANCH  12  13
BRANCH  12  22
HETATM   22  C   UNK N   1      35.991  13.589  14.431  0.00  0.00     0.163 C 
HETATM   23  O   UNK N   1      34.982  13.411  15.096  0.00  0.00    -0.648 OA
BRANCH  22  24
HETATM   24  O   UNK N   1      37.118  14.015  15.036  0.00  0.00    -0.775 OA
HETATM   25  H   UNK N   1      37.308  14.512  15.809  0.00  0.00     0.167 HD
ENDBRANCH  22  24
ENDBRANCH  12  22
ENDBRANCH  10  12
BRANCH   9  26
HETATM   26  O   UNK N   1      36.933  16.160  10.800  0.00  0.00    -0.348 OA
HETATM   27  H   UNK N   1      37.425  16.957  10.765  0.00  0.00     0.219 HD
ENDBRANCH   9  26
ENDBRANCH   1   9
BRANCH   1  28
HETATM   28  N   UNK N   1      34.689  15.563   9.412  0.00  0.00    -0.361 N 
HETATM   29  C   UNK N   1      33.434  15.860   9.462  0.00  0.00     0.126 C 
ATOM     30  HN  UNK N   1      35.296  16.127   8.818  1.00  0.00     0.162 HD
BRANCH  29  31
HETATM   31  C   UNK N   1      32.912  17.018   8.650  0.00  0.00     0.122 C 
BRANCH  31  32
HETATM   32  C   UNK N   1      31.777  16.549   7.730  0.00  0.00     0.061 C 
BRANCH  32  33
HETATM   33  C   UNK N   1      30.477  17.271   7.899  0.00  0.00    -0.057 A 
HETATM   34  C   UNK N   1      30.115  17.831   9.132  0.00  0.00     0.007 A 
HETATM   35  C   UNK N   1      28.917  18.540   9.259  0.00  0.00     0.001 A 
HETATM   36  C   UNK N   1      28.081  18.701   8.150  0.00  0.00     0.000 A 
HETATM   37  C   UNK N   1      28.442  18.152   6.916  0.00  0.00     0.001 A 
HETATM   38  C   UNK N   1      29.641  17.442   6.791  0.00  0.00     0.007 A 
ENDBRANCH  32  33
ENDBRANCH  31  32
BRANCH  31  39
HETATM   39  S   UNK N   1      34.289  17.716   7.677  0.00  0.00    -0.169 SA
HETATM   40  H   UNK N   1      34.755  18.993   7.701  0.00  0.00     0.102 HD
ENDBRANCH  31  39
ENDBRANCH  29  31
BRANCH  29  41
HETATM   41  O   UNK N   1      32.589  15.133  10.228  0.00  0.00    -0.349 OA
HETATM   42  H   UNK N   1      32.052  14.419   9.947  0.00  0.00     0.219 HD
ENDBRANCH  29  41
ENDBRANCH   1  28
TORSDOF 16
ENDMDL
MODEL 9
REMARK VINA RESULT:      -6.6      8.944     12.455
REMARK  16 active torsions:
REMARK  status: ('A' for Active; 'I' for Inactive)
REMARK    1  A    between atoms: C_18  and  C_15 
REMARK    2  A    between atoms: C_22  and  C_15 
REMARK    3  A    between atoms: C_20  and  C_16 
REMARK    4  A    between atoms: C_23  and  C_16 
REMARK    5  A    between atoms: C_19  and  C_17 
REMARK    6  A    between atoms: C_24  and  C_17 
REMARK    7  A    between atoms: O_32  and  C_21 
REMARK    8  A    between atoms: C_25  and  C_22 
REMARK    9  A    between atoms: C_22  and  N_28 
REMARK   10  A    between atoms: C_27  and  C_23 
REMARK   11  A    between atoms: C_23  and  N_30 
REMARK   12  A    between atoms: C_26  and  C_24 
REMARK   13  A    between atoms: C_24  and  S_37 
REMARK   14  A    between atoms: C_25  and  O_33 
REMARK   15  A    between atoms: C_26  and  O_34 
REMARK   16  A    between atoms: O_36  and  C_27 
ROOT
HETATM    1  C   UNK N   1      24.136  17.957   4.527  0.00  0.00     0.162 C 
ENDROOT
BRANCH   1   2
HETATM    2  C   UNK N   1      24.174  16.425   4.670  0.00  0.00     0.072 C 
BRANCH   2   3
HETATM    3  C   UNK N   1      25.501  15.762   4.433  0.00  0.00    -0.056 A 
HETATM    4  C   UNK N   1      26.166  15.122   5.486  0.00  0.00     0.007 A 
HETATM    5  C   UNK N   1      27.436  14.569   5.279  0.00  0.00     0.001 A 
HETATM    6  C   UNK N   1      28.047  14.664   4.024  0.00  0.00     0.000 A 
HETATM    7  C   UNK N   1      27.391  15.311   2.975  0.00  0.00     0.001 A 
HETATM    8  C   UNK N   1      26.126  15.866   3.182  0.00  0.00     0.007 A 
ENDBRANCH   2   3
ENDBRANCH   1   2
BRANCH   1   9
HETATM    9  C   UNK N   1      22.792  18.408   5.089  0.00  0.00     0.135 C 
HETATM   10  N   UNK N   1      21.815  18.896   4.389  0.00  0.00    -0.358 N 
ATOM     11  HN  UNK N   1      20.959  19.094   4.906  1.00  0.00     0.162 HD
BRANCH  10  12
HETATM   12  C   UNK N   1      21.776  19.202   2.968  0.00  0.00     0.185 C 
BRANCH  12  13
HETATM   13  C   UNK N   1      20.358  18.997   2.437  0.00  0.00     0.074 C 
BRANCH  13  14
HETATM   14  C   UNK N   1      20.147  17.609   1.925  0.00  0.00    -0.056 A 
HETATM   15  C   UNK N   1      20.240  16.508   2.784  0.00  0.00     0.010 A 
HETATM   16  C   UNK N   1      20.005  15.219   2.297  0.00  0.00     0.037 A 
HETATM   17  C   UNK N   1      19.679  15.031   0.950  0.00  0.00     0.065 A 
HETATM   18  C   UNK N   1      19.596  16.129   0.090  0.00  0.00     0.037 A 
HETATM   19  C   UNK N   1      19.830  17.417   0.577  0.00  0.00     0.010 A 
BRANCH  17  20
HETATM   20  O   UNK N   1      19.446  13.794   0.484  0.00  0.00    -0.361 OA
HETATM   21  H   UNK N   1      19.273  13.651  -0.426  0.00  0.00     0.217 HD
ENDBRANCH  17  20
ENDBRANCH  13  14
ENDBRANCH  12  13
BRANCH  12  22
HETATM   22  C   UNK N   1      22.142  20.648   2.799  0.00  0.00     0.163 C 
HETATM   23  O   UNK N   1      23.315  20.988   2.758  0.00  0.00    -0.648 OA
BRANCH  22  24
HETATM   24  O   UNK N   1      21.176  21.583   2.702  0.00  0.00    -0.775 OA
HETATM   25  H   UNK N   1      20.651  21.923   2.003  0.00  0.00     0.167 HD
ENDBRANCH  22  24
ENDBRANCH  12  22
ENDBRANCH  10  12
BRANCH   9  26
HETATM   26  O   UNK N   1      22.607  18.279   6.418  0.00  0.00    -0.348 OA
HETATM   27  H   UNK N   1      22.274  18.160   7.286  0.00  0.00     0.219 HD
ENDBRANCH   9  26
ENDBRANCH   1   9
BRANCH   1  28
HETATM   28  N   UNK N   1      25.199  18.564   5.305  0.00  0.00    -0.361 N 
HETATM   29  C   UNK N   1      26.061  19.387   4.810  0.00  0.00     0.126 C 
ATOM     30  HN  UNK N   1      25.268  18.329   6.295  1.00  0.00     0.162 HD
BRANCH  29  31
HETATM   31  C   UNK N   1      27.132  19.965   5.699  0.00  0.00     0.122 C 
BRANCH  31  32
HETATM   32  C   UNK N   1      27.612  18.907   6.704  0.00  0.00     0.061 C 
BRANCH  32  33
HETATM   33  C   UNK N   1      28.753  18.056   6.239  0.00  0.00    -0.057 A 
HETATM   34  C   UNK N   1      29.239  18.151   4.928  0.00  0.00     0.007 A 
HETATM   35  C   UNK N   1      30.333  17.380   4.526  0.00  0.00     0.001 A 
HETATM   36  C   UNK N   1      30.952  16.518   5.437  0.00  0.00     0.000 A 
HETATM   37  C   UNK N   1      30.476  16.427   6.748  0.00  0.00     0.001 A 
HETATM   38  C   UNK N   1      29.380  17.199   7.148  0.00  0.00     0.007 A 
ENDBRANCH  32  33
ENDBRANCH  31  32
BRANCH  31  39
HETATM   39  S   UNK N   1      26.449  21.418   6.566  0.00  0.00    -0.169 SA
HETATM   40  H   UNK N   1      26.922  22.003   7.699  0.00  0.00     0.102 HD
ENDBRANCH  31  39
ENDBRANCH  29  31
BRANCH  29  41
HETATM   41  O   UNK N   1      26.014  19.720   3.500  0.00  0.00    -0.349 OA
HETATM   42  H   UNK N   1      25.281  19.627   2.924  0.00  0.00     0.219 HD
ENDBRANCH  29  41
ENDBRANCH   1  28
TORSDOF 16
ENDMDL
