REMARK  19 active torsions:
REMARK  status: ('A' for Active; 'I' for Inactive)
REMARK    1  A    between atoms: C_10  and  C_5 
REMARK    2  A    between atoms: O_41  and  C_5 
REMARK    3  A    between atoms: C_11  and  C_6 
REMARK    4  A    between atoms: O_42  and  C_6 
REMARK    5  A    between atoms: C_18  and  C_9 
REMARK    6  A    between atoms: C_13  and  O_33 
REMARK    7  A    between atoms: C_14  and  O_34 
REMARK    8  A    between atoms: C_15  and  O_35 
REMARK    9  A    between atoms: C_16  and  O_36 
REMARK   10  A    between atoms: N_22  and  C_17 
REMARK   11  A    between atoms: N_23  and  C_18 
REMARK   12  A    between atoms: C_20  and  N_31 
REMARK   13  A    between atoms: C_21  and  N_32 
REMARK   14  A    between atoms: P_46  and  O_38 
REMARK   15  A    between atoms: P_47  and  O_39 
REMARK   16  A    between atoms: P_46  and  O_41 
REMARK   17  A    between atoms: P_47  and  O_42 
REMARK   18  A    between atoms: P_46  and  O_45 
REMARK   19  A    between atoms: P_47  and  O_45 
ROOT
HETATM    1  O   UNK N   1      -0.938  -4.202  -2.330  0.00  0.00    -0.631 OA
HETATM    2  P   UNK N   1      -1.995  -3.447  -1.478  0.00  0.00     0.401 P 
ENDROOT
BRANCH   2   3
HETATM    3  O   UNK N   1      -3.449  -3.572  -2.421  0.00  0.00    -0.307 OA
HETATM    4  H   UNK N   1      -3.915  -2.904  -2.947  0.00  0.00     0.222 HD
ENDBRANCH   2   3
BRANCH   2   5
HETATM    5  O   UNK N   1      -1.446  -1.795  -1.317  0.00  0.00    -0.294 OA
BRANCH   5   6
HETATM    6  C   UNK N   1      -0.053  -1.880  -1.235  0.00  0.00     0.215 C 
BRANCH   6   7
HETATM    7  C   UNK N   1       0.437  -1.881   0.218  0.00  0.00     0.180 C 
HETATM    8  C   UNK N   1       1.896  -2.325   0.288  0.00  0.00     0.182 C 
HETATM    9  C   UNK N   1       2.581  -1.029  -0.041  0.00  0.00     0.198 C 
HETATM   10  C   UNK N   1       1.712  -0.086   0.796  0.00  0.00     0.262 C 
HETATM   11  O   UNK N   1       0.374  -0.562   0.734  0.00  0.00    -0.353 OA
BRANCH   8  12
HETATM   12  O   UNK N   1       2.205  -2.691   1.605  0.00  0.00    -0.390 OA
HETATM   13  H   UNK N   1       2.093  -3.003   2.517  0.00  0.00     0.210 HD
ENDBRANCH   8  12
BRANCH   9  14
HETATM   14  O   UNK N   1       2.449  -0.743  -1.406  0.00  0.00    -0.388 OA
HETATM   15  H   UNK N   1       2.575  -0.565  -2.351  0.00  0.00     0.210 HD
ENDBRANCH   9  14
BRANCH  10  16
HETATM   16  N   UNK N   1       1.805   1.301   0.340  0.00  0.00    -0.297 N 
HETATM   17  C   UNK N   1       0.779   2.113  -0.029  0.00  0.00     0.188 A 
HETATM   18  N   UNK N   1       1.227   3.349  -0.387  0.00  0.00    -0.346 N 
HETATM   19  C   UNK N   1       2.563   3.275  -0.233  0.00  0.00     0.122 A 
ATOM     20  HN  UNK N   1       0.677   4.149  -0.700  1.00  0.00     0.167 HD
HETATM   21  C   UNK N   1       3.539   4.230  -0.459  0.00  0.00     0.131 A 
HETATM   22  C   UNK N   1       2.905   2.049   0.204  0.00  0.00     0.142 A 
HETATM   23  N   UNK N   1       4.841   3.879  -0.233  0.00  0.00    -0.337 N 
HETATM   24  C   UNK N   1       5.168   2.619   0.209  0.00  0.00     0.183 A 
ATOM     25  HN  UNK N   1       5.581   4.563  -0.394  1.00  0.00     0.168 HD
HETATM   26  N   UNK N   1       4.191   1.688   0.435  0.00  0.00    -0.336 N 
ATOM     27  HN  UNK N   1       4.423   0.752   0.768  1.00  0.00     0.168 HD
BRANCH  21  28
HETATM   28  N   UNK N   1       3.210   5.523  -0.909  0.00  0.00    -0.383 N 
HETATM   29  H   UNK N   1       3.878   6.174  -1.224  0.00  0.00     0.157 HD
HETATM   30  H   UNK N   1       2.262   5.790  -0.909  0.00  0.00     0.157 HD
ENDBRANCH  21  28
ENDBRANCH  10  16
ENDBRANCH   6   7
ENDBRANCH   5   6
ENDBRANCH   2   5
BRANCH   2  31
HETATM   31  O   UNK N   1      -2.017  -4.266   0.069  0.00  0.00    -0.195 OA
BRANCH  31  32
HETATM   32  P   UNK N   1      -3.624  -4.242   0.763  0.00  0.00     0.401 P 
HETATM   33  O   UNK N   1      -3.559  -3.429   2.087  0.00  0.00    -0.631 OA
BRANCH  32  34
HETATM   34  O   UNK N   1      -4.042  -5.854   1.250  0.00  0.00    -0.307 OA
HETATM   35  H   UNK N   1      -4.939  -6.103   1.522  0.00  0.00     0.222 HD
ENDBRANCH  32  34
BRANCH  32  36
HETATM   36  O   UNK N   1      -4.893  -3.566  -0.221  0.00  0.00    -0.294 OA
BRANCH  36  37
HETATM   37  C   UNK N   1      -4.620  -2.196  -0.268  0.00  0.00     0.215 C 
BRANCH  37  38
HETATM   38  C   UNK N   1      -5.876  -1.396  -0.060  0.00  0.00     0.180 C 
HETATM   39  C   UNK N   1      -5.580   0.065   0.102  0.00  0.00     0.182 C 
HETATM   40  C   UNK N   1      -6.993   0.573   0.076  0.00  0.00     0.198 C 
HETATM   41  C   UNK N   1      -7.637  -0.368  -0.970  0.00  0.00     0.259 C 
HETATM   42  O   UNK N   1      -6.713  -1.432  -1.186  0.00  0.00    -0.353 OA
BRANCH  39  43
HETATM   43  O   UNK N   1      -4.917   0.354   1.297  0.00  0.00    -0.390 OA
HETATM   44  H   UNK N   1      -4.513   0.056   2.127  0.00  0.00     0.210 HD
ENDBRANCH  39  43
BRANCH  40  45
HETATM   45  O   UNK N   1      -7.061   1.925  -0.270  0.00  0.00    -0.388 OA
HETATM   46  H   UNK N   1      -6.272   2.435  -0.510  0.00  0.00     0.210 HD
ENDBRANCH  40  45
BRANCH  41  47
HETATM   47  N   UNK N   1      -8.902  -0.932  -0.465  0.00  0.00    -0.336 N 
HETATM   48  C   UNK N   1      -9.965  -0.136  -0.151  0.00  0.00     0.093 A 
HETATM   49  C   UNK N   1     -11.133  -0.702   0.377  0.00  0.00     0.018 A 
HETATM   50  C   UNK N   1     -11.199  -2.085   0.584  0.00  0.00     0.017 A 
HETATM   51  C   UNK N   1     -10.102  -2.888   0.255  0.00  0.00     0.013 A 
HETATM   52  C   UNK N   1      -8.973  -2.280  -0.270  0.00  0.00     0.107 A 
BRANCH  51  53
HETATM   53  C   UNK N   1     -10.097  -4.353   0.467  0.00  0.00     0.086 C 
HETATM   54  S   UNK N   1      -8.627  -5.323   0.091  0.00  0.00    -0.033 SA
BRANCH  53  55
HETATM   55  N   UNK N   1     -11.125  -4.944   0.951  0.00  0.00    -0.392 N 
HETATM   56  H   UNK N   1     -11.914  -4.486   1.324  0.00  0.00     0.156 HD
ATOM     57  HN  UNK N   1     -11.127  -5.964   0.951  1.00  0.00     0.156 HD
ENDBRANCH  53  55
ENDBRANCH  51  53
ENDBRANCH  41  47
ENDBRANCH  37  38
ENDBRANCH  36  37
ENDBRANCH  32  36
ENDBRANCH  31  32
ENDBRANCH   2  31
TORSDOF 19
