MODEL 1
REMARK VINA RESULT:      -6.3      0.000      0.000
REMARK  20 active torsions:
REMARK  status: ('A' for Active; 'I' for Inactive)
REMARK    1  A    between atoms: C_6  and  C_5 
REMARK    2  A    between atoms: C_11  and  C_5 
REMARK    3  A    between atoms: C_13  and  C_6 
REMARK    4  A    between atoms: C_14  and  C_7 
REMARK    5  A    between atoms: N_20  and  C_7 
REMARK    6  A    between atoms: C_12  and  C_8 
REMARK    7  A    between atoms: S_33  and  C_8 
REMARK    8  A    between atoms: N_24  and  C_10 
REMARK    9  A    between atoms: C_16  and  C_11 
REMARK   10  A    between atoms: C_11  and  N_19 
REMARK   11  A    between atoms: C_15  and  C_12 
REMARK   12  A    between atoms: C_12  and  N_22 
REMARK   13  A    between atoms: C_13  and  O_25 
REMARK   14  A    between atoms: O_27  and  C_14 
REMARK   15  A    between atoms: O_28  and  C_15 
REMARK   16  A    between atoms: O_30  and  C_16 
REMARK   17  A    between atoms: N_24  and  C_17 
REMARK   18  A    between atoms: C_17  and  O_31 
REMARK   19  A    between atoms: S_33  and  C_17 
REMARK   20  A    between atoms: O_32  and  N_24 
ROOT
HETATM    1  C   UNK N   1      20.543  17.043   4.114  0.00  0.00     0.167 C 
ENDROOT
BRANCH   1   2
HETATM    2  C   UNK N   1      21.523  17.544   5.170  0.00  0.00     0.111 C 
BRANCH   2   3
HETATM    3  S   UNK N   1      22.554  16.206   5.844  0.00  0.00    -0.112 SA
BRANCH   3   4
HETATM    4  C   UNK N   1      21.668  15.920   7.425  0.00  0.00     0.311 C 
BRANCH   4   5
HETATM    5  N   UNK N   1      20.709  14.818   7.409  0.00  0.00    -0.222 N 
BRANCH   5   6
HETATM    6  C   UNK N   1      21.232  13.500   7.511  0.00  0.00     0.060 A 
HETATM    7  C   UNK N   1      22.130  13.188   8.543  0.00  0.00     0.033 A 
HETATM    8  C   UNK N   1      22.871  12.001   8.482  0.00  0.00     0.021 A 
HETATM    9  C   UNK N   1      22.694  11.119   7.409  0.00  0.00     0.011 A 
HETATM   10  C   UNK N   1      21.752  11.397   6.422  0.00  0.00     0.021 A 
HETATM   11 Br   UNK N   1      23.799   9.581   7.229  0.00  0.00    -0.051 Br
HETATM   12  C   UNK N   1      21.037  12.586   6.466  0.00  0.00     0.033 A 
ENDBRANCH   5   6
BRANCH   5  13
HETATM   13  O   UNK N   1      19.436  15.054   7.751  0.00  0.00    -0.284 OA
HETATM   14  H   UNK N   1      18.748  14.406   7.537  0.00  0.00     0.245 HD
ENDBRANCH   5  13
ENDBRANCH   4   5
BRANCH   4  15
HETATM   15  O   UNK N   1      21.052  17.079   7.898  0.00  0.00    -0.366 OA
HETATM   16  H   UNK N   1      20.969  17.900   8.408  0.00  0.00     0.213 HD
ENDBRANCH   4  15
ENDBRANCH   3   4
ENDBRANCH   2   3
ENDBRANCH   1   2
BRANCH   1  17
HETATM   17  C   UNK N   1      20.033  18.185   3.283  0.00  0.00     0.136 C 
HETATM   18  N   UNK N   1      20.771  19.214   3.058  0.00  0.00    -0.363 N 
ATOM     19  HN  UNK N   1      21.718  19.235   3.433  1.00  0.00     0.161 HD
BRANCH  18  20
HETATM   20  C   UNK N   1      20.296  20.336   2.290  0.00  0.00     0.231 C 
BRANCH  20  21
HETATM   21  C   UNK N   1      21.091  20.476   1.026  0.00  0.00     0.158 C 
HETATM   22  O   UNK N   1      22.303  20.629   1.062  0.00  0.00    -0.649 OA
BRANCH  21  23
HETATM   23  O   UNK N   1      20.460  20.442  -0.160  0.00  0.00    -0.775 OA
HETATM   24  H   UNK N   1      20.108  19.636  -0.483  0.00  0.00     0.167 HD
ENDBRANCH  21  23
ENDBRANCH  20  21
ENDBRANCH  18  20
BRANCH  17  25
HETATM   25  O   UNK N   1      18.794  18.105   2.750  0.00  0.00    -0.348 OA
HETATM   26  H   UNK N   1      18.223  17.362   2.731  0.00  0.00     0.219 HD
ENDBRANCH  17  25
ENDBRANCH   1  17
BRANCH   1  27
HETATM   27  N   UNK N   1      19.496  16.179   4.648  0.00  0.00    -0.362 N 
HETATM   28  C   UNK N   1      19.133  14.999   4.261  0.00  0.00     0.111 C 
ATOM     29  HN  UNK N   1      18.974  16.560   5.439  1.00  0.00     0.162 HD
BRANCH  28  30
HETATM   30  C   UNK N   1      19.811  14.276   3.132  0.00  0.00     0.086 C 
BRANCH  30  31
HETATM   31  C   UNK N   1      19.187  14.418   1.741  0.00  0.00     0.043 C 
BRANCH  31  32
HETATM   32  C   UNK N   1      20.048  15.111   0.662  0.00  0.00     0.173 C 
BRANCH  32  33
HETATM   33  C   UNK N   1      19.525  16.438   0.155  0.00  0.00     0.163 C 
HETATM   34  O   UNK N   1      20.313  17.338  -0.094  0.00  0.00    -0.648 OA
BRANCH  33  35
HETATM   35  O   UNK N   1      18.208  16.650  -0.035  0.00  0.00    -0.775 OA
HETATM   36  H   UNK N   1      17.905  17.485  -0.333  0.00  0.00     0.167 HD
ENDBRANCH  33  35
ENDBRANCH  32  33
BRANCH  32  37
HETATM   37  N   UNK N   1      21.408  15.271   1.147  0.00  0.00    -0.418 N 
HETATM   38  H   UNK N   1      22.217  15.879   1.018  0.00  0.00     0.150 HD
HETATM   39  H   UNK N   1      21.622  14.547   1.833  0.00  0.00     0.150 HD
ENDBRANCH  32  37
ENDBRANCH  31  32
ENDBRANCH  30  31
ENDBRANCH  28  30
BRANCH  28  40
HETATM   40  O   UNK N   1      18.175  14.366   4.961  0.00  0.00    -0.350 OA
HETATM   41  H   UNK N   1      17.758  14.510   5.787  0.00  0.00     0.219 HD
ENDBRANCH  28  40
ENDBRANCH   1  27
TORSDOF 20
ENDMDL
MODEL 2
REMARK VINA RESULT:      -6.2     14.402     16.459
REMARK  20 active torsions:
REMARK  status: ('A' for Active; 'I' for Inactive)
REMARK    1  A    between atoms: C_6  and  C_5 
REMARK    2  A    between atoms: C_11  and  C_5 
REMARK    3  A    between atoms: C_13  and  C_6 
REMARK    4  A    between atoms: C_14  and  C_7 
REMARK    5  A    between atoms: N_20  and  C_7 
REMARK    6  A    between atoms: C_12  and  C_8 
REMARK    7  A    between atoms: S_33  and  C_8 
REMARK    8  A    between atoms: N_24  and  C_10 
REMARK    9  A    between atoms: C_16  and  C_11 
REMARK   10  A    between atoms: C_11  and  N_19 
REMARK   11  A    between atoms: C_15  and  C_12 
REMARK   12  A    between atoms: C_12  and  N_22 
REMARK   13  A    between atoms: C_13  and  O_25 
REMARK   14  A    between atoms: O_27  and  C_14 
REMARK   15  A    between atoms: O_28  and  C_15 
REMARK   16  A    between atoms: O_30  and  C_16 
REMARK   17  A    between atoms: N_24  and  C_17 
REMARK   18  A    between atoms: C_17  and  O_31 
REMARK   19  A    between atoms: S_33  and  C_17 
REMARK   20  A    between atoms: O_32  and  N_24 
ROOT
HETATM    1  C   UNK N   1      34.922  14.496  10.198  0.00  0.00     0.167 C 
ENDROOT
BRANCH   1   2
HETATM    2  C   UNK N   1      35.735  14.344  11.479  0.00  0.00     0.111 C 
BRANCH   2   3
HETATM    3  S   UNK N   1      34.949  13.211  12.665  0.00  0.00    -0.112 SA
BRANCH   3   4
HETATM    4  C   UNK N   1      36.419  12.772  13.671  0.00  0.00     0.311 C 
BRANCH   4   5
HETATM    5  N   UNK N   1      36.519  13.459  14.957  0.00  0.00    -0.222 N 
BRANCH   5   6
HETATM    6  C   UNK N   1      35.935  12.817  16.084  0.00  0.00     0.060 A 
HETATM    7  C   UNK N   1      35.443  13.591  17.145  0.00  0.00     0.033 A 
HETATM    8  C   UNK N   1      35.142  12.979  18.368  0.00  0.00     0.021 A 
HETATM    9  C   UNK N   1      35.309  11.597  18.519  0.00  0.00     0.011 A 
HETATM   10  C   UNK N   1      35.732  10.820  17.444  0.00  0.00     0.021 A 
HETATM   11 Br   UNK N   1      35.055  10.772  20.215  0.00  0.00    -0.051 Br
HETATM   12  C   UNK N   1      36.057  11.429  16.239  0.00  0.00     0.033 A 
ENDBRANCH   5   6
BRANCH   5  13
HETATM   13  O   UNK N   1      37.485  14.369  15.139  0.00  0.00    -0.284 OA
HETATM   14  H   UNK N   1      37.850  14.518  16.025  0.00  0.00     0.245 HD
ENDBRANCH   5  13
ENDBRANCH   4   5
BRANCH   4  15
HETATM   15  O   UNK N   1      37.607  12.925  12.957  0.00  0.00    -0.366 OA
HETATM   16  H   UNK N   1      38.171  13.029  12.174  0.00  0.00     0.213 HD
ENDBRANCH   4  15
ENDBRANCH   3   4
ENDBRANCH   2   3
ENDBRANCH   1   2
BRANCH   1  17
HETATM   17  C   UNK N   1      34.541  15.932   9.980  0.00  0.00     0.136 C 
HETATM   18  N   UNK N   1      33.727  16.259   9.039  0.00  0.00    -0.363 N 
ATOM     19  HN  UNK N   1      33.325  15.527   8.456  1.00  0.00     0.161 HD
BRANCH  18  20
HETATM   20  C   UNK N   1      33.368  17.631   8.788  0.00  0.00     0.231 C 
BRANCH  20  21
HETATM   21  C   UNK N   1      34.424  18.302   7.960  0.00  0.00     0.158 C 
HETATM   22  O   UNK N   1      35.210  19.090   8.466  0.00  0.00    -0.649 OA
BRANCH  21  23
HETATM   23  O   UNK N   1      34.500  18.039   6.644  0.00  0.00    -0.775 OA
HETATM   24  H   UNK N   1      35.303  17.737   6.270  0.00  0.00     0.167 HD
ENDBRANCH  21  23
ENDBRANCH  20  21
ENDBRANCH  18  20
BRANCH  17  25
HETATM   25  O   UNK N   1      35.044  16.876  10.806  0.00  0.00    -0.348 OA
HETATM   26  H   UNK N   1      35.014  16.897  11.742  0.00  0.00     0.219 HD
ENDBRANCH  17  25
ENDBRANCH   1  17
BRANCH   1  27
HETATM   27  N   UNK N   1      33.807  13.560  10.095  0.00  0.00    -0.362 N 
HETATM   28  C   UNK N   1      33.714  12.472   9.402  0.00  0.00     0.111 C 
ATOM     29  HN  UNK N   1      32.983  13.799  10.648  1.00  0.00     0.162 HD
BRANCH  28  30
HETATM   30  C   UNK N   1      34.842  11.956   8.554  0.00  0.00     0.086 C 
BRANCH  30  31
HETATM   31  C   UNK N   1      34.755  12.215   7.047  0.00  0.00     0.043 C 
BRANCH  31  32
HETATM   32  C   UNK N   1      35.710  13.283   6.471  0.00  0.00     0.173 C 
BRANCH  32  33
HETATM   33  C   UNK N   1      35.118  14.664   6.282  0.00  0.00     0.163 C 
HETATM   34  O   UNK N   1      35.829  15.572   5.879  0.00  0.00    -0.648 OA
BRANCH  33  35
HETATM   35  O   UNK N   1      33.820  14.914   6.541  0.00  0.00    -0.775 OA
HETATM   36  H   UNK N   1      33.559  15.755   6.861  0.00  0.00     0.167 HD
ENDBRANCH  33  35
ENDBRANCH  32  33
BRANCH  32  37
HETATM   37  N   UNK N   1      36.905  13.369   7.294  0.00  0.00    -0.418 N 
HETATM   38  H   UNK N   1      37.222  13.787   8.169  0.00  0.00     0.150 HD
HETATM   39  H   UNK N   1      37.667  12.848   6.859  0.00  0.00     0.150 HD
ENDBRANCH  32  37
ENDBRANCH  31  32
ENDBRANCH  30  31
ENDBRANCH  28  30
BRANCH  28  40
HETATM   40  O   UNK N   1      32.597  11.733   9.523  0.00  0.00    -0.350 OA
HETATM   41  H   UNK N   1      32.120  11.160   8.956  0.00  0.00     0.219 HD
ENDBRANCH  28  40
ENDBRANCH   1  27
TORSDOF 20
ENDMDL
MODEL 3
REMARK VINA RESULT:      -6.1     14.799     17.043
REMARK  20 active torsions:
REMARK  status: ('A' for Active; 'I' for Inactive)
REMARK    1  A    between atoms: C_6  and  C_5 
REMARK    2  A    between atoms: C_11  and  C_5 
REMARK    3  A    between atoms: C_13  and  C_6 
REMARK    4  A    between atoms: C_14  and  C_7 
REMARK    5  A    between atoms: N_20  and  C_7 
REMARK    6  A    between atoms: C_12  and  C_8 
REMARK    7  A    between atoms: S_33  and  C_8 
REMARK    8  A    between atoms: N_24  and  C_10 
REMARK    9  A    between atoms: C_16  and  C_11 
REMARK   10  A    between atoms: C_11  and  N_19 
REMARK   11  A    between atoms: C_15  and  C_12 
REMARK   12  A    between atoms: C_12  and  N_22 
REMARK   13  A    between atoms: C_13  and  O_25 
REMARK   14  A    between atoms: O_27  and  C_14 
REMARK   15  A    between atoms: O_28  and  C_15 
REMARK   16  A    between atoms: O_30  and  C_16 
REMARK   17  A    between atoms: N_24  and  C_17 
REMARK   18  A    between atoms: C_17  and  O_31 
REMARK   19  A    between atoms: S_33  and  C_17 
REMARK   20  A    between atoms: O_32  and  N_24 
ROOT
HETATM    1  C   UNK N   1      36.916  13.857  10.122  0.00  0.00     0.167 C 
ENDROOT
BRANCH   1   2
HETATM    2  C   UNK N   1      37.923  13.064  10.949  0.00  0.00     0.111 C 
BRANCH   2   3
HETATM    3  S   UNK N   1      37.144  11.695  11.857  0.00  0.00    -0.112 SA
BRANCH   3   4
HETATM    4  C   UNK N   1      36.743  12.568  13.420  0.00  0.00     0.311 C 
BRANCH   4   5
HETATM    5  N   UNK N   1      35.359  12.435  13.870  0.00  0.00    -0.222 N 
BRANCH   5   6
HETATM    6  C   UNK N   1      35.148  12.145  15.246  0.00  0.00     0.060 A 
HETATM    7  C   UNK N   1      34.882  13.191  16.142  0.00  0.00     0.033 A 
HETATM    8  C   UNK N   1      34.967  12.961  17.521  0.00  0.00     0.021 A 
HETATM    9  C   UNK N   1      35.290  11.686  17.999  0.00  0.00     0.011 A 
HETATM   10  C   UNK N   1      35.485  10.632  17.111  0.00  0.00     0.021 A 
HETATM   11 Br   UNK N   1      35.561  11.391  19.859  0.00  0.00    -0.051 Br
HETATM   12  C   UNK N   1      35.429  10.865  15.742  0.00  0.00     0.033 A 
ENDBRANCH   5   6
BRANCH   5  13
HETATM   13  O   UNK N   1      34.382  13.006  13.155  0.00  0.00    -0.284 OA
HETATM   14  H   UNK N   1      34.468  13.085  12.193  0.00  0.00     0.245 HD
ENDBRANCH   5  13
ENDBRANCH   4   5
BRANCH   4  15
HETATM   15  O   UNK N   1      37.099  13.916  13.373  0.00  0.00    -0.366 OA
HETATM   16  H   UNK N   1      37.114  14.823  13.029  0.00  0.00     0.213 HD
ENDBRANCH   4  15
ENDBRANCH   3   4
ENDBRANCH   2   3
ENDBRANCH   1   2
BRANCH   1  17
HETATM   17  C   UNK N   1      37.167  13.664   8.655  0.00  0.00     0.136 C 
HETATM   18  N   UNK N   1      36.193  13.426   7.849  0.00  0.00    -0.363 N 
ATOM     19  HN  UNK N   1      35.244  13.392   8.216  1.00  0.00     0.161 HD
BRANCH  18  20
HETATM   20  C   UNK N   1      36.409  13.205   6.441  0.00  0.00     0.231 C 
BRANCH  20  21
HETATM   21  C   UNK N   1      36.632  14.512   5.738  0.00  0.00     0.158 C 
HETATM   22  O   UNK N   1      37.724  14.792   5.267  0.00  0.00    -0.649 OA
BRANCH  21  23
HETATM   23  O   UNK N   1      35.618  15.388   5.633  0.00  0.00    -0.775 OA
HETATM   24  H   UNK N   1      35.794  16.300   5.511  0.00  0.00     0.167 HD
ENDBRANCH  21  23
ENDBRANCH  20  21
ENDBRANCH  18  20
BRANCH  17  25
HETATM   25  O   UNK N   1      38.430  13.771   8.186  0.00  0.00    -0.348 OA
HETATM   26  H   UNK N   1      38.923  14.554   8.034  0.00  0.00     0.219 HD
ENDBRANCH  17  25
ENDBRANCH   1  17
BRANCH   1  27
HETATM   27  N   UNK N   1      36.794  15.254  10.528  0.00  0.00    -0.362 N 
HETATM   28  C   UNK N   1      35.737  15.998  10.588  0.00  0.00     0.111 C 
ATOM     29  HN  UNK N   1      37.665  15.708  10.804  1.00  0.00     0.162 HD
BRANCH  28  30
HETATM   30  C   UNK N   1      34.368  15.485  10.246  0.00  0.00     0.086 C 
BRANCH  30  31
HETATM   31  C   UNK N   1      33.804  15.863   8.873  0.00  0.00     0.043 C 
BRANCH  31  32
HETATM   32  C   UNK N   1      33.410  17.342   8.669  0.00  0.00     0.173 C 
BRANCH  32  33
HETATM   33  C   UNK N   1      34.403  18.188   7.900  0.00  0.00     0.163 C 
HETATM   34  O   UNK N   1      34.471  18.080   6.686  0.00  0.00    -0.648 OA
BRANCH  33  35
HETATM   35  O   UNK N   1      35.211  19.067   8.526  0.00  0.00    -0.775 OA
HETATM   36  H   UNK N   1      35.543  18.872   9.380  0.00  0.00     0.167 HD
ENDBRANCH  33  35
ENDBRANCH  32  33
BRANCH  32  37
HETATM   37  N   UNK N   1      32.105  17.420   8.036  0.00  0.00    -0.418 N 
HETATM   38  H   UNK N   1      31.642  17.884   7.254  0.00  0.00     0.150 HD
HETATM   39  H   UNK N   1      31.441  16.824   8.531  0.00  0.00     0.150 HD
ENDBRANCH  32  37
ENDBRANCH  31  32
ENDBRANCH  30  31
ENDBRANCH  28  30
BRANCH  28  40
HETATM   40  O   UNK N   1      35.867  17.250  11.062  0.00  0.00    -0.350 OA
HETATM   41  H   UNK N   1      35.781  17.647  11.906  0.00  0.00     0.219 HD
ENDBRANCH  28  40
ENDBRANCH   1  27
TORSDOF 20
ENDMDL
MODEL 4
REMARK VINA RESULT:      -6.0      5.683      6.551
REMARK  20 active torsions:
REMARK  status: ('A' for Active; 'I' for Inactive)
REMARK    1  A    between atoms: C_6  and  C_5 
REMARK    2  A    between atoms: C_11  and  C_5 
REMARK    3  A    between atoms: C_13  and  C_6 
REMARK    4  A    between atoms: C_14  and  C_7 
REMARK    5  A    between atoms: N_20  and  C_7 
REMARK    6  A    between atoms: C_12  and  C_8 
REMARK    7  A    between atoms: S_33  and  C_8 
REMARK    8  A    between atoms: N_24  and  C_10 
REMARK    9  A    between atoms: C_16  and  C_11 
REMARK   10  A    between atoms: C_11  and  N_19 
REMARK   11  A    between atoms: C_15  and  C_12 
REMARK   12  A    between atoms: C_12  and  N_22 
REMARK   13  A    between atoms: C_13  and  O_25 
REMARK   14  A    between atoms: O_27  and  C_14 
REMARK   15  A    between atoms: O_28  and  C_15 
REMARK   16  A    between atoms: O_30  and  C_16 
REMARK   17  A    between atoms: N_24  and  C_17 
REMARK   18  A    between atoms: C_17  and  O_31 
REMARK   19  A    between atoms: S_33  and  C_17 
REMARK   20  A    between atoms: O_32  and  N_24 
ROOT
HETATM    1  C   UNK N   1      24.501  19.066   3.801  0.00  0.00     0.167 C 
ENDROOT
BRANCH   1   2
HETATM    2  C   UNK N   1      25.887  19.664   4.015  0.00  0.00     0.111 C 
BRANCH   2   3
HETATM    3  S   UNK N   1      27.170  18.386   4.188  0.00  0.00    -0.112 SA
BRANCH   3   4
HETATM    4  C   UNK N   1      27.667  18.702   5.926  0.00  0.00     0.311 C 
BRANCH   4   5
HETATM    5  N   UNK N   1      28.003  17.510   6.703  0.00  0.00    -0.222 N 
BRANCH   5   6
HETATM    6  C   UNK N   1      29.343  17.393   7.165  0.00  0.00     0.060 A 
HETATM    7  C   UNK N   1      29.700  17.944   8.405  0.00  0.00     0.033 A 
HETATM    8  C   UNK N   1      31.053  18.096   8.732  0.00  0.00     0.021 A 
HETATM    9  C   UNK N   1      32.042  17.675   7.835  0.00  0.00     0.011 A 
HETATM   10  C   UNK N   1      31.686  17.066   6.635  0.00  0.00     0.021 A 
HETATM   11 Br   UNK N   1      33.879  18.014   8.193  0.00  0.00    -0.051 Br
HETATM   12  C   UNK N   1      30.345  16.939   6.296  0.00  0.00     0.033 A 
ENDBRANCH   5   6
BRANCH   5  13
HETATM   13  O   UNK N   1      27.026  16.838   7.324  0.00  0.00    -0.284 OA
HETATM   14  H   UNK N   1      27.223  16.000   7.771  0.00  0.00     0.245 HD
ENDBRANCH   5  13
ENDBRANCH   4   5
BRANCH   4  15
HETATM   15  O   UNK N   1      26.721  19.463   6.611  0.00  0.00    -0.366 OA
HETATM   16  H   UNK N   1      26.332  19.938   7.364  0.00  0.00     0.213 HD
ENDBRANCH   4  15
ENDBRANCH   3   4
ENDBRANCH   2   3
ENDBRANCH   1   2
BRANCH   1  17
HETATM   17  C   UNK N   1      23.613  20.037   3.077  0.00  0.00     0.136 C 
HETATM   18  N   UNK N   1      22.334  19.902   3.106  0.00  0.00    -0.363 N 
ATOM     19  HN  UNK N   1      21.928  19.141   3.647  1.00  0.00     0.161 HD
BRANCH  18  20
HETATM   20  C   UNK N   1      21.459  20.800   2.395  0.00  0.00     0.231 C 
BRANCH  20  21
HETATM   21  C   UNK N   1      20.816  20.094   1.239  0.00  0.00     0.158 C 
HETATM   22  O   UNK N   1      20.451  18.932   1.339  0.00  0.00    -0.649 OA
BRANCH  21  23
HETATM   23  O   UNK N   1      20.648  20.746   0.075  0.00  0.00    -0.775 OA
HETATM   24  H   UNK N   1      21.218  21.451  -0.156  0.00  0.00     0.167 HD
ENDBRANCH  21  23
ENDBRANCH  20  21
ENDBRANCH  18  20
BRANCH  17  25
HETATM   25  O   UNK N   1      24.175  21.072   2.414  0.00  0.00    -0.348 OA
HETATM   26  H   UNK N   1      24.709  21.757   2.766  0.00  0.00     0.219 HD
ENDBRANCH  17  25
ENDBRANCH   1  17
BRANCH   1  27
HETATM   27  N   UNK N   1      23.910  18.505   5.011  0.00  0.00    -0.362 N 
HETATM   28  C   UNK N   1      23.266  17.394   5.168  0.00  0.00     0.111 C 
ATOM     29  HN  UNK N   1      24.019  19.070   5.854  1.00  0.00     0.162 HD
BRANCH  28  30
HETATM   30  C   UNK N   1      23.038  16.428   4.040  0.00  0.00     0.086 C 
BRANCH  30  31
HETATM   31  C   UNK N   1      21.905  15.411   4.212  0.00  0.00     0.043 C 
BRANCH  31  32
HETATM   32  C   UNK N   1      20.635  15.639   3.364  0.00  0.00     0.173 C 
BRANCH  32  33
HETATM   33  C   UNK N   1      19.553  16.478   4.009  0.00  0.00     0.163 C 
HETATM   34  O   UNK N   1      19.183  16.213   5.142  0.00  0.00    -0.648 OA
BRANCH  33  35
HETATM   35  O   UNK N   1      18.992  17.520   3.364  0.00  0.00    -0.775 OA
HETATM   36  H   UNK N   1      19.280  17.748   2.502  0.00  0.00     0.167 HD
ENDBRANCH  33  35
ENDBRANCH  32  33
BRANCH  32  37
HETATM   37  N   UNK N   1      20.999  16.209   2.078  0.00  0.00    -0.418 N 
HETATM   38  H   UNK N   1      21.735  16.145   1.375  0.00  0.00     0.150 HD
HETATM   39  H   UNK N   1      20.295  16.889   1.786  0.00  0.00     0.150 HD
ENDBRANCH  32  37
ENDBRANCH  31  32
ENDBRANCH  30  31
ENDBRANCH  28  30
BRANCH  28  40
HETATM   40  O   UNK N   1      22.870  17.056   6.408  0.00  0.00    -0.350 OA
HETATM   41  H   UNK N   1      22.132  17.266   6.945  0.00  0.00     0.219 HD
ENDBRANCH  28  40
ENDBRANCH   1  27
TORSDOF 20
ENDMDL
MODEL 5
REMARK VINA RESULT:      -5.9     15.262     17.625
REMARK  20 active torsions:
REMARK  status: ('A' for Active; 'I' for Inactive)
REMARK    1  A    between atoms: C_6  and  C_5 
REMARK    2  A    between atoms: C_11  and  C_5 
REMARK    3  A    between atoms: C_13  and  C_6 
REMARK    4  A    between atoms: C_14  and  C_7 
REMARK    5  A    between atoms: N_20  and  C_7 
REMARK    6  A    between atoms: C_12  and  C_8 
REMARK    7  A    between atoms: S_33  and  C_8 
REMARK    8  A    between atoms: N_24  and  C_10 
REMARK    9  A    between atoms: C_16  and  C_11 
REMARK   10  A    between atoms: C_11  and  N_19 
REMARK   11  A    between atoms: C_15  and  C_12 
REMARK   12  A    between atoms: C_12  and  N_22 
REMARK   13  A    between atoms: C_13  and  O_25 
REMARK   14  A    between atoms: O_27  and  C_14 
REMARK   15  A    between atoms: O_28  and  C_15 
REMARK   16  A    between atoms: O_30  and  C_16 
REMARK   17  A    between atoms: N_24  and  C_17 
REMARK   18  A    between atoms: C_17  and  O_31 
REMARK   19  A    between atoms: S_33  and  C_17 
REMARK   20  A    between atoms: O_32  and  N_24 
ROOT
HETATM    1  C   UNK N   1      34.971  13.941  10.230  0.00  0.00     0.167 C 
ENDROOT
BRANCH   1   2
HETATM    2  C   UNK N   1      34.923  13.553  11.704  0.00  0.00     0.111 C 
BRANCH   2   3
HETATM    3  S   UNK N   1      35.983  14.615  12.732  0.00  0.00    -0.112 SA
BRANCH   3   4
HETATM    4  C   UNK N   1      36.465  13.395  14.015  0.00  0.00     0.311 C 
BRANCH   4   5
HETATM    5  N   UNK N   1      36.572  13.929  15.371  0.00  0.00    -0.222 N 
BRANCH   5   6
HETATM    6  C   UNK N   1      35.941  13.191  16.411  0.00  0.00     0.060 A 
HETATM    7  C   UNK N   1      35.539  13.849  17.582  0.00  0.00     0.033 A 
HETATM    8  C   UNK N   1      35.194  13.101  18.714  0.00  0.00     0.021 A 
HETATM    9  C   UNK N   1      35.227  11.703  18.666  0.00  0.00     0.011 A 
HETATM   10  C   UNK N   1      35.559  11.050  17.482  0.00  0.00     0.021 A 
HETATM   11 Br   UNK N   1      34.913  10.673  20.235  0.00  0.00    -0.051 Br
HETATM   12  C   UNK N   1      35.928  11.791  16.366  0.00  0.00     0.033 A 
ENDBRANCH   5   6
BRANCH   5  13
HETATM   13  O   UNK N   1      37.572  14.768  15.666  0.00  0.00    -0.284 OA
HETATM   14  H   UNK N   1      37.921  15.365  14.986  0.00  0.00     0.245 HD
ENDBRANCH   5  13
ENDBRANCH   4   5
BRANCH   4  15
HETATM   15  O   UNK N   1      37.636  12.717  13.678  0.00  0.00    -0.366 OA
HETATM   16  H   UNK N   1      38.185  12.047  13.239  0.00  0.00     0.213 HD
ENDBRANCH   4  15
ENDBRANCH   3   4
ENDBRANCH   2   3
ENDBRANCH   1   2
BRANCH   1  17
HETATM   17  C   UNK N   1      34.132  15.160   9.976  0.00  0.00     0.136 C 
HETATM   18  N   UNK N   1      34.529  16.071   9.158  0.00  0.00    -0.363 N 
ATOM     19  HN  UNK N   1      35.412  15.944   8.666  1.00  0.00     0.161 HD
BRANCH  18  20
HETATM   20  C   UNK N   1      33.759  17.265   8.919  0.00  0.00     0.231 C 
BRANCH  20  21
HETATM   21  C   UNK N   1      34.525  18.212   8.045  0.00  0.00     0.158 C 
HETATM   22  O   UNK N   1      35.197  19.110   8.532  0.00  0.00    -0.649 OA
BRANCH  21  23
HETATM   23  O   UNK N   1      34.465  18.077   6.709  0.00  0.00    -0.775 OA
HETATM   24  H   UNK N   1      34.270  17.243   6.329  0.00  0.00     0.167 HD
ENDBRANCH  21  23
ENDBRANCH  20  21
ENDBRANCH  18  20
BRANCH  17  25
HETATM   25  O   UNK N   1      32.938  15.276  10.598  0.00  0.00    -0.348 OA
HETATM   26  H   UNK N   1      32.102  15.446  10.211  0.00  0.00     0.219 HD
ENDBRANCH  17  25
ENDBRANCH   1  17
BRANCH   1  27
HETATM   27  N   UNK N   1      34.702  12.831   9.321  0.00  0.00    -0.362 N 
HETATM   28  C   UNK N   1      35.412  12.394   8.332  0.00  0.00     0.111 C 
ATOM     29  HN  UNK N   1      33.830  12.329   9.489  1.00  0.00     0.162 HD
BRANCH  28  30
HETATM   30  C   UNK N   1      36.737  12.996   7.961  0.00  0.00     0.086 C 
BRANCH  30  31
HETATM   31  C   UNK N   1      37.911  12.032   7.768  0.00  0.00     0.043 C 
BRANCH  31  32
HETATM   32  C   UNK N   1      38.886  11.880   8.956  0.00  0.00     0.173 C 
BRANCH  32  33
HETATM   33  C   UNK N   1      38.340  12.277  10.311  0.00  0.00     0.163 C 
HETATM   34  O   UNK N   1      37.543  11.544  10.876  0.00  0.00    -0.648 OA
BRANCH  33  35
HETATM   35  O   UNK N   1      38.719  13.421  10.915  0.00  0.00    -0.775 OA
HETATM   36  H   UNK N   1      38.602  13.525  11.839  0.00  0.00     0.167 HD
ENDBRANCH  33  35
ENDBRANCH  32  33
BRANCH  32  37
HETATM   37  N   UNK N   1      39.388  10.517   9.010  0.00  0.00    -0.418 N 
HETATM   38  H   UNK N   1      39.488   9.747   9.671  0.00  0.00     0.150 HD
HETATM   39  H   UNK N   1      39.758  10.245   8.098  0.00  0.00     0.150 HD
ENDBRANCH  32  37
ENDBRANCH  31  32
ENDBRANCH  30  31
ENDBRANCH  28  30
BRANCH  28  40
HETATM   40  O   UNK N   1      34.984  11.302   7.675  0.00  0.00    -0.350 OA
HETATM   41  H   UNK N   1      34.158  11.016   7.338  0.00  0.00     0.219 HD
ENDBRANCH  28  40
ENDBRANCH   1  27
TORSDOF 20
ENDMDL
MODEL 6
REMARK VINA RESULT:      -5.9      3.463      4.794
REMARK  20 active torsions:
REMARK  status: ('A' for Active; 'I' for Inactive)
REMARK    1  A    between atoms: C_6  and  C_5 
REMARK    2  A    between atoms: C_11  and  C_5 
REMARK    3  A    between atoms: C_13  and  C_6 
REMARK    4  A    between atoms: C_14  and  C_7 
REMARK    5  A    between atoms: N_20  and  C_7 
REMARK    6  A    between atoms: C_12  and  C_8 
REMARK    7  A    between atoms: S_33  and  C_8 
REMARK    8  A    between atoms: N_24  and  C_10 
REMARK    9  A    between atoms: C_16  and  C_11 
REMARK   10  A    between atoms: C_11  and  N_19 
REMARK   11  A    between atoms: C_15  and  C_12 
REMARK   12  A    between atoms: C_12  and  N_22 
REMARK   13  A    between atoms: C_13  and  O_25 
REMARK   14  A    between atoms: O_27  and  C_14 
REMARK   15  A    between atoms: O_28  and  C_15 
REMARK   16  A    between atoms: O_30  and  C_16 
REMARK   17  A    between atoms: N_24  and  C_17 
REMARK   18  A    between atoms: C_17  and  O_31 
REMARK   19  A    between atoms: S_33  and  C_17 
REMARK   20  A    between atoms: O_32  and  N_24 
ROOT
HETATM    1  C   UNK N   1      24.299  16.639   4.962  0.00  0.00     0.167 C 
ENDROOT
BRANCH   1   2
HETATM    2  C   UNK N   1      24.405  15.152   5.281  0.00  0.00     0.111 C 
BRANCH   2   3
HETATM    3  S   UNK N   1      22.798  14.308   5.179  0.00  0.00    -0.112 SA
BRANCH   3   4
HETATM    4  C   UNK N   1      22.393  14.229   6.968  0.00  0.00     0.311 C 
BRANCH   4   5
HETATM    5  N   UNK N   1      21.657  13.038   7.386  0.00  0.00    -0.222 N 
BRANCH   5   6
HETATM    6  C   UNK N   1      21.925  12.534   8.689  0.00  0.00     0.060 A 
HETATM    7  C   UNK N   1      21.024  12.793   9.732  0.00  0.00     0.033 A 
HETATM    8  C   UNK N   1      21.413  12.564  11.057  0.00  0.00     0.021 A 
HETATM    9  C   UNK N   1      22.686  12.053  11.335  0.00  0.00     0.011 A 
HETATM   10  C   UNK N   1      23.554  11.731  10.295  0.00  0.00     0.021 A 
HETATM   11 Br   UNK N   1      23.289  11.882  13.132  0.00  0.00    -0.051 Br
HETATM   12  C   UNK N   1      23.181  11.984   8.982  0.00  0.00     0.033 A 
ENDBRANCH   5   6
BRANCH   5  13
HETATM   13  O   UNK N   1      20.499  12.740   6.786  0.00  0.00    -0.284 OA
HETATM   14  H   UNK N   1      20.115  11.855   6.883  0.00  0.00     0.245 HD
ENDBRANCH   5  13
ENDBRANCH   4   5
BRANCH   4  15
HETATM   15  O   UNK N   1      21.730  15.375   7.405  0.00  0.00    -0.366 OA
HETATM   16  H   UNK N   1      21.601  16.194   7.910  0.00  0.00     0.213 HD
ENDBRANCH   4  15
ENDBRANCH   3   4
ENDBRANCH   2   3
ENDBRANCH   1   2
BRANCH   1  17
HETATM   17  C   UNK N   1      25.651  17.289   5.014  0.00  0.00     0.136 C 
HETATM   18  N   UNK N   1      26.158  17.833   3.963  0.00  0.00    -0.363 N 
ATOM     19  HN  UNK N   1      25.619  17.837   3.099  1.00  0.00     0.161 HD
BRANCH  18  20
HETATM   20  C   UNK N   1      27.466  18.436   3.977  0.00  0.00     0.231 C 
BRANCH  20  21
HETATM   21  C   UNK N   1      27.351  19.928   4.076  0.00  0.00     0.158 C 
HETATM   22  O   UNK N   1      26.758  20.568   3.220  0.00  0.00    -0.649 OA
BRANCH  21  23
HETATM   23  O   UNK N   1      27.915  20.568   5.114  0.00  0.00    -0.775 OA
HETATM   24  H   UNK N   1      27.395  21.114   5.670  0.00  0.00     0.167 HD
ENDBRANCH  21  23
ENDBRANCH  20  21
ENDBRANCH  18  20
BRANCH  17  25
HETATM   25  O   UNK N   1      26.320  17.320   6.187  0.00  0.00    -0.348 OA
HETATM   26  H   UNK N   1      27.214  17.086   6.346  0.00  0.00     0.219 HD
ENDBRANCH  17  25
ENDBRANCH   1  17
BRANCH   1  27
HETATM   27  N   UNK N   1      23.273  17.333   5.733  0.00  0.00    -0.362 N 
HETATM   28  C   UNK N   1      22.391  18.193   5.335  0.00  0.00     0.111 C 
ATOM     29  HN  UNK N   1      23.248  17.110   6.729  1.00  0.00     0.162 HD
BRANCH  28  30
HETATM   30  C   UNK N   1      22.267  18.614   3.899  0.00  0.00     0.086 C 
BRANCH  30  31
HETATM   31  C   UNK N   1      20.987  18.209   3.162  0.00  0.00     0.043 C 
BRANCH  31  32
HETATM   32  C   UNK N   1      20.097  19.356   2.637  0.00  0.00     0.173 C 
BRANCH  32  33
HETATM   33  C   UNK N   1      20.668  20.159   1.488  0.00  0.00     0.163 C 
HETATM   34  O   UNK N   1      21.220  21.225   1.716  0.00  0.00    -0.648 OA
BRANCH  33  35
HETATM   35  O   UNK N   1      20.589  19.722   0.215  0.00  0.00    -0.775 OA
HETATM   36  H   UNK N   1      20.603  20.335  -0.493  0.00  0.00     0.167 HD
ENDBRANCH  33  35
ENDBRANCH  32  33
BRANCH  32  37
HETATM   37  N   UNK N   1      18.790  18.836   2.271  0.00  0.00    -0.418 N 
HETATM   38  H   UNK N   1      18.335  17.949   2.056  0.00  0.00     0.150 HD
HETATM   39  H   UNK N   1      18.116  19.599   2.209  0.00  0.00     0.150 HD
ENDBRANCH  32  37
ENDBRANCH  31  32
ENDBRANCH  30  31
ENDBRANCH  28  30
BRANCH  28  40
HETATM   40  O   UNK N   1      21.498  18.650   6.230  0.00  0.00    -0.350 OA
HETATM   41  H   UNK N   1      20.564  18.714   6.256  0.00  0.00     0.219 HD
ENDBRANCH  28  40
ENDBRANCH   1  27
TORSDOF 20
ENDMDL
MODEL 7
REMARK VINA RESULT:      -5.9     10.714     13.772
REMARK  20 active torsions:
REMARK  status: ('A' for Active; 'I' for Inactive)
REMARK    1  A    between atoms: C_6  and  C_5 
REMARK    2  A    between atoms: C_11  and  C_5 
REMARK    3  A    between atoms: C_13  and  C_6 
REMARK    4  A    between atoms: C_14  and  C_7 
REMARK    5  A    between atoms: N_20  and  C_7 
REMARK    6  A    between atoms: C_12  and  C_8 
REMARK    7  A    between atoms: S_33  and  C_8 
REMARK    8  A    between atoms: N_24  and  C_10 
REMARK    9  A    between atoms: C_16  and  C_11 
REMARK   10  A    between atoms: C_11  and  N_19 
REMARK   11  A    between atoms: C_15  and  C_12 
REMARK   12  A    between atoms: C_12  and  N_22 
REMARK   13  A    between atoms: C_13  and  O_25 
REMARK   14  A    between atoms: O_27  and  C_14 
REMARK   15  A    between atoms: O_28  and  C_15 
REMARK   16  A    between atoms: O_30  and  C_16 
REMARK   17  A    between atoms: N_24  and  C_17 
REMARK   18  A    between atoms: C_17  and  O_31 
REMARK   19  A    between atoms: S_33  and  C_17 
REMARK   20  A    between atoms: O_32  and  N_24 
ROOT
HETATM    1  C   UNK N   1      32.604  16.952   8.389  0.00  0.00     0.167 C 
ENDROOT
BRANCH   1   2
HETATM    2  C   UNK N   1      32.492  17.345   6.920  0.00  0.00     0.111 C 
BRANCH   2   3
HETATM    3  S   UNK N   1      31.399  16.230   5.989  0.00  0.00    -0.112 SA
BRANCH   3   4
HETATM    4  C   UNK N   1      30.612  17.455   4.871  0.00  0.00     0.311 C 
BRANCH   4   5
HETATM    5  N   UNK N   1      29.489  16.947   4.085  0.00  0.00    -0.222 N 
BRANCH   5   6
HETATM    6  C   UNK N   1      28.276  17.687   4.132  0.00  0.00     0.060 A 
HETATM    7  C   UNK N   1      27.078  17.082   3.727  0.00  0.00     0.033 A 
HETATM    8  C   UNK N   1      25.947  17.873   3.489  0.00  0.00     0.021 A 
HETATM    9  C   UNK N   1      26.009  19.258   3.681  0.00  0.00     0.011 A 
HETATM   10  C   UNK N   1      27.179  19.849   4.149  0.00  0.00     0.021 A 
HETATM   11 Br   UNK N   1      24.533  20.365   3.214  0.00  0.00    -0.051 Br
HETATM   12  C   UNK N   1      28.309  19.070   4.359  0.00  0.00     0.033 A 
ENDBRANCH   5   6
BRANCH   5  13
HETATM   13  O   UNK N   1      29.731  16.136   3.048  0.00  0.00    -0.284 OA
HETATM   14  H   UNK N   1      30.398  15.436   3.125  0.00  0.00     0.245 HD
ENDBRANCH   5  13
ENDBRANCH   4   5
BRANCH   4  15
HETATM   15  O   UNK N   1      31.540  18.069   4.031  0.00  0.00    -0.366 OA
HETATM   16  H   UNK N   1      32.291  18.123   3.419  0.00  0.00     0.213 HD
ENDBRANCH   4  15
ENDBRANCH   3   4
ENDBRANCH   2   3
ENDBRANCH   1   2
BRANCH   1  17
HETATM   17  C   UNK N   1      31.318  17.230   9.112  0.00  0.00     0.136 C 
HETATM   18  N   UNK N   1      30.792  18.404   9.085  0.00  0.00    -0.363 N 
ATOM     19  HN  UNK N   1      31.248  19.139   8.547  1.00  0.00     0.161 HD
BRANCH  18  20
HETATM   20  C   UNK N   1      29.576  18.707   9.795  0.00  0.00     0.231 C 
BRANCH  20  21
HETATM   21  C   UNK N   1      28.389  18.520   8.897  0.00  0.00     0.158 C 
HETATM   22  O   UNK N   1      28.396  18.947   7.751  0.00  0.00    -0.649 OA
BRANCH  21  23
HETATM   23  O   UNK N   1      27.301  17.882   9.362  0.00  0.00    -0.775 OA
HETATM   24  H   UNK N   1      26.677  18.339   9.891  0.00  0.00     0.167 HD
ENDBRANCH  21  23
ENDBRANCH  20  21
ENDBRANCH  18  20
BRANCH  17  25
HETATM   25  O   UNK N   1      30.704  16.223   9.770  0.00  0.00    -0.348 OA
HETATM   26  H   UNK N   1      30.444  16.199  10.671  0.00  0.00     0.219 HD
ENDBRANCH  17  25
ENDBRANCH   1  17
BRANCH   1  27
HETATM   27  N   UNK N   1      33.789  17.487   9.052  0.00  0.00    -0.362 N 
HETATM   28  C   UNK N   1      34.702  16.864   9.725  0.00  0.00     0.111 C 
ATOM     29  HN  UNK N   1      33.915  18.497   8.975  1.00  0.00     0.162 HD
BRANCH  28  30
HETATM   30  C   UNK N   1      34.689  15.374   9.914  0.00  0.00     0.086 C 
BRANCH  30  31
HETATM   31  C   UNK N   1      36.029  14.699  10.220  0.00  0.00     0.043 C 
BRANCH  31  32
HETATM   32  C   UNK N   1      36.238  14.196  11.665  0.00  0.00     0.173 C 
BRANCH  32  33
HETATM   33  C   UNK N   1      35.117  13.354  12.238  0.00  0.00     0.163 C 
HETATM   34  O   UNK N   1      34.718  13.576  13.371  0.00  0.00    -0.648 OA
BRANCH  33  35
HETATM   35  O   UNK N   1      34.543  12.367  11.522  0.00  0.00    -0.775 OA
HETATM   36  H   UNK N   1      33.741  11.980  11.816  0.00  0.00     0.167 HD
ENDBRANCH  33  35
ENDBRANCH  32  33
BRANCH  32  37
HETATM   37  N   UNK N   1      37.494  13.471  11.758  0.00  0.00    -0.418 N 
HETATM   38  H   UNK N   1      38.386  13.514  12.250  0.00  0.00     0.150 HD
HETATM   39  H   UNK N   1      37.479  12.666  11.132  0.00  0.00     0.150 HD
ENDBRANCH  32  37
ENDBRANCH  31  32
ENDBRANCH  30  31
ENDBRANCH  28  30
BRANCH  28  40
HETATM   40  O   UNK N   1      35.746  17.573  10.190  0.00  0.00    -0.350 OA
HETATM   41  H   UNK N   1      36.612  17.361  10.475  0.00  0.00     0.219 HD
ENDBRANCH  28  40
ENDBRANCH   1  27
TORSDOF 20
ENDMDL
MODEL 8
REMARK VINA RESULT:      -5.8      2.714      5.153
REMARK  20 active torsions:
REMARK  status: ('A' for Active; 'I' for Inactive)
REMARK    1  A    between atoms: C_6  and  C_5 
REMARK    2  A    between atoms: C_11  and  C_5 
REMARK    3  A    between atoms: C_13  and  C_6 
REMARK    4  A    between atoms: C_14  and  C_7 
REMARK    5  A    between atoms: N_20  and  C_7 
REMARK    6  A    between atoms: C_12  and  C_8 
REMARK    7  A    between atoms: S_33  and  C_8 
REMARK    8  A    between atoms: N_24  and  C_10 
REMARK    9  A    between atoms: C_16  and  C_11 
REMARK   10  A    between atoms: C_11  and  N_19 
REMARK   11  A    between atoms: C_15  and  C_12 
REMARK   12  A    between atoms: C_12  and  N_22 
REMARK   13  A    between atoms: C_13  and  O_25 
REMARK   14  A    between atoms: O_27  and  C_14 
REMARK   15  A    between atoms: O_28  and  C_15 
REMARK   16  A    between atoms: O_30  and  C_16 
REMARK   17  A    between atoms: N_24  and  C_17 
REMARK   18  A    between atoms: C_17  and  O_31 
REMARK   19  A    between atoms: S_33  and  C_17 
REMARK   20  A    between atoms: O_32  and  N_24 
ROOT
HETATM    1  C   UNK N   1      20.795  15.847   6.578  0.00  0.00     0.167 C 
ENDROOT
BRANCH   1   2
HETATM    2  C   UNK N   1      20.277  15.250   5.274  0.00  0.00     0.111 C 
BRANCH   2   3
HETATM    3  S   UNK N   1      21.203  13.765   4.780  0.00  0.00    -0.112 SA
BRANCH   3   4
HETATM    4  C   UNK N   1      21.257  12.899   6.397  0.00  0.00     0.311 C 
BRANCH   4   5
HETATM    5  N   UNK N   1      22.596  12.573   6.883  0.00  0.00    -0.222 N 
BRANCH   5   6
HETATM    6  C   UNK N   1      22.817  12.661   8.285  0.00  0.00     0.060 A 
HETATM    7  C   UNK N   1      24.058  12.280   8.817  0.00  0.00     0.033 A 
HETATM    8  C   UNK N   1      24.189  12.081  10.197  0.00  0.00     0.021 A 
HETATM    9  C   UNK N   1      23.092  12.288  11.041  0.00  0.00     0.011 A 
HETATM   10  C   UNK N   1      21.880  12.733  10.520  0.00  0.00     0.021 A 
HETATM   11 Br   UNK N   1      23.208  11.874  12.895  0.00  0.00    -0.051 Br
HETATM   12  C   UNK N   1      21.741  12.904   9.149  0.00  0.00     0.033 A 
ENDBRANCH   5   6
BRANCH   5  13
HETATM   13  O   UNK N   1      23.395  11.804   6.132  0.00  0.00    -0.284 OA
HETATM   14  H   UNK N   1      24.322  12.054   5.998  0.00  0.00     0.245 HD
ENDBRANCH   5  13
ENDBRANCH   4   5
BRANCH   4  15
HETATM   15  O   UNK N   1      20.458  11.756   6.406  0.00  0.00    -0.366 OA
HETATM   16  H   UNK N   1      19.827  11.111   6.764  0.00  0.00     0.213 HD
ENDBRANCH   4  15
ENDBRANCH   3   4
ENDBRANCH   2   3
ENDBRANCH   1   2
BRANCH   1  17
HETATM   17  C   UNK N   1      19.664  16.418   7.385  0.00  0.00     0.136 C 
HETATM   18  N   UNK N   1      19.898  17.190   8.386  0.00  0.00    -0.363 N 
ATOM     19  HN  UNK N   1      20.862  17.430   8.613  1.00  0.00     0.161 HD
BRANCH  18  20
HETATM   20  C   UNK N   1      18.834  17.726   9.196  0.00  0.00     0.231 C 
BRANCH  20  21
HETATM   21  C   UNK N   1      19.283  18.982   9.882  0.00  0.00     0.158 C 
HETATM   22  O   UNK N   1      20.339  19.518   9.578  0.00  0.00    -0.649 OA
BRANCH  21  23
HETATM   23  O   UNK N   1      18.518  19.519  10.848  0.00  0.00    -0.775 OA
HETATM   24  H   UNK N   1      18.287  20.426  10.816  0.00  0.00     0.167 HD
ENDBRANCH  21  23
ENDBRANCH  20  21
ENDBRANCH  18  20
BRANCH  17  25
HETATM   25  O   UNK N   1      18.393  16.130   7.027  0.00  0.00    -0.348 OA
HETATM   26  H   UNK N   1      18.022  16.137   6.167  0.00  0.00     0.219 HD
ENDBRANCH  17  25
ENDBRANCH   1  17
BRANCH   1  27
HETATM   27  N   UNK N   1      21.921  16.758   6.401  0.00  0.00    -0.362 N 
HETATM   28  C   UNK N   1      22.107  17.661   5.493  0.00  0.00     0.111 C 
ATOM     29  HN  UNK N   1      22.669  16.670   7.089  1.00  0.00     0.162 HD
BRANCH  28  30
HETATM   30  C   UNK N   1      21.096  17.946   4.419  0.00  0.00     0.086 C 
BRANCH  30  31
HETATM   31  C   UNK N   1      20.896  19.411   4.021  0.00  0.00     0.043 C 
BRANCH  31  32
HETATM   32  C   UNK N   1      20.092  19.675   2.729  0.00  0.00     0.173 C 
BRANCH  32  33
HETATM   33  C   UNK N   1      20.907  20.058   1.512  0.00  0.00     0.163 C 
HETATM   34  O   UNK N   1      21.939  20.696   1.657  0.00  0.00    -0.648 OA
BRANCH  33  35
HETATM   35  O   UNK N   1      20.525  19.705   0.269  0.00  0.00    -0.775 OA
HETATM   36  H   UNK N   1      21.139  19.736  -0.438  0.00  0.00     0.167 HD
ENDBRANCH  33  35
ENDBRANCH  32  33
BRANCH  32  37
HETATM   37  N   UNK N   1      19.263  18.522   2.422  0.00  0.00    -0.418 N 
HETATM   38  H   UNK N   1      19.101  17.856   1.667  0.00  0.00     0.150 HD
HETATM   39  H   UNK N   1      18.649  18.314   3.209  0.00  0.00     0.150 HD
ENDBRANCH  32  37
ENDBRANCH  31  32
ENDBRANCH  30  31
ENDBRANCH  28  30
BRANCH  28  40
HETATM   40  O   UNK N   1      23.205  18.432   5.577  0.00  0.00    -0.350 OA
HETATM   41  H   UNK N   1      23.944  18.591   5.023  0.00  0.00     0.219 HD
ENDBRANCH  28  40
ENDBRANCH   1  27
TORSDOF 20
ENDMDL
MODEL 9
REMARK VINA RESULT:      -5.8      4.810      5.574
REMARK  20 active torsions:
REMARK  status: ('A' for Active; 'I' for Inactive)
REMARK    1  A    between atoms: C_6  and  C_5 
REMARK    2  A    between atoms: C_11  and  C_5 
REMARK    3  A    between atoms: C_13  and  C_6 
REMARK    4  A    between atoms: C_14  and  C_7 
REMARK    5  A    between atoms: N_20  and  C_7 
REMARK    6  A    between atoms: C_12  and  C_8 
REMARK    7  A    between atoms: S_33  and  C_8 
REMARK    8  A    between atoms: N_24  and  C_10 
REMARK    9  A    between atoms: C_16  and  C_11 
REMARK   10  A    between atoms: C_11  and  N_19 
REMARK   11  A    between atoms: C_15  and  C_12 
REMARK   12  A    between atoms: C_12  and  N_22 
REMARK   13  A    between atoms: C_13  and  O_25 
REMARK   14  A    between atoms: O_27  and  C_14 
REMARK   15  A    between atoms: O_28  and  C_15 
REMARK   16  A    between atoms: O_30  and  C_16 
REMARK   17  A    between atoms: N_24  and  C_17 
REMARK   18  A    between atoms: C_17  and  O_31 
REMARK   19  A    between atoms: S_33  and  C_17 
REMARK   20  A    between atoms: O_32  and  N_24 
ROOT
HETATM    1  C   UNK N   1      23.041  17.863   3.866  0.00  0.00     0.167 C 
ENDROOT
BRANCH   1   2
HETATM    2  C   UNK N   1      24.063  18.651   4.677  0.00  0.00     0.111 C 
BRANCH   2   3
HETATM    3  S   UNK N   1      25.213  19.582   3.620  0.00  0.00    -0.112 SA
BRANCH   3   4
HETATM    4  C   UNK N   1      26.797  19.104   4.414  0.00  0.00     0.311 C 
BRANCH   4   5
HETATM    5  N   UNK N   1      26.830  19.246   5.868  0.00  0.00    -0.222 N 
BRANCH   5   6
HETATM    6  C   UNK N   1      27.769  18.448   6.577  0.00  0.00     0.060 A 
HETATM    7  C   UNK N   1      28.346  18.939   7.758  0.00  0.00     0.033 A 
HETATM    8  C   UNK N   1      29.472  18.304   8.296  0.00  0.00     0.021 A 
HETATM    9  C   UNK N   1      30.001  17.169   7.671  0.00  0.00     0.011 A 
HETATM   10  C   UNK N   1      29.387  16.642   6.538  0.00  0.00     0.021 A 
HETATM   11 Br   UNK N   1      31.619  16.387   8.296  0.00  0.00    -0.051 Br
HETATM   12  C   UNK N   1      28.287  17.287   5.987  0.00  0.00     0.033 A 
ENDBRANCH   5   6
BRANCH   5  13
HETATM   13  O   UNK N   1      26.357  20.367   6.427  0.00  0.00    -0.284 OA
HETATM   14  H   UNK N   1      25.480  20.371   6.840  0.00  0.00     0.245 HD
ENDBRANCH   5  13
ENDBRANCH   4   5
BRANCH   4  15
HETATM   15  O   UNK N   1      27.887  19.765   3.848  0.00  0.00    -0.366 OA
HETATM   16  H   UNK N   1      28.582  19.940   3.194  0.00  0.00     0.213 HD
ENDBRANCH   4  15
ENDBRANCH   3   4
ENDBRANCH   2   3
ENDBRANCH   1   2
BRANCH   1  17
HETATM   17  C   UNK N   1      21.824  18.700   3.591  0.00  0.00     0.136 C 
HETATM   18  N   UNK N   1      21.885  19.700   2.784  0.00  0.00    -0.363 N 
ATOM     19  HN  UNK N   1      22.765  19.904   2.314  1.00  0.00     0.161 HD
BRANCH  18  20
HETATM   20  C   UNK N   1      20.742  20.538   2.527  0.00  0.00     0.231 C 
BRANCH  20  21
HETATM   21  C   UNK N   1      20.691  20.919   1.077  0.00  0.00     0.158 C 
HETATM   22  O   UNK N   1      20.668  22.093   0.738  0.00  0.00    -0.649 OA
BRANCH  21  23
HETATM   23  O   UNK N   1      20.662  19.956   0.140  0.00  0.00    -0.775 OA
HETATM   24  H   UNK N   1      20.052  20.007  -0.569  0.00  0.00     0.167 HD
ENDBRANCH  21  23
ENDBRANCH  20  21
ENDBRANCH  18  20
BRANCH  17  25
HETATM   25  O   UNK N   1      20.655  18.373   4.185  0.00  0.00    -0.348 OA
HETATM   26  H   UNK N   1      20.523  17.804   4.918  0.00  0.00     0.219 HD
ENDBRANCH  17  25
ENDBRANCH   1  17
BRANCH   1  27
HETATM   27  N   UNK N   1      22.746  16.544   4.415  0.00  0.00    -0.362 N 
HETATM   28  C   UNK N   1      22.635  15.409   3.803  0.00  0.00     0.111 C 
ATOM     29  HN  UNK N   1      22.606  16.512   5.425  1.00  0.00     0.162 HD
BRANCH  28  30
HETATM   30  C   UNK N   1      22.839  15.268   2.322  0.00  0.00     0.086 C 
BRANCH  30  31
HETATM   31  C   UNK N   1      21.604  14.938   1.478  0.00  0.00     0.043 C 
BRANCH  31  32
HETATM   32  C   UNK N   1      20.282  15.625   1.886  0.00  0.00     0.173 C 
BRANCH  32  33
HETATM   33  C   UNK N   1      19.884  16.830   1.061  0.00  0.00     0.163 C 
HETATM   34  O   UNK N   1      20.313  16.948  -0.077  0.00  0.00    -0.648 OA
BRANCH  33  35
HETATM   35  O   UNK N   1      19.058  17.776   1.550  0.00  0.00    -0.775 OA
HETATM   36  H   UNK N   1      18.715  18.439   0.983  0.00  0.00     0.167 HD
ENDBRANCH  33  35
ENDBRANCH  32  33
BRANCH  32  37
HETATM   37  N   UNK N   1      19.203  14.652   1.887  0.00  0.00    -0.418 N 
HETATM   38  H   UNK N   1      18.490  14.276   1.262  0.00  0.00     0.150 HD
HETATM   39  H   UNK N   1      19.137  14.205   2.801  0.00  0.00     0.150 HD
ENDBRANCH  32  37
ENDBRANCH  31  32
ENDBRANCH  30  31
ENDBRANCH  28  30
BRANCH  28  40
HETATM   40  O   UNK N   1      22.422  14.306   4.542  0.00  0.00    -0.350 OA
HETATM   41  H   UNK N   1      22.959  13.758   5.079  0.00  0.00     0.219 HD
ENDBRANCH  28  40
ENDBRANCH   1  27
TORSDOF 20
ENDMDL
