REMARK  5 active torsions:
REMARK  status: ('A' for Active; 'I' for Inactive)
REMARK    1  A    between atoms: C_5  and  C_3 
REMARK    2  A    between atoms: O_6  and  C_3 
REMARK    3  A    between atoms: C_4  and  O_7 
REMARK    4  A    between atoms: P_15  and  O_8 
REMARK    5  A    between atoms: P_16  and  O_10 
ROOT
HETATM    1  C   UNK N   1      -1.005   1.384  -1.417  0.00  0.00     0.052 C 
HETATM    2  C   UNK N   1       1.991   1.112  -0.910  0.00  0.00     0.215 C 
HETATM    3  C   UNK N   1       1.062   1.936  -0.016  0.00  0.00     0.179 C 
HETATM    4  C   UNK N   1      -0.386   1.368  -0.006  0.00  0.00     0.117 C 
HETATM    5  O   UNK N   1       2.915  -1.907  -1.021  0.00  0.00    -0.631 OA
HETATM    6  O   UNK N   1      -0.252  -2.608   0.209  0.00  0.00    -0.631 OA
HETATM    7  O   UNK N   1       3.094   0.643  -0.194  0.00  0.00    -0.294 OA
HETATM    8  O   UNK N   1      -0.421   0.083   0.610  0.00  0.00    -0.281 OA
HETATM    9  O   UNK N   1       1.112  -1.225   0.881  0.00  0.00    -0.195 OA
HETATM   10  P   UNK N   1       2.723  -1.007   0.232  0.00  0.00     0.401 P 
HETATM   11  P   UNK N   1       0.009  -1.237  -0.470  0.00  0.00     0.402 P 
ENDROOT
BRANCH   4  12
HETATM   12  C   UNK N   1      -1.285   2.244   0.877  0.00  0.00     0.205 C 
BRANCH  12  13
HETATM   13  O   UNK N   1      -1.500   3.513   0.334  0.00  0.00    -0.398 OA
HETATM   14  H   UNK N   1      -0.811   4.083  -0.044  0.00  0.00     0.209 HD
ENDBRANCH  12  13
ENDBRANCH   4  12
BRANCH   3  15
HETATM   15  O   UNK N   1       1.082   3.253  -0.478  0.00  0.00    -0.390 OA
HETATM   16  H   UNK N   1       1.881   3.699  -0.799  0.00  0.00     0.210 HD
ENDBRANCH   3  15
BRANCH  11  17
HETATM   17  O   UNK N   1      -1.706  -1.246  -0.186  0.00  0.00    -0.307 OA
HETATM   18  H   UNK N   1      -2.189  -0.419  -0.028  0.00  0.00     0.222 HD
ENDBRANCH  11  17
BRANCH  10  19
HETATM   19  O   UNK N   1       3.884  -1.567   1.394  0.00  0.00    -0.307 OA
HETATM   20  H   UNK N   1       3.937  -2.285   2.044  0.00  0.00     0.222 HD
ENDBRANCH  10  19
TORSDOF 5
