MODEL 1
REMARK VINA RESULT:      -4.4      0.000      0.000
REMARK  4 active torsions:
REMARK  status: ('A' for Active; 'I' for Inactive)
REMARK    1  A    between atoms: C_2  and  C_4 
REMARK    2  A    between atoms: C_4  and  N_5 
REMARK    3  A    between atoms: C_4  and  C_6 
REMARK    4  A    between atoms: C_6  and  O_7 
ROOT
HETATM    1  C   UNK N   1      34.103  17.261   9.095  0.00  0.00     0.243 C 
ENDROOT
BRANCH   1   2
HETATM    2  C   UNK N   1      34.957  16.641  10.166  0.00  0.00     0.155 C 
HETATM    3  C   UNK N   1      34.601  15.315  10.747  0.00  0.00     0.093 C 
HETATM    4  O   UNK N   1      35.951  17.220  10.570  0.00  0.00    -0.296 OA
ENDBRANCH   1   2
BRANCH   1   5
HETATM    5  N   UNK N   1      32.704  16.874   9.003  0.00  0.00    -0.412 N 
HETATM    6  H   UNK N   1      32.442  15.890   9.064  0.00  0.00     0.151 HD
HETATM    7  H   UNK N   1      31.985  17.586   8.877  0.00  0.00     0.151 HD
ENDBRANCH   1   5
BRANCH   1   8
HETATM    8  C   UNK N   1      34.623  18.267   8.109  0.00  0.00     0.170 C 
HETATM    9  O   UNK N   1      34.405  18.131   6.918  0.00  0.00    -0.648 OA
BRANCH   8  10
HETATM   10  O   UNK N   1      35.336  19.325   8.539  0.00  0.00    -0.775 OA
HETATM   11  H   UNK N   1      34.906  20.141   8.712  0.00  0.00     0.167 HD
ENDBRANCH   8  10
ENDBRANCH   1   8
TORSDOF 4
ENDMDL
MODEL 2
REMARK VINA RESULT:      -4.2     15.185     15.730
REMARK  4 active torsions:
REMARK  status: ('A' for Active; 'I' for Inactive)
REMARK    1  A    between atoms: C_2  and  C_4 
REMARK    2  A    between atoms: C_4  and  N_5 
REMARK    3  A    between atoms: C_4  and  C_6 
REMARK    4  A    between atoms: C_6  and  O_7 
ROOT
HETATM    1  C   UNK N   1      20.550  19.392   1.902  0.00  0.00     0.243 C 
ENDROOT
BRANCH   1   2
HETATM    2  C   UNK N   1      20.641  19.225   3.394  0.00  0.00     0.155 C 
HETATM    3  C   UNK N   1      20.798  17.871   3.997  0.00  0.00     0.093 C 
HETATM    4  O   UNK N   1      20.588  20.201   4.124  0.00  0.00    -0.296 OA
ENDBRANCH   1   2
BRANCH   1   5
HETATM    5  N   UNK N   1      20.104  18.265   1.098  0.00  0.00    -0.412 N 
HETATM    6  H   UNK N   1      19.756  17.421   1.551  0.00  0.00     0.151 HD
HETATM    7  H   UNK N   1      20.139  18.320   0.080  0.00  0.00     0.151 HD
ENDBRANCH   1   5
BRANCH   1   8
HETATM    8  C   UNK N   1      20.897  20.670   1.195  0.00  0.00     0.170 C 
HETATM    9  O   UNK N   1      21.098  20.675  -0.007  0.00  0.00    -0.648 OA
BRANCH   8  10
HETATM   10  O   UNK N   1      20.989  21.821   1.889  0.00  0.00    -0.775 OA
HETATM   11  H   UNK N   1      20.429  21.969   2.627  0.00  0.00     0.167 HD
ENDBRANCH   8  10
ENDBRANCH   1   8
TORSDOF 4
ENDMDL
MODEL 3
REMARK VINA RESULT:      -4.0      1.933      2.816
REMARK  4 active torsions:
REMARK  status: ('A' for Active; 'I' for Inactive)
REMARK    1  A    between atoms: C_2  and  C_4 
REMARK    2  A    between atoms: C_4  and  N_5 
REMARK    3  A    between atoms: C_4  and  C_6 
REMARK    4  A    between atoms: C_6  and  O_7 
ROOT
HETATM    1  C   UNK N   1      33.881  17.323   8.971  0.00  0.00     0.243 C 
ENDROOT
BRANCH   1   2
HETATM    2  C   UNK N   1      32.528  16.734   8.679  0.00  0.00     0.155 C 
HETATM    3  C   UNK N   1      31.350  17.618   8.446  0.00  0.00     0.093 C 
HETATM    4  O   UNK N   1      32.384  15.524   8.631  0.00  0.00    -0.296 OA
ENDBRANCH   1   2
BRANCH   1   5
HETATM    5  N   UNK N   1      34.551  16.958  10.209  0.00  0.00    -0.412 N 
HETATM    6  H   UNK N   1      35.092  16.095  10.262  0.00  0.00     0.151 HD
HETATM    7  H   UNK N   1      34.479  17.565  11.026  0.00  0.00     0.151 HD
ENDBRANCH   1   5
BRANCH   1   8
HETATM    8  C   UNK N   1      34.581  18.274   8.044  0.00  0.00     0.170 C 
HETATM    9  O   UNK N   1      35.252  19.187   8.490  0.00  0.00    -0.648 OA
BRANCH   8  10
HETATM   10  O   UNK N   1      34.468  18.121   6.710  0.00  0.00    -0.775 OA
HETATM   11  H   UNK N   1      34.805  17.349   6.297  0.00  0.00     0.167 HD
ENDBRANCH   8  10
ENDBRANCH   1   8
TORSDOF 4
ENDMDL
MODEL 4
REMARK VINA RESULT:      -3.7      2.604      3.708
REMARK  4 active torsions:
REMARK  status: ('A' for Active; 'I' for Inactive)
REMARK    1  A    between atoms: C_2  and  C_4 
REMARK    2  A    between atoms: C_4  and  N_5 
REMARK    3  A    between atoms: C_4  and  C_6 
REMARK    4  A    between atoms: C_6  and  O_7 
ROOT
HETATM    1  C   UNK N   1      34.813  15.062  11.325  0.00  0.00     0.243 C 
ENDROOT
BRANCH   1   2
HETATM    2  C   UNK N   1      35.270  13.941  12.218  0.00  0.00     0.155 C 
HETATM    3  C   UNK N   1      36.007  14.230  13.481  0.00  0.00     0.093 C 
HETATM    4  O   UNK N   1      35.041  12.783  11.914  0.00  0.00    -0.296 OA
ENDBRANCH   1   2
BRANCH   1   5
HETATM    5  N   UNK N   1      33.449  15.045  10.823  0.00  0.00    -0.412 N 
HETATM    6  H   UNK N   1      32.752  15.679  11.214  0.00  0.00     0.151 HD
HETATM    7  H   UNK N   1      33.188  14.398  10.078  0.00  0.00     0.151 HD
ENDBRANCH   1   5
BRANCH   1   8
HETATM    8  C   UNK N   1      35.699  16.206  10.924  0.00  0.00     0.170 C 
HETATM    9  O   UNK N   1      35.222  17.304  10.696  0.00  0.00    -0.648 OA
BRANCH   8  10
HETATM   10  O   UNK N   1      37.028  16.022  10.814  0.00  0.00    -0.775 OA
HETATM   11  H   UNK N   1      37.608  16.407  11.443  0.00  0.00     0.167 HD
ENDBRANCH   8  10
ENDBRANCH   1   8
TORSDOF 4
ENDMDL
MODEL 5
REMARK VINA RESULT:      -3.7      1.803      3.539
REMARK  4 active torsions:
REMARK  status: ('A' for Active; 'I' for Inactive)
REMARK    1  A    between atoms: C_2  and  C_4 
REMARK    2  A    between atoms: C_4  and  N_5 
REMARK    3  A    between atoms: C_4  and  C_6 
REMARK    4  A    between atoms: C_6  and  O_7 
ROOT
HETATM    1  C   UNK N   1      34.722  15.743  10.419  0.00  0.00     0.243 C 
ENDROOT
BRANCH   1   2
HETATM    2  C   UNK N   1      34.576  16.990   9.590  0.00  0.00     0.155 C 
HETATM    3  C   UNK N   1      33.447  17.134   8.628  0.00  0.00     0.093 C 
HETATM    4  O   UNK N   1      35.385  17.897   9.699  0.00  0.00    -0.296 OA
ENDBRANCH   1   2
BRANCH   1   5
HETATM    5  N   UNK N   1      33.523  15.013  10.800  0.00  0.00    -0.412 N 
HETATM    6  H   UNK N   1      32.615  15.477  10.782  0.00  0.00     0.151 HD
HETATM    7  H   UNK N   1      33.591  14.036  11.086  0.00  0.00     0.151 HD
ENDBRANCH   1   5
BRANCH   1   8
HETATM    8  C   UNK N   1      36.049  15.210  10.876  0.00  0.00     0.170 C 
HETATM    9  O   UNK N   1      36.154  14.055  11.246  0.00  0.00    -0.648 OA
BRANCH   8  10
HETATM   10  O   UNK N   1      37.132  16.011  10.878  0.00  0.00    -0.775 OA
HETATM   11  H   UNK N   1      37.609  16.152  11.674  0.00  0.00     0.167 HD
ENDBRANCH   8  10
ENDBRANCH   1   8
TORSDOF 4
ENDMDL
MODEL 6
REMARK VINA RESULT:      -3.6      2.090      2.205
REMARK  4 active torsions:
REMARK  status: ('A' for Active; 'I' for Inactive)
REMARK    1  A    between atoms: C_2  and  C_4 
REMARK    2  A    between atoms: C_4  and  N_5 
REMARK    3  A    between atoms: C_4  and  C_6 
REMARK    4  A    between atoms: C_6  and  O_7 
ROOT
HETATM    1  C   UNK N   1      34.591  16.937   9.001  0.00  0.00     0.243 C 
ENDROOT
BRANCH   1   2
HETATM    2  C   UNK N   1      34.355  15.572   8.415  0.00  0.00     0.155 C 
HETATM    3  C   UNK N   1      35.244  15.043   7.342  0.00  0.00     0.093 C 
HETATM    4  O   UNK N   1      33.431  14.884   8.815  0.00  0.00    -0.296 OA
ENDBRANCH   1   2
BRANCH   1   5
HETATM    5  N   UNK N   1      34.843  17.051  10.429  0.00  0.00    -0.412 N 
HETATM    6  H   UNK N   1      35.779  16.876  10.797  0.00  0.00     0.151 HD
HETATM    7  H   UNK N   1      34.086  17.306  11.062  0.00  0.00     0.151 HD
ENDBRANCH   1   5
BRANCH   1   8
HETATM    8  C   UNK N   1      34.578  18.196   8.183  0.00  0.00     0.170 C 
HETATM    9  O   UNK N   1      33.894  18.271   7.179  0.00  0.00    -0.648 OA
BRANCH   8  10
HETATM   10  O   UNK N   1      35.327  19.250   8.560  0.00  0.00    -0.775 OA
HETATM   11  H   UNK N   1      36.255  19.237   8.427  0.00  0.00     0.167 HD
ENDBRANCH   8  10
ENDBRANCH   1   8
TORSDOF 4
ENDMDL
MODEL 7
REMARK VINA RESULT:      -3.6      3.724      4.804
REMARK  4 active torsions:
REMARK  status: ('A' for Active; 'I' for Inactive)
REMARK    1  A    between atoms: C_2  and  C_4 
REMARK    2  A    between atoms: C_4  and  N_5 
REMARK    3  A    between atoms: C_4  and  C_6 
REMARK    4  A    between atoms: C_6  and  O_7 
ROOT
HETATM    1  C   UNK N   1      36.336  14.417  12.048  0.00  0.00     0.243 C 
ENDROOT
BRANCH   1   2
HETATM    2  C   UNK N   1      35.755  13.925  13.345  0.00  0.00     0.155 C 
HETATM    3  C   UNK N   1      36.542  14.006  14.608  0.00  0.00     0.093 C 
HETATM    4  O   UNK N   1      34.630  13.454  13.374  0.00  0.00    -0.296 OA
ENDBRANCH   1   2
BRANCH   1   5
HETATM    5  N   UNK N   1      37.502  13.741  11.503  0.00  0.00    -0.412 N 
HETATM    6  H   UNK N   1      38.433  13.966  11.854  0.00  0.00     0.151 HD
HETATM    7  H   UNK N   1      37.390  13.042  10.768  0.00  0.00     0.151 HD
ENDBRANCH   1   5
BRANCH   1   8
HETATM    8  C   UNK N   1      35.770  15.578  11.282  0.00  0.00     0.170 C 
HETATM    9  O   UNK N   1      36.512  16.380  10.743  0.00  0.00    -0.648 OA
BRANCH   8  10
HETATM   10  O   UNK N   1      34.436  15.737  11.188  0.00  0.00    -0.775 OA
HETATM   11  H   UNK N   1      34.083  16.441  10.679  0.00  0.00     0.167 HD
ENDBRANCH   8  10
ENDBRANCH   1   8
TORSDOF 4
ENDMDL
MODEL 8
REMARK VINA RESULT:      -3.5     13.293     13.849
REMARK  4 active torsions:
REMARK  status: ('A' for Active; 'I' for Inactive)
REMARK    1  A    between atoms: C_2  and  C_4 
REMARK    2  A    between atoms: C_4  and  N_5 
REMARK    3  A    between atoms: C_4  and  C_6 
REMARK    4  A    between atoms: C_6  and  O_7 
ROOT
HETATM    1  C   UNK N   1      30.537  22.087  -3.489  0.00  0.00     0.243 C 
ENDROOT
BRANCH   1   2
HETATM    2  C   UNK N   1      29.876  22.858  -2.380  0.00  0.00     0.155 C 
HETATM    3  C   UNK N   1      28.502  23.411  -2.555  0.00  0.00     0.093 C 
HETATM    4  O   UNK N   1      30.460  23.038  -1.324  0.00  0.00    -0.296 OA
ENDBRANCH   1   2
BRANCH   1   5
HETATM    5  N   UNK N   1      29.976  22.166  -4.828  0.00  0.00    -0.412 N 
HETATM    6  H   UNK N   1      29.912  21.327  -5.405  0.00  0.00     0.151 HD
HETATM    7  H   UNK N   1      29.646  23.061  -5.190  0.00  0.00     0.151 HD
ENDBRANCH   1   5
BRANCH   1   8
HETATM    8  C   UNK N   1      31.756  21.234  -3.283  0.00  0.00     0.170 C 
HETATM    9  O   UNK N   1      32.107  20.445  -4.142  0.00  0.00    -0.648 OA
BRANCH   8  10
HETATM   10  O   UNK N   1      32.467  21.339  -2.145  0.00  0.00    -0.775 OA
HETATM   11  H   UNK N   1      32.031  21.519  -1.334  0.00  0.00     0.167 HD
ENDBRANCH   8  10
ENDBRANCH   1   8
TORSDOF 4
ENDMDL
MODEL 9
REMARK VINA RESULT:      -3.5     13.254     13.674
REMARK  4 active torsions:
REMARK  status: ('A' for Active; 'I' for Inactive)
REMARK    1  A    between atoms: C_2  and  C_4 
REMARK    2  A    between atoms: C_4  and  N_5 
REMARK    3  A    between atoms: C_4  and  C_6 
REMARK    4  A    between atoms: C_6  and  O_7 
ROOT
HETATM    1  C   UNK N   1      21.575  12.349  11.022  0.00  0.00     0.243 C 
ENDROOT
BRANCH   1   2
HETATM    2  C   UNK N   1      22.966  12.072  11.522  0.00  0.00     0.155 C 
HETATM    3  C   UNK N   1      23.222  11.866  12.976  0.00  0.00     0.093 C 
HETATM    4  O   UNK N   1      23.899  12.014  10.739  0.00  0.00    -0.296 OA
ENDBRANCH   1   2
BRANCH   1   5
HETATM    5  N   UNK N   1      20.443  11.867  11.798  0.00  0.00    -0.412 N 
HETATM    6  H   UNK N   1      19.607  11.526  11.324  0.00  0.00     0.151 HD
HETATM    7  H   UNK N   1      20.486  11.869  12.818  0.00  0.00     0.151 HD
ENDBRANCH   1   5
BRANCH   1   8
HETATM    8  C   UNK N   1      21.292  13.102   9.755  0.00  0.00     0.170 C 
HETATM    9  O   UNK N   1      21.055  12.501   8.721  0.00  0.00    -0.648 OA
BRANCH   8  10
HETATM   10  O   UNK N   1      21.298  14.449   9.755  0.00  0.00    -0.775 OA
HETATM   11  H   UNK N   1      20.734  14.920  10.338  0.00  0.00     0.167 HD
ENDBRANCH   8  10
ENDBRANCH   1   8
TORSDOF 4
ENDMDL
