MODEL 1
REMARK VINA RESULT:      -4.8      0.000      0.000
REMARK  2 active torsions:
REMARK  status: ('A' for Active; 'I' for Inactive)
REMARK    1  A    between atoms: O_1  and  C_2 
REMARK    2  A    between atoms: C_2  and  C_4 
ROOT
HETATM    1  C   UNK N   1      21.626  13.213   9.801  0.00  0.00     0.037 A 
HETATM    2  C   UNK N   1      22.860  13.460   9.184  0.00  0.00     0.018 A 
HETATM    3  C   UNK N   1      24.035  12.925   9.712  0.00  0.00     0.001 A 
HETATM    4  C   UNK N   1      23.988  12.136  10.862  0.00  0.00    -0.083 A 
HETATM    5 Hg   UNK N   1      25.756  11.367  11.603  0.00  0.00     0.083 Hg
HETATM    6  C   UNK N   1      22.763  11.881  11.489  0.00  0.00     0.001 A 
HETATM    7  C   UNK N   1      21.582  12.420  10.959  0.00  0.00     0.018 A 
ENDROOT
BRANCH   1   8
HETATM    8  C   UNK N   1      20.393  13.789   9.228  0.00  0.00     0.176 C 
HETATM    9  O   UNK N   1      19.457  14.081   9.954  0.00  0.00    -0.646 OA
BRANCH   8  10
HETATM   10  O   UNK N   1      20.292  13.996   7.900  0.00  0.00    -0.773 OA
HETATM   11  H   UNK N   1      19.455  14.160   7.513  0.00  0.00     0.167 HD
ENDBRANCH   8  10
ENDBRANCH   1   8
TORSDOF 2
ENDMDL
MODEL 2
REMARK VINA RESULT:      -4.7     11.476     12.672
REMARK  2 active torsions:
REMARK  status: ('A' for Active; 'I' for Inactive)
REMARK    1  A    between atoms: O_1  and  C_2 
REMARK    2  A    between atoms: C_2  and  C_4 
ROOT
HETATM    1  C   UNK N   1      33.425  17.753   7.619  0.00  0.00     0.037 A 
HETATM    2  C   UNK N   1      33.776  17.593   6.272  0.00  0.00     0.018 A 
HETATM    3  C   UNK N   1      32.810  17.251   5.326  0.00  0.00     0.001 A 
HETATM    4  C   UNK N   1      31.483  17.065   5.716  0.00  0.00    -0.083 A 
HETATM    5 Hg   UNK N   1      30.092  16.559   4.277  0.00  0.00     0.083 Hg
HETATM    6  C   UNK N   1      31.119  17.222   7.059  0.00  0.00     0.001 A 
HETATM    7  C   UNK N   1      32.089  17.566   8.010  0.00  0.00     0.018 A 
ENDROOT
BRANCH   1   8
HETATM    8  C   UNK N   1      34.461  18.116   8.607  0.00  0.00     0.176 C 
HETATM    9  O   UNK N   1      35.209  19.055   8.395  0.00  0.00    -0.646 OA
BRANCH   8  10
HETATM   10  O   UNK N   1      34.587  17.412   9.750  0.00  0.00    -0.773 OA
HETATM   11  H   UNK N   1      33.828  17.190  10.251  0.00  0.00     0.167 HD
ENDBRANCH   8  10
ENDBRANCH   1   8
TORSDOF 2
ENDMDL
MODEL 3
REMARK VINA RESULT:      -4.7     19.785     20.776
REMARK  2 active torsions:
REMARK  status: ('A' for Active; 'I' for Inactive)
REMARK    1  A    between atoms: O_1  and  C_2 
REMARK    2  A    between atoms: C_2  and  C_4 
ROOT
HETATM    1  C   UNK N   1      26.102  27.686  -3.958  0.00  0.00     0.037 A 
HETATM    2  C   UNK N   1      26.591  26.450  -3.515  0.00  0.00     0.018 A 
HETATM    3  C   UNK N   1      26.251  25.274  -4.184  0.00  0.00     0.001 A 
HETATM    4  C   UNK N   1      25.418  25.322  -5.302  0.00  0.00    -0.083 A 
HETATM    5 Hg   UNK N   1      24.944  23.553  -6.256  0.00  0.00     0.083 Hg
HETATM    6  C   UNK N   1      24.922  26.550  -5.755  0.00  0.00     0.001 A 
HETATM    7  C   UNK N   1      25.263  27.732  -5.083  0.00  0.00     0.018 A 
ENDROOT
BRANCH   1   8
HETATM    8  C   UNK N   1      26.473  28.921  -3.238  0.00  0.00     0.176 C 
HETATM    9  O   UNK N   1      27.199  28.866  -2.259  0.00  0.00    -0.646 OA
BRANCH   8  10
HETATM   10  O   UNK N   1      26.012  30.117  -3.655  0.00  0.00    -0.773 OA
HETATM   11  H   UNK N   1      25.152  30.188  -4.018  0.00  0.00     0.167 HD
ENDBRANCH   8  10
ENDBRANCH   1   8
TORSDOF 2
ENDMDL
MODEL 4
REMARK VINA RESULT:      -4.7     14.556     15.308
REMARK  2 active torsions:
REMARK  status: ('A' for Active; 'I' for Inactive)
REMARK    1  A    between atoms: O_1  and  C_2 
REMARK    2  A    between atoms: C_2  and  C_4 
ROOT
HETATM    1  C   UNK N   1      35.608  12.889  16.511  0.00  0.00     0.037 A 
HETATM    2  C   UNK N   1      35.316  13.818  17.518  0.00  0.00     0.018 A 
HETATM    3  C   UNK N   1      35.153  13.402  18.839  0.00  0.00     0.001 A 
HETATM    4  C   UNK N   1      35.281  12.052  19.167  0.00  0.00    -0.083 A 
HETATM    5 Hg   UNK N   1      35.031  11.487  21.138  0.00  0.00     0.083 Hg
HETATM    6  C   UNK N   1      35.573  11.112  18.171  0.00  0.00     0.001 A 
HETATM    7  C   UNK N   1      35.736  11.531  16.843  0.00  0.00     0.018 A 
ENDROOT
BRANCH   1   8
HETATM    8  C   UNK N   1      35.777  13.348  15.118  0.00  0.00     0.176 C 
HETATM    9  O   UNK N   1      34.828  13.345  14.351  0.00  0.00    -0.646 OA
BRANCH   8  10
HETATM   10  O   UNK N   1      36.980  13.773  14.682  0.00  0.00    -0.773 OA
HETATM   11  H   UNK N   1      37.761  13.497  15.118  0.00  0.00     0.167 HD
ENDBRANCH   8  10
ENDBRANCH   1   8
TORSDOF 2
ENDMDL
MODEL 5
REMARK VINA RESULT:      -4.5      9.224     10.230
REMARK  2 active torsions:
REMARK  status: ('A' for Active; 'I' for Inactive)
REMARK    1  A    between atoms: O_1  and  C_2 
REMARK    2  A    between atoms: C_2  and  C_4 
ROOT
HETATM    1  C   UNK N   1      28.049  19.185   7.108  0.00  0.00     0.037 A 
HETATM    2  C   UNK N   1      27.351  20.386   6.925  0.00  0.00     0.018 A 
HETATM    3  C   UNK N   1      27.040  20.834   5.642  0.00  0.00     0.001 A 
HETATM    4  C   UNK N   1      27.425  20.087   4.528  0.00  0.00    -0.083 A 
HETATM    5 Hg   UNK N   1      26.941  20.796   2.650  0.00  0.00     0.083 Hg
HETATM    6  C   UNK N   1      28.124  18.886   4.696  0.00  0.00     0.001 A 
HETATM    7  C   UNK N   1      28.436  18.435   5.986  0.00  0.00     0.018 A 
ENDROOT
BRANCH   1   8
HETATM    8  C   UNK N   1      28.369  18.725   8.475  0.00  0.00     0.176 C 
HETATM    9  O   UNK N   1      29.522  18.744   8.875  0.00  0.00    -0.646 OA
BRANCH   8  10
HETATM   10  O   UNK N   1      27.392  18.281   9.290  0.00  0.00    -0.773 OA
HETATM   11  H   UNK N   1      27.417  18.480  10.205  0.00  0.00     0.167 HD
ENDBRANCH   8  10
ENDBRANCH   1   8
TORSDOF 2
ENDMDL
MODEL 6
REMARK VINA RESULT:      -4.4     13.628     14.746
REMARK  2 active torsions:
REMARK  status: ('A' for Active; 'I' for Inactive)
REMARK    1  A    between atoms: O_1  and  C_2 
REMARK    2  A    between atoms: C_2  and  C_4 
ROOT
HETATM    1  C   UNK N   1      34.742  12.008  16.400  0.00  0.00     0.037 A 
HETATM    2  C   UNK N   1      35.119  11.007  17.305  0.00  0.00     0.018 A 
HETATM    3  C   UNK N   1      35.486  11.335  18.609  0.00  0.00     0.001 A 
HETATM    4  C   UNK N   1      35.480  12.667  19.024  0.00  0.00    -0.083 A 
HETATM    5 Hg   UNK N   1      36.033  13.099  20.966  0.00  0.00     0.083 Hg
HETATM    6  C   UNK N   1      35.106  13.677  18.130  0.00  0.00     0.001 A 
HETATM    7  C   UNK N   1      34.736  13.348  16.819  0.00  0.00     0.018 A 
ENDROOT
BRANCH   1   8
HETATM    8  C   UNK N   1      34.356  11.643  15.022  0.00  0.00     0.176 C 
HETATM    9  O   UNK N   1      34.044  10.494  14.756  0.00  0.00    -0.646 OA
BRANCH   8  10
HETATM   10  O   UNK N   1      34.345  12.575  14.048  0.00  0.00    -0.773 OA
HETATM   11  H   UNK N   1      35.026  12.590  13.406  0.00  0.00     0.167 HD
ENDBRANCH   8  10
ENDBRANCH   1   8
TORSDOF 2
ENDMDL
MODEL 7
REMARK VINA RESULT:      -4.4      8.615      9.650
REMARK  2 active torsions:
REMARK  status: ('A' for Active; 'I' for Inactive)
REMARK    1  A    between atoms: O_1  and  C_2 
REMARK    2  A    between atoms: C_2  and  C_4 
ROOT
HETATM    1  C   UNK N   1      29.467  17.698   8.293  0.00  0.00     0.037 A 
HETATM    2  C   UNK N   1      30.628  18.113   8.960  0.00  0.00     0.018 A 
HETATM    3  C   UNK N   1      31.883  17.905   8.391  0.00  0.00     0.001 A 
HETATM    4  C   UNK N   1      31.993  17.279   7.148  0.00  0.00    -0.083 A 
HETATM    5 Hg   UNK N   1      33.875  16.995   6.349  0.00  0.00     0.083 Hg
HETATM    6  C   UNK N   1      30.842  16.860   6.471  0.00  0.00     0.001 A 
HETATM    7  C   UNK N   1      29.579  17.069   7.043  0.00  0.00     0.018 A 
ENDROOT
BRANCH   1   8
HETATM    8  C   UNK N   1      28.146  17.927   8.911  0.00  0.00     0.176 C 
HETATM    9  O   UNK N   1      27.645  17.073   9.623  0.00  0.00    -0.646 OA
BRANCH   8  10
HETATM   10  O   UNK N   1      27.483  19.081   8.694  0.00  0.00    -0.773 OA
HETATM   11  H   UNK N   1      27.853  19.737   8.137  0.00  0.00     0.167 HD
ENDBRANCH   8  10
ENDBRANCH   1   8
TORSDOF 2
ENDMDL
MODEL 8
REMARK VINA RESULT:      -4.4      3.608      4.306
REMARK  2 active torsions:
REMARK  status: ('A' for Active; 'I' for Inactive)
REMARK    1  A    between atoms: O_1  and  C_2 
REMARK    2  A    between atoms: C_2  and  C_4 
ROOT
HETATM    1  C   UNK N   1      22.769  12.156  10.502  0.00  0.00     0.037 A 
HETATM    2  C   UNK N   1      23.259  11.532   9.347  0.00  0.00     0.018 A 
HETATM    3  C   UNK N   1      22.681  11.790   8.104  0.00  0.00     0.001 A 
HETATM    4  C   UNK N   1      21.607  12.675   8.003  0.00  0.00    -0.083 A 
HETATM    5 Hg   UNK N   1      20.787  13.022   6.139  0.00  0.00     0.083 Hg
HETATM    6  C   UNK N   1      21.107  13.305   9.148  0.00  0.00     0.001 A 
HETATM    7  C   UNK N   1      21.688  13.046  10.397  0.00  0.00     0.018 A 
ENDROOT
BRANCH   1   8
HETATM    8  C   UNK N   1      23.393  11.871  11.809  0.00  0.00     0.176 C 
HETATM    9  O   UNK N   1      24.600  11.978  11.950  0.00  0.00    -0.646 OA
BRANCH   8  10
HETATM   10  O   UNK N   1      22.634  11.492  12.857  0.00  0.00    -0.773 OA
HETATM   11  H   UNK N   1      22.511  12.072  13.582  0.00  0.00     0.167 HD
ENDBRANCH   8  10
ENDBRANCH   1   8
TORSDOF 2
ENDMDL
MODEL 9
REMARK VINA RESULT:      -4.2     10.939     12.094
REMARK  2 active torsions:
REMARK  status: ('A' for Active; 'I' for Inactive)
REMARK    1  A    between atoms: O_1  and  C_2 
REMARK    2  A    between atoms: C_2  and  C_4 
ROOT
HETATM    1  C   UNK N   1      32.217  17.052   4.669  0.00  0.00     0.037 A 
HETATM    2  C   UNK N   1      33.447  17.396   5.245  0.00  0.00     0.018 A 
HETATM    3  C   UNK N   1      33.555  17.584   6.623  0.00  0.00     0.001 A 
HETATM    4  C   UNK N   1      32.434  17.431   7.439  0.00  0.00    -0.083 A 
HETATM    5 Hg   UNK N   1      32.647  17.720   9.473  0.00  0.00     0.083 Hg
HETATM    6  C   UNK N   1      31.199  17.087   6.877  0.00  0.00     0.001 A 
HETATM    7  C   UNK N   1      31.090  16.898   5.493  0.00  0.00     0.018 A 
ENDROOT
BRANCH   1   8
HETATM    8  C   UNK N   1      32.121  16.857   3.209  0.00  0.00     0.176 C 
HETATM    9  O   UNK N   1      33.088  16.463   2.577  0.00  0.00    -0.646 OA
BRANCH   8  10
HETATM   10  O   UNK N   1      30.966  17.112   2.562  0.00  0.00    -0.773 OA
HETATM   11  H   UNK N   1      30.391  16.409   2.334  0.00  0.00     0.167 HD
ENDBRANCH   8  10
ENDBRANCH   1   8
TORSDOF 2
ENDMDL
