MODEL 1
REMARK VINA RESULT:      -5.1      0.000      0.000
REMARK  6 active torsions:
REMARK  status: ('A' for Active; 'I' for Inactive)
REMARK    1  A    between atoms: C_5  and  C_3 
REMARK    2  A    between atoms: O_12  and  C_3 
REMARK    3  A    between atoms: O_13  and  C_4 
REMARK    4  A    between atoms: C_6  and  O_14 
REMARK    5  A    between atoms: C_7  and  O_15 
REMARK    6  A    between atoms: C_8  and  N_10 
ROOT
HETATM    1  C   UNK N   1      29.863  17.280   6.523  0.00  0.00     0.125 C 
HETATM    2  C   UNK N   1      28.506  17.789   7.027  0.00  0.00     0.058 C 
HETATM    3  C   UNK N   1      28.454  17.877   8.574  0.00  0.00     0.158 C 
HETATM    4  C   UNK N   1      29.806  18.401   9.063  0.00  0.00     0.189 C 
HETATM    5  C   UNK N   1      30.906  17.352   8.734  0.00  0.00     0.210 C 
HETATM    6  N   UNK N   1      30.586  16.529   7.547  0.00  0.00    -0.399 N 
HETATM    7  H   UNK N   1      30.843  15.546   7.453  0.00  0.00     0.155 HD
ENDROOT
BRANCH   5   8
HETATM    8  N   UNK N   1      32.200  18.025   8.658  0.00  0.00    -0.351 N 
HETATM    9  C   UNK N   1      33.322  17.536   8.224  0.00  0.00     0.108 C 
HETATM   10  C   UNK N   1      34.529  18.404   8.205  0.00  0.00     0.097 C 
ATOM     11  HN  UNK N   1      32.226  18.990   8.984  1.00  0.00     0.163 HD
BRANCH   9  12
HETATM   12  O   UNK N   1      33.427  16.269   7.781  0.00  0.00    -0.350 OA
HETATM   13  H   UNK N   1      33.215  16.038   6.898  0.00  0.00     0.219 HD
ENDBRANCH   9  12
ENDBRANCH   5   8
BRANCH   4  14
HETATM   14  O   UNK N   1      29.785  18.652  10.438  0.00  0.00    -0.389 OA
HETATM   15  H   UNK N   1      30.065  17.967  11.064  0.00  0.00     0.210 HD
ENDBRANCH   4  14
BRANCH   3  16
HETATM   16  O   UNK N   1      27.421  18.734   8.964  0.00  0.00    -0.392 OA
HETATM   17  H   UNK N   1      26.629  19.030   8.490  0.00  0.00     0.210 HD
ENDBRANCH   3  16
BRANCH   2  18
HETATM   18  C   UNK N   1      27.389  16.914   6.468  0.00  0.00     0.173 C 
BRANCH  18  19
HETATM   19  O   UNK N   1      26.671  16.305   7.498  0.00  0.00    -0.400 OA
HETATM   20  H   UNK N   1      25.716  16.402   7.632  0.00  0.00     0.209 HD
ENDBRANCH  18  19
ENDBRANCH   2  18
TORSDOF 6
ENDMDL
MODEL 2
REMARK VINA RESULT:      -5.0      9.534     11.293
REMARK  6 active torsions:
REMARK  status: ('A' for Active; 'I' for Inactive)
REMARK    1  A    between atoms: C_5  and  C_3 
REMARK    2  A    between atoms: O_12  and  C_3 
REMARK    3  A    between atoms: O_13  and  C_4 
REMARK    4  A    between atoms: C_6  and  O_14 
REMARK    5  A    between atoms: C_7  and  O_15 
REMARK    6  A    between atoms: C_8  and  N_10 
ROOT
HETATM    1  C   UNK N   1      20.731  19.710   3.718  0.00  0.00     0.125 C 
HETATM    2  C   UNK N   1      20.102  19.444   2.345  0.00  0.00     0.058 C 
HETATM    3  C   UNK N   1      20.150  17.943   1.961  0.00  0.00     0.158 C 
HETATM    4  C   UNK N   1      19.850  17.125   3.219  0.00  0.00     0.189 C 
HETATM    5  C   UNK N   1      20.997  17.337   4.248  0.00  0.00     0.210 C 
HETATM    6  N   UNK N   1      21.659  18.653   4.114  0.00  0.00    -0.399 N 
HETATM    7  H   UNK N   1      22.655  18.805   4.281  0.00  0.00     0.155 HD
ENDROOT
BRANCH   5   8
HETATM    8  N   UNK N   1      20.491  17.061   5.590  0.00  0.00    -0.351 N 
HETATM    9  C   UNK N   1      20.931  17.538   6.714  0.00  0.00     0.108 C 
HETATM   10  C   UNK N   1      20.251  17.149   7.979  0.00  0.00     0.097 C 
ATOM     11  HN  UNK N   1      19.701  16.420   5.651  1.00  0.00     0.163 HD
BRANCH   9  12
HETATM   12  O   UNK N   1      21.978  18.382   6.774  0.00  0.00    -0.350 OA
HETATM   13  H   UNK N   1      22.324  18.791   6.005  0.00  0.00     0.219 HD
ENDBRANCH   9  12
ENDBRANCH   5   8
BRANCH   4  14
HETATM   14  O   UNK N   1      19.726  15.764   2.920  0.00  0.00    -0.389 OA
HETATM   15  H   UNK N   1      20.156  15.100   3.479  0.00  0.00     0.210 HD
ENDBRANCH   4  14
BRANCH   3  16
HETATM   16  O   UNK N   1      19.207  17.680   0.963  0.00  0.00    -0.392 OA
HETATM   17  H   UNK N   1      18.826  18.255   0.282  0.00  0.00     0.210 HD
ENDBRANCH   3  16
BRANCH   2  18
HETATM   18  C   UNK N   1      20.771  20.323   1.294  0.00  0.00     0.173 C 
BRANCH  18  19
HETATM   19  O   UNK N   1      20.610  19.783   0.017  0.00  0.00    -0.400 OA
HETATM   20  H   UNK N   1      20.239  18.905  -0.163  0.00  0.00     0.209 HD
ENDBRANCH  18  19
ENDBRANCH   2  18
TORSDOF 6
ENDMDL
MODEL 3
REMARK VINA RESULT:      -4.9      4.031      5.660
REMARK  6 active torsions:
REMARK  status: ('A' for Active; 'I' for Inactive)
REMARK    1  A    between atoms: C_5  and  C_3 
REMARK    2  A    between atoms: O_12  and  C_3 
REMARK    3  A    between atoms: O_13  and  C_4 
REMARK    4  A    between atoms: C_6  and  O_14 
REMARK    5  A    between atoms: C_7  and  O_15 
REMARK    6  A    between atoms: C_8  and  N_10 
ROOT
HETATM    1  C   UNK N   1      32.896  14.884   9.115  0.00  0.00     0.125 C 
HETATM    2  C   UNK N   1      33.082  16.249   8.440  0.00  0.00     0.058 C 
HETATM    3  C   UNK N   1      33.956  17.207   9.290  0.00  0.00     0.158 C 
HETATM    4  C   UNK N   1      35.092  16.387   9.906  0.00  0.00     0.189 C 
HETATM    5  C   UNK N   1      34.493  15.359  10.906  0.00  0.00     0.210 C 
HETATM    6  N   UNK N   1      33.115  14.948  10.559  0.00  0.00    -0.399 N 
HETATM    7  H   UNK N   1      32.397  14.732  11.251  0.00  0.00     0.155 HD
ENDROOT
BRANCH   5   8
HETATM    8  N   UNK N   1      35.423  14.243  11.059  0.00  0.00    -0.351 N 
HETATM    9  C   UNK N   1      35.386  13.298  11.948  0.00  0.00     0.108 C 
HETATM   10  C   UNK N   1      36.423  12.231  11.912  0.00  0.00     0.097 C 
ATOM     11  HN  UNK N   1      36.192  14.202  10.390  1.00  0.00     0.163 HD
BRANCH   9  12
HETATM   12  O   UNK N   1      34.434  13.245  12.897  0.00  0.00    -0.350 OA
HETATM   13  H   UNK N   1      33.577  13.596  12.754  0.00  0.00     0.219 HD
ENDBRANCH   9  12
ENDBRANCH   5   8
BRANCH   4  14
HETATM   14  O   UNK N   1      36.011  17.211  10.565  0.00  0.00    -0.389 OA
HETATM   15  H   UNK N   1      36.958  17.007  10.535  0.00  0.00     0.210 HD
ENDBRANCH   4  14
BRANCH   3  16
HETATM   16  O   UNK N   1      34.463  18.228   8.481  0.00  0.00    -0.392 OA
HETATM   17  H   UNK N   1      35.209  18.832   8.616  0.00  0.00     0.210 HD
ENDBRANCH   3  16
BRANCH   2  18
HETATM   18  C   UNK N   1      31.720  16.854   8.118  0.00  0.00     0.173 C 
BRANCH  18  19
HETATM   19  O   UNK N   1      31.428  17.909   8.983  0.00  0.00    -0.400 OA
HETATM   20  H   UNK N   1      31.303  17.815   9.940  0.00  0.00     0.209 HD
ENDBRANCH  18  19
ENDBRANCH   2  18
TORSDOF 6
ENDMDL
MODEL 4
REMARK VINA RESULT:      -4.9      4.705      5.759
REMARK  6 active torsions:
REMARK  status: ('A' for Active; 'I' for Inactive)
REMARK    1  A    between atoms: C_5  and  C_3 
REMARK    2  A    between atoms: O_12  and  C_3 
REMARK    3  A    between atoms: O_13  and  C_4 
REMARK    4  A    between atoms: C_6  and  O_14 
REMARK    5  A    between atoms: C_7  and  O_15 
REMARK    6  A    between atoms: C_8  and  N_10 
ROOT
HETATM    1  C   UNK N   1      33.477  14.856   8.386  0.00  0.00     0.125 C 
HETATM    2  C   UNK N   1      33.920  15.301   9.786  0.00  0.00     0.058 C 
HETATM    3  C   UNK N   1      34.892  16.507   9.734  0.00  0.00     0.158 C 
HETATM    4  C   UNK N   1      34.404  17.460   8.641  0.00  0.00     0.189 C 
HETATM    5  C   UNK N   1      34.529  16.756   7.260  0.00  0.00     0.210 C 
HETATM    6  N   UNK N   1      34.414  15.283   7.349  0.00  0.00    -0.399 N 
HETATM    7  H   UNK N   1      34.931  14.637   6.751  0.00  0.00     0.155 HD
ENDROOT
BRANCH   5   8
HETATM    8  N   UNK N   1      33.590  17.368   6.325  0.00  0.00    -0.351 N 
HETATM    9  C   UNK N   1      33.315  16.986   5.115  0.00  0.00     0.108 C 
HETATM   10  C   UNK N   1      32.298  17.739   4.333  0.00  0.00     0.097 C 
ATOM     11  HN  UNK N   1      33.092  18.192   6.660  1.00  0.00     0.163 HD
BRANCH   9  12
HETATM   12  O   UNK N   1      33.914  15.923   4.547  0.00  0.00    -0.350 OA
HETATM   13  H   UNK N   1      34.334  15.984   3.711  0.00  0.00     0.219 HD
ENDBRANCH   9  12
ENDBRANCH   5   8
BRANCH   4  14
HETATM   14  O   UNK N   1      35.144  18.647   8.637  0.00  0.00    -0.389 OA
HETATM   15  H   UNK N   1      35.865  18.775   9.273  0.00  0.00     0.210 HD
ENDBRANCH   4  14
BRANCH   3  16
HETATM   16  O   UNK N   1      34.915  17.149  10.976  0.00  0.00    -0.392 OA
HETATM   17  H   UNK N   1      35.576  17.136  11.685  0.00  0.00     0.210 HD
ENDBRANCH   3  16
BRANCH   2  18
HETATM   18  C   UNK N   1      34.519  14.117  10.537  0.00  0.00     0.173 C 
BRANCH  18  19
HETATM   19  O   UNK N   1      34.240  14.201  11.901  0.00  0.00    -0.400 OA
HETATM   20  H   UNK N   1      34.488  14.949  12.466  0.00  0.00     0.209 HD
ENDBRANCH  18  19
ENDBRANCH   2  18
TORSDOF 6
ENDMDL
MODEL 5
REMARK VINA RESULT:      -4.8      2.923      3.902
REMARK  6 active torsions:
REMARK  status: ('A' for Active; 'I' for Inactive)
REMARK    1  A    between atoms: C_5  and  C_3 
REMARK    2  A    between atoms: O_12  and  C_3 
REMARK    3  A    between atoms: O_13  and  C_4 
REMARK    4  A    between atoms: C_6  and  O_14 
REMARK    5  A    between atoms: C_7  and  O_15 
REMARK    6  A    between atoms: C_8  and  N_10 
ROOT
HETATM    1  C   UNK N   1      30.806  16.713   7.979  0.00  0.00     0.125 C 
HETATM    2  C   UNK N   1      31.002  16.714   6.457  0.00  0.00     0.058 C 
HETATM    3  C   UNK N   1      32.316  17.420   6.038  0.00  0.00     0.158 C 
HETATM    4  C   UNK N   1      33.401  17.035   7.046  0.00  0.00     0.189 C 
HETATM    5  C   UNK N   1      33.032  17.618   8.439  0.00  0.00     0.210 C 
HETATM    6  N   UNK N   1      31.573  17.770   8.635  0.00  0.00    -0.399 N 
HETATM    7  H   UNK N   1      31.150  18.530   9.170  0.00  0.00     0.155 HD
ENDROOT
BRANCH   5   8
HETATM    8  N   UNK N   1      33.690  16.830   9.477  0.00  0.00    -0.351 N 
HETATM    9  C   UNK N   1      34.846  17.052  10.024  0.00  0.00     0.108 C 
HETATM   10  C   UNK N   1      35.327  16.136  11.094  0.00  0.00     0.097 C 
ATOM     11  HN  UNK N   1      33.184  16.011   9.810  1.00  0.00     0.163 HD
BRANCH   9  12
HETATM   12  O   UNK N   1      35.622  18.091   9.664  0.00  0.00    -0.350 OA
HETATM   13  H   UNK N   1      35.539  18.931  10.070  0.00  0.00     0.219 HD
ENDBRANCH   9  12
ENDBRANCH   5   8
BRANCH   4  14
HETATM   14  O   UNK N   1      34.654  17.512   6.648  0.00  0.00    -0.389 OA
HETATM   15  H   UNK N   1      34.729  18.123   5.899  0.00  0.00     0.210 HD
ENDBRANCH   4  14
BRANCH   3  16
HETATM   16  O   UNK N   1      32.676  17.022   4.747  0.00  0.00    -0.392 OA
HETATM   17  H   UNK N   1      33.250  17.444   4.090  0.00  0.00     0.210 HD
ENDBRANCH   3  16
BRANCH   2  18
HETATM   18  C   UNK N   1      29.782  17.332   5.783  0.00  0.00     0.173 C 
BRANCH  18  19
HETATM   19  O   UNK N   1      30.148  18.012   4.621  0.00  0.00    -0.400 OA
HETATM   20  H   UNK N   1      30.229  18.976   4.552  0.00  0.00     0.209 HD
ENDBRANCH  18  19
ENDBRANCH   2  18
TORSDOF 6
ENDMDL
MODEL 6
REMARK VINA RESULT:      -4.6      1.846      5.061
REMARK  6 active torsions:
REMARK  status: ('A' for Active; 'I' for Inactive)
REMARK    1  A    between atoms: C_5  and  C_3 
REMARK    2  A    between atoms: O_12  and  C_3 
REMARK    3  A    between atoms: O_13  and  C_4 
REMARK    4  A    between atoms: C_6  and  O_14 
REMARK    5  A    between atoms: C_7  and  O_15 
REMARK    6  A    between atoms: C_8  and  N_10 
ROOT
HETATM    1  C   UNK N   1      30.150  16.720   6.685  0.00  0.00     0.125 C 
HETATM    2  C   UNK N   1      30.680  17.034   8.091  0.00  0.00     0.058 C 
HETATM    3  C   UNK N   1      29.747  18.002   8.863  0.00  0.00     0.158 C 
HETATM    4  C   UNK N   1      28.300  17.609   8.555  0.00  0.00     0.189 C 
HETATM    5  C   UNK N   1      28.016  17.860   7.047  0.00  0.00     0.210 C 
HETATM    6  N   UNK N   1      29.226  17.744   6.203  0.00  0.00    -0.399 N 
HETATM    7  H   UNK N   1      29.395  18.315   5.374  0.00  0.00     0.155 HD
ENDROOT
BRANCH   5   8
HETATM    8  N   UNK N   1      26.912  17.005   6.621  0.00  0.00    -0.351 N 
HETATM    9  C   UNK N   1      26.370  16.941   5.443  0.00  0.00     0.108 C 
HETATM   10  C   UNK N   1      25.263  15.975   5.208  0.00  0.00     0.097 C 
ATOM     11  HN  UNK N   1      26.520  16.387   7.330  1.00  0.00     0.163 HD
BRANCH   9  12
HETATM   12  O   UNK N   1      26.783  17.715   4.422  0.00  0.00    -0.350 OA
HETATM   13  H   UNK N   1      26.511  17.551   3.540  0.00  0.00     0.219 HD
ENDBRANCH   9  12
ENDBRANCH   5   8
BRANCH   4  14
HETATM   14  O   UNK N   1      27.400  18.341   9.336  0.00  0.00    -0.389 OA
HETATM   15  H   UNK N   1      27.197  18.058  10.241  0.00  0.00     0.210 HD
ENDBRANCH   4  14
BRANCH   3  16
HETATM   16  O   UNK N   1      30.003  17.911  10.235  0.00  0.00    -0.392 OA
HETATM   17  H   UNK N   1      29.584  18.352  10.989  0.00  0.00     0.210 HD
ENDBRANCH   3  16
BRANCH   2  18
HETATM   18  C   UNK N   1      32.104  17.569   7.996  0.00  0.00     0.173 C 
BRANCH  18  19
HETATM   19  O   UNK N   1      32.806  17.326   9.177  0.00  0.00    -0.400 OA
HETATM   20  H   UNK N   1      32.532  17.640  10.053  0.00  0.00     0.209 HD
ENDBRANCH  18  19
ENDBRANCH   2  18
TORSDOF 6
ENDMDL
MODEL 7
REMARK VINA RESULT:      -4.6      5.565      7.457
REMARK  6 active torsions:
REMARK  status: ('A' for Active; 'I' for Inactive)
REMARK    1  A    between atoms: C_5  and  C_3 
REMARK    2  A    between atoms: O_12  and  C_3 
REMARK    3  A    between atoms: O_13  and  C_4 
REMARK    4  A    between atoms: C_6  and  O_14 
REMARK    5  A    between atoms: C_7  and  O_15 
REMARK    6  A    between atoms: C_8  and  N_10 
ROOT
HETATM    1  C   UNK N   1      35.601  16.636  10.687  0.00  0.00     0.125 C 
HETATM    2  C   UNK N   1      34.432  15.980   9.940  0.00  0.00     0.058 C 
HETATM    3  C   UNK N   1      34.381  14.447  10.167  0.00  0.00     0.158 C 
HETATM    4  C   UNK N   1      34.729  14.175  11.632  0.00  0.00     0.189 C 
HETATM    5  C   UNK N   1      36.204  14.594  11.890  0.00  0.00     0.210 C 
HETATM    6  N   UNK N   1      36.663  15.681  10.999  0.00  0.00    -0.399 N 
HETATM    7  H   UNK N   1      37.616  15.757  10.641  0.00  0.00     0.155 HD
ENDROOT
BRANCH   5   8
HETATM    8  N   UNK N   1      36.377  14.880  13.312  0.00  0.00    -0.351 N 
HETATM    9  C   UNK N   1      36.782  14.067  14.239  0.00  0.00     0.108 C 
HETATM   10  C   UNK N   1      36.917  14.570  15.633  0.00  0.00     0.097 C 
ATOM     11  HN  UNK N   1      36.154  15.829  13.611  1.00  0.00     0.163 HD
BRANCH   9  12
HETATM   12  O   UNK N   1      37.093  12.783  13.980  0.00  0.00    -0.350 OA
HETATM   13  H   UNK N   1      36.889  12.096  14.584  0.00  0.00     0.219 HD
ENDBRANCH   9  12
ENDBRANCH   5   8
BRANCH   4  14
HETATM   14  O   UNK N   1      34.555  12.825  11.951  0.00  0.00    -0.389 OA
HETATM   15  H   UNK N   1      34.250  12.199  11.276  0.00  0.00     0.210 HD
ENDBRANCH   4  14
BRANCH   3  16
HETATM   16  O   UNK N   1      33.104  13.967   9.864  0.00  0.00    -0.392 OA
HETATM   17  H   UNK N   1      32.803  13.357   9.173  0.00  0.00     0.210 HD
ENDBRANCH   3  16
BRANCH   2  18
HETATM   18  C   UNK N   1      34.504  16.335   8.459  0.00  0.00     0.173 C 
BRANCH  18  19
HETATM   19  O   UNK N   1      34.910  15.235   7.703  0.00  0.00    -0.400 OA
HETATM   20  H   UNK N   1      35.828  14.931   7.627  0.00  0.00     0.209 HD
ENDBRANCH  18  19
ENDBRANCH   2  18
TORSDOF 6
ENDMDL
MODEL 8
REMARK VINA RESULT:      -4.6      4.359      7.219
REMARK  6 active torsions:
REMARK  status: ('A' for Active; 'I' for Inactive)
REMARK    1  A    between atoms: C_5  and  C_3 
REMARK    2  A    between atoms: O_12  and  C_3 
REMARK    3  A    between atoms: O_13  and  C_4 
REMARK    4  A    between atoms: C_6  and  O_14 
REMARK    5  A    between atoms: C_7  and  O_15 
REMARK    6  A    between atoms: C_8  and  N_10 
ROOT
HETATM    1  C   UNK N   1      35.029  13.388   9.604  0.00  0.00     0.125 C 
HETATM    2  C   UNK N   1      35.635  13.767  10.962  0.00  0.00     0.058 C 
HETATM    3  C   UNK N   1      36.187  15.215  10.971  0.00  0.00     0.158 C 
HETATM    4  C   UNK N   1      35.213  16.096  10.186  0.00  0.00     0.189 C 
HETATM    5  C   UNK N   1      35.213  15.652   8.696  0.00  0.00     0.210 C 
HETATM    6  N   UNK N   1      35.543  14.220   8.518  0.00  0.00    -0.399 N 
HETATM    7  H   UNK N   1      36.071  13.855   7.725  0.00  0.00     0.155 HD
ENDROOT
BRANCH   5   8
HETATM    8  N   UNK N   1      33.951  16.050   8.078  0.00  0.00    -0.351 N 
HETATM    9  C   UNK N   1      33.697  17.148   7.434  0.00  0.00     0.108 C 
HETATM   10  C   UNK N   1      32.342  17.349   6.854  0.00  0.00     0.097 C 
ATOM     11  HN  UNK N   1      33.179  15.390   8.164  1.00  0.00     0.163 HD
BRANCH   9  12
HETATM   12  O   UNK N   1      34.625  18.109   7.264  0.00  0.00    -0.350 OA
HETATM   13  H   UNK N   1      35.541  17.914   7.266  0.00  0.00     0.219 HD
ENDBRANCH   9  12
ENDBRANCH   5   8
BRANCH   4  14
HETATM   14  O   UNK N   1      35.565  17.447  10.279  0.00  0.00    -0.389 OA
HETATM   15  H   UNK N   1      36.494  17.715  10.209  0.00  0.00     0.210 HD
ENDBRANCH   4  14
BRANCH   3  16
HETATM   16  O   UNK N   1      36.311  15.666  12.289  0.00  0.00    -0.392 OA
HETATM   17  H   UNK N   1      36.910  16.318  12.683  0.00  0.00     0.210 HD
ENDBRANCH   3  16
BRANCH   2  18
HETATM   18  C   UNK N   1      36.700  12.748  11.352  0.00  0.00     0.173 C 
BRANCH  18  19
HETATM   19  O   UNK N   1      37.953  13.353  11.455  0.00  0.00    -0.400 OA
HETATM   20  H   UNK N   1      38.418  13.779  10.718  0.00  0.00     0.209 HD
ENDBRANCH  18  19
ENDBRANCH   2  18
TORSDOF 6
ENDMDL
MODEL 9
REMARK VINA RESULT:      -4.6      7.143      9.202
REMARK  6 active torsions:
REMARK  status: ('A' for Active; 'I' for Inactive)
REMARK    1  A    between atoms: C_5  and  C_3 
REMARK    2  A    between atoms: O_12  and  C_3 
REMARK    3  A    between atoms: O_13  and  C_4 
REMARK    4  A    between atoms: C_6  and  O_14 
REMARK    5  A    between atoms: C_7  and  O_15 
REMARK    6  A    between atoms: C_8  and  N_10 
ROOT
HETATM    1  C   UNK N   1      36.128  14.671  12.899  0.00  0.00     0.125 C 
HETATM    2  C   UNK N   1      35.113  14.885  11.768  0.00  0.00     0.058 C 
HETATM    3  C   UNK N   1      34.958  13.625  10.878  0.00  0.00     0.158 C 
HETATM    4  C   UNK N   1      34.986  12.396  11.790  0.00  0.00     0.189 C 
HETATM    5  C   UNK N   1      36.392  12.282  12.445  0.00  0.00     0.210 C 
HETATM    6  N   UNK N   1      37.065  13.590  12.603  0.00  0.00    -0.399 N 
HETATM    7  H   UNK N   1      38.074  13.723  12.516  0.00  0.00     0.155 HD
ENDROOT
BRANCH   5   8
HETATM    8  N   UNK N   1      36.280  11.519  13.685  0.00  0.00    -0.351 N 
HETATM    9  C   UNK N   1      37.217  11.273  14.549  0.00  0.00     0.108 C 
HETATM   10  C   UNK N   1      36.885  10.493  15.772  0.00  0.00     0.097 C 
ATOM     11  HN  UNK N   1      35.360  11.135  13.897  1.00  0.00     0.163 HD
BRANCH   9  12
HETATM   12  O   UNK N   1      38.479  11.710  14.381  0.00  0.00    -0.350 OA
HETATM   13  H   UNK N   1      39.102  11.693  15.081  0.00  0.00     0.219 HD
ENDBRANCH   9  12
ENDBRANCH   5   8
BRANCH   4  14
HETATM   14  O   UNK N   1      34.699  11.229  11.075  0.00  0.00    -0.389 OA
HETATM   15  H   UNK N   1      35.155  11.044  10.239  0.00  0.00     0.210 HD
ENDBRANCH   4  14
BRANCH   3  16
HETATM   16  O   UNK N   1      33.752  13.690  10.173  0.00  0.00    -0.392 OA
HETATM   17  H   UNK N   1      32.904  14.101  10.402  0.00  0.00     0.210 HD
ENDBRANCH   3  16
BRANCH   2  18
HETATM   18  C   UNK N   1      35.501  16.114  10.955  0.00  0.00     0.173 C 
BRANCH  18  19
HETATM   19  O   UNK N   1      36.887  16.200  10.814  0.00  0.00    -0.400 OA
HETATM   20  H   UNK N   1      37.521  15.628  11.273  0.00  0.00     0.209 HD
ENDBRANCH  18  19
ENDBRANCH   2  18
TORSDOF 6
ENDMDL
