MODEL 1
REMARK VINA RESULT:      -8.4      0.000      0.000
REMARK  8 active torsions:
REMARK  status: ('A' for Active; 'I' for Inactive)
REMARK    1  A    between atoms: C_21  and  C_14 
REMARK    2  A    between atoms: N_31  and  C_14 
REMARK    3  A    between atoms: C_19  and  C_15 
REMARK    4  A    between atoms: C_23  and  C_16 
REMARK    5  A    between atoms: C_20  and  C_17 
REMARK       I    between atoms: N_37  and  C_21 
REMARK    6  A    between atoms: C_24  and  C_23 
REMARK    7  A    between atoms: C_23  and  N_33 
REMARK    8  A    between atoms: O_39  and  C_24 
REMARK       I    between atoms: N_30  and  C_25 
REMARK       I    between atoms: N_33  and  C_25 
ROOT
HETATM    1  C   UNK N   1      34.556  17.800   8.646  0.00  0.00     0.030 C 
HETATM    2  C   UNK N   1      34.555  16.478   6.506  0.00  0.00     0.030 C 
HETATM    3  C   UNK N   1      34.411  16.491   9.434  0.00  0.00     0.126 C 
HETATM    4  C   UNK N   1      34.336  15.197   7.301  0.00  0.00     0.126 C 
HETATM    5  C   UNK N   1      33.934  17.664   7.244  0.00  0.00     0.040 C 
HETATM    6  C   UNK N   1      35.776  14.482   9.127  0.00  0.00     0.237 C 
HETATM    7  N   UNK N   1      34.870  15.369   8.636  0.00  0.00    -0.351 N 
HETATM    8  O   UNK N   1      36.136  13.529   8.453  0.00  0.00    -0.272 OA
ENDROOT
BRANCH   6   9
HETATM    9  C   UNK N   1      36.348  14.651  10.494  0.00  0.00     0.224 C 
BRANCH   9  10
HETATM   10  N   UNK N   1      36.184  13.427  11.236  0.00  0.00    -0.364 N 
HETATM   11  C   UNK N   1      35.138  13.220  11.958  0.00  0.00     0.136 C 
ATOM     12  HN  UNK N   1      36.911  12.712  11.190  1.00  0.00     0.161 HD
BRANCH  11  13
HETATM   13  C   UNK N   1      35.036  11.962  12.785  0.00  0.00     0.177 C 
BRANCH  13  14
HETATM   14  C   UNK N   1      34.522  12.303  14.196  0.00  0.00     0.017 C 
HETATM   15  C   UNK N   1      35.635  12.857  15.110  0.00  0.00     0.007 C 
HETATM   16  C   UNK N   1      35.318  12.615  16.582  0.00  0.00     0.000 C 
HETATM   17  C   UNK N   1      35.223  11.113  16.887  0.00  0.00     0.000 C 
HETATM   18  C   UNK N   1      34.678  10.279  15.718  0.00  0.00     0.000 C 
HETATM   19  C   UNK N   1      33.764  11.116  14.825  0.00  0.00     0.007 C 
ENDBRANCH  13  14
BRANCH  13  20
HETATM   20  N   UNK N   1      34.148  10.995  12.169  0.00  0.00    -0.215 N 
HETATM   21  C   UNK N   1      34.587   9.923  11.347  0.00  0.00     0.665 C 
HETATM   22  N   UNK N   1      33.726   9.113  10.854  0.00  0.00    -0.235 N 
HETATM   23  N   UNK N   1      35.963   9.716  11.100  0.00  0.00    -0.235 N 
HETATM   24  H   UNK N   1      32.757   9.258  10.943  0.00  0.00     0.174 HD
ATOM     25  HN  UNK N   1      34.057   8.289  10.352  1.00  0.00     0.174 HD
HETATM   26  H   UNK N   1      36.299   8.845  10.786  0.00  0.00     0.174 HD
HETATM   27  H   UNK N   1      36.598  10.455  11.244  0.00  0.00     0.174 HD
HETATM   28  H   UNK N   1      33.182  11.088  12.330  0.00  0.00     0.178 HD
ENDBRANCH  13  20
ENDBRANCH  11  13
BRANCH  11  29
HETATM   29  O   UNK N   1      34.158  14.148  12.027  0.00  0.00    -0.348 OA
HETATM   30  H   UNK N   1      33.502  14.785  11.820  0.00  0.00     0.219 HD
ENDBRANCH  11  29
ENDBRANCH   9  10
ENDBRANCH   6   9
BRANCH   5  31
HETATM   31  C   UNK N   1      32.433  17.552   7.291  0.00  0.00     0.032 A 
HETATM   32  C   UNK N   1      31.614  17.200   6.238  0.00  0.00     0.058 A 
HETATM   33  C   UNK N   1      30.351  17.199   6.787  0.00  0.00     0.062 A 
HETATM   34  N   UNK N   1      30.422  17.542   8.088  0.00  0.00    -0.300 N 
HETATM   35  N   UNK N   1      31.696  17.755   8.394  0.00  0.00    -0.304 N 
ATOM     36  HN  UNK N   1      29.632  17.624   8.727  1.00  0.00     0.187 HD
HETATM   37  H   UNK N   1      32.040  18.019   9.278  0.00  0.00     0.186 HD
BRANCH  33  38
HETATM   38  C   UNK N   1      29.128  16.769   6.061  0.00  0.00     0.015 A 
HETATM   39  C   UNK N   1      29.057  15.429   5.645  0.00  0.00     0.015 A 
HETATM   40  C   UNK N   1      27.923  14.932   5.011  0.00  0.00     0.003 A 
HETATM   41  C   UNK N   1      26.831  15.764   4.789  0.00  0.00     0.026 A 
HETATM   42  C   UNK N   1      26.872  17.102   5.184  0.00  0.00     0.056 A 
HETATM   43  C   UNK N   1      28.020  17.623   5.818  0.00  0.00     0.068 A 
HETATM   44 Cl   UNK N   1      25.457  18.100   4.892  0.00  0.00    -0.083 Cl
HETATM   45 Cl   UNK N   1      28.028  19.321   6.303  0.00  0.00    -0.082 Cl
ENDBRANCH  33  38
ENDBRANCH   5  31
TORSDOF 8
ENDMDL
MODEL 2
REMARK VINA RESULT:      -8.3      2.525      3.538
REMARK  8 active torsions:
REMARK  status: ('A' for Active; 'I' for Inactive)
REMARK    1  A    between atoms: C_21  and  C_14 
REMARK    2  A    between atoms: N_31  and  C_14 
REMARK    3  A    between atoms: C_19  and  C_15 
REMARK    4  A    between atoms: C_23  and  C_16 
REMARK    5  A    between atoms: C_20  and  C_17 
REMARK       I    between atoms: N_37  and  C_21 
REMARK    6  A    between atoms: C_24  and  C_23 
REMARK    7  A    between atoms: C_23  and  N_33 
REMARK    8  A    between atoms: O_39  and  C_24 
REMARK       I    between atoms: N_30  and  C_25 
REMARK       I    between atoms: N_33  and  C_25 
ROOT
HETATM    1  C   UNK N   1      32.668  17.476   6.547  0.00  0.00     0.030 C 
HETATM    2  C   UNK N   1      32.972  15.472   5.059  0.00  0.00     0.030 C 
HETATM    3  C   UNK N   1      31.822  16.620   7.499  0.00  0.00     0.126 C 
HETATM    4  C   UNK N   1      32.067  14.658   5.976  0.00  0.00     0.126 C 
HETATM    5  C   UNK N   1      32.572  16.947   5.105  0.00  0.00     0.040 C 
HETATM    6  C   UNK N   1      32.440  14.416   8.367  0.00  0.00     0.237 C 
HETATM    7  N   UNK N   1      32.123  15.212   7.312  0.00  0.00    -0.351 N 
HETATM    8  O   UNK N   1      32.669  13.228   8.199  0.00  0.00    -0.272 OA
ENDROOT
BRANCH   6   9
HETATM    9  C   UNK N   1      32.516  14.972   9.750  0.00  0.00     0.224 C 
BRANCH   9  10
HETATM   10  N   UNK N   1      33.654  14.409  10.430  0.00  0.00    -0.364 N 
HETATM   11  C   UNK N   1      34.641  15.148  10.804  0.00  0.00     0.136 C 
ATOM     12  HN  UNK N   1      33.681  13.406  10.617  1.00  0.00     0.161 HD
BRANCH  11  13
HETATM   13  C   UNK N   1      35.852  14.514  11.442  0.00  0.00     0.177 C 
BRANCH  13  14
HETATM   14  C   UNK N   1      35.489  13.983  12.841  0.00  0.00     0.017 C 
HETATM   15  C   UNK N   1      36.383  14.580  13.948  0.00  0.00     0.007 C 
HETATM   16  C   UNK N   1      36.461  13.657  15.160  0.00  0.00     0.000 C 
HETATM   17  C   UNK N   1      37.089  12.305  14.786  0.00  0.00     0.000 C 
HETATM   18  C   UNK N   1      36.775  11.855  13.351  0.00  0.00     0.000 C 
HETATM   19  C   UNK N   1      35.449  12.440  12.868  0.00  0.00     0.007 C 
ENDBRANCH  13  14
BRANCH  13  20
HETATM   20  N   UNK N   1      36.368  13.428  10.632  0.00  0.00    -0.215 N 
HETATM   21  C   UNK N   1      37.615  13.464   9.954  0.00  0.00     0.665 C 
HETATM   22  N   UNK N   1      37.990  12.449   9.268  0.00  0.00    -0.235 N 
HETATM   23  N   UNK N   1      38.465  14.588  10.059  0.00  0.00    -0.235 N 
HETATM   24  H   UNK N   1      37.403  11.674   9.112  0.00  0.00     0.174 HD
ATOM     25  HN  UNK N   1      38.929  12.444   8.870  1.00  0.00     0.174 HD
HETATM   26  H   UNK N   1      39.424  14.525   9.845  0.00  0.00     0.174 HD
HETATM   27  H   UNK N   1      38.091  15.452  10.350  0.00  0.00     0.174 HD
HETATM   28  H   UNK N   1      35.819  12.615  10.547  0.00  0.00     0.178 HD
ENDBRANCH  13  20
ENDBRANCH  11  13
BRANCH  11  29
HETATM   29  O   UNK N   1      34.624  16.480  10.575  0.00  0.00    -0.348 OA
HETATM   30  H   UNK N   1      34.645  17.413  10.670  0.00  0.00     0.219 HD
ENDBRANCH  11  29
ENDBRANCH   9  10
ENDBRANCH   6   9
BRANCH   5  31
HETATM   31  C   UNK N   1      31.208  17.161   4.505  0.00  0.00     0.032 A 
HETATM   32  C   UNK N   1      30.139  17.777   5.123  0.00  0.00     0.058 A 
HETATM   33  C   UNK N   1      29.150  17.764   4.164  0.00  0.00     0.062 A 
HETATM   34  N   UNK N   1      29.608  17.163   3.050  0.00  0.00    -0.300 N 
HETATM   35  N   UNK N   1      30.866  16.797   3.259  0.00  0.00    -0.304 N 
ATOM     36  HN  UNK N   1      29.078  17.014   2.191  1.00  0.00     0.187 HD
HETATM   37  H   UNK N   1      31.449  16.336   2.612  0.00  0.00     0.186 HD
BRANCH  33  38
HETATM   38  C   UNK N   1      27.827  18.421   4.324  0.00  0.00     0.015 A 
HETATM   39  C   UNK N   1      27.814  19.808   4.545  0.00  0.00     0.015 A 
HETATM   40  C   UNK N   1      26.617  20.510   4.647  0.00  0.00     0.003 A 
HETATM   41  C   UNK N   1      25.406  19.837   4.519  0.00  0.00     0.026 A 
HETATM   42  C   UNK N   1      25.384  18.458   4.306  0.00  0.00     0.056 A 
HETATM   43  C   UNK N   1      26.591  17.732   4.212  0.00  0.00     0.068 A 
HETATM   44 Cl   UNK N   1      23.826  17.667   4.137  0.00  0.00    -0.083 Cl
HETATM   45 Cl   UNK N   1      26.517  15.989   3.939  0.00  0.00    -0.082 Cl
ENDBRANCH  33  38
ENDBRANCH   5  31
TORSDOF 8
ENDMDL
MODEL 3
REMARK VINA RESULT:      -8.2      8.844     13.083
REMARK  8 active torsions:
REMARK  status: ('A' for Active; 'I' for Inactive)
REMARK    1  A    between atoms: C_21  and  C_14 
REMARK    2  A    between atoms: N_31  and  C_14 
REMARK    3  A    between atoms: C_19  and  C_15 
REMARK    4  A    between atoms: C_23  and  C_16 
REMARK    5  A    between atoms: C_20  and  C_17 
REMARK       I    between atoms: N_37  and  C_21 
REMARK    6  A    between atoms: C_24  and  C_23 
REMARK    7  A    between atoms: C_23  and  N_33 
REMARK    8  A    between atoms: O_39  and  C_24 
REMARK       I    between atoms: N_30  and  C_25 
REMARK       I    between atoms: N_33  and  C_25 
ROOT
HETATM    1  C   UNK N   1      21.406  18.586   4.542  0.00  0.00     0.030 C 
HETATM    2  C   UNK N   1      20.749  20.275   2.799  0.00  0.00     0.030 C 
HETATM    3  C   UNK N   1      22.788  18.471   3.887  0.00  0.00     0.126 C 
HETATM    4  C   UNK N   1      22.099  20.092   2.118  0.00  0.00     0.126 C 
HETATM    5  C   UNK N   1      20.340  18.982   3.505  0.00  0.00     0.040 C 
HETATM    6  C   UNK N   1      24.231  20.348   3.262  0.00  0.00     0.237 C 
HETATM    7  N   UNK N   1      23.071  19.658   3.099  0.00  0.00    -0.351 N 
HETATM    8  O   UNK N   1      24.467  21.331   2.576  0.00  0.00    -0.272 OA
ENDROOT
BRANCH   6   9
HETATM    9  C   UNK N   1      25.238  19.924   4.277  0.00  0.00     0.224 C 
BRANCH   9  10
HETATM   10  N   UNK N   1      25.999  18.815   3.762  0.00  0.00    -0.364 N 
HETATM   11  C   UNK N   1      26.466  17.905   4.546  0.00  0.00     0.136 C 
ATOM     12  HN  UNK N   1      26.173  18.749   2.759  1.00  0.00     0.161 HD
BRANCH  11  13
HETATM   13  C   UNK N   1      27.327  16.802   3.983  0.00  0.00     0.177 C 
BRANCH  13  14
HETATM   14  C   UNK N   1      26.657  16.201   2.734  0.00  0.00     0.017 C 
HETATM   15  C   UNK N   1      25.280  15.579   3.045  0.00  0.00     0.007 C 
HETATM   16  C   UNK N   1      24.916  14.497   2.033  0.00  0.00     0.000 C 
HETATM   17  C   UNK N   1      25.927  13.340   2.074  0.00  0.00     0.000 C 
HETATM   18  C   UNK N   1      27.357  13.783   2.418  0.00  0.00     0.000 C 
HETATM   19  C   UNK N   1      27.602  15.230   1.996  0.00  0.00     0.007 C 
ENDBRANCH  13  14
BRANCH  13  20
HETATM   20  N   UNK N   1      28.648  17.287   3.636  0.00  0.00    -0.215 N 
HETATM   21  C   UNK N   1      29.687  17.509   4.578  0.00  0.00     0.665 C 
HETATM   22  N   UNK N   1      30.827  17.932   4.173  0.00  0.00    -0.235 N 
HETATM   23  N   UNK N   1      29.493  17.231   5.950  0.00  0.00    -0.235 N 
HETATM   24  H   UNK N   1      30.986  18.202   3.241  0.00  0.00     0.174 HD
ATOM     25  HN  UNK N   1      31.595  17.990   4.841  1.00  0.00     0.174 HD
HETATM   26  H   UNK N   1      30.257  17.104   6.559  0.00  0.00     0.174 HD
HETATM   27  H   UNK N   1      28.576  17.163   6.306  0.00  0.00     0.174 HD
HETATM   28  H   UNK N   1      28.837  17.475   2.688  0.00  0.00     0.178 HD
ENDBRANCH  13  20
ENDBRANCH  11  13
BRANCH  11  29
HETATM   29  O   UNK N   1      26.240  17.966   5.877  0.00  0.00    -0.348 OA
HETATM   30  H   UNK N   1      26.334  17.958   6.810  0.00  0.00     0.219 HD
ENDBRANCH  11  29
ENDBRANCH   9  10
ENDBRANCH   6   9
BRANCH   5  31
HETATM   31  C   UNK N   1      20.068  17.882   2.513  0.00  0.00     0.032 A 
HETATM   32  C   UNK N   1      20.604  16.611   2.546  0.00  0.00     0.058 A 
HETATM   33  C   UNK N   1      20.026  15.980   1.467  0.00  0.00     0.062 A 
HETATM   34  N   UNK N   1      19.205  16.836   0.828  0.00  0.00    -0.300 N 
HETATM   35  N   UNK N   1      19.230  17.997   1.470  0.00  0.00    -0.304 N 
ATOM     36  HN  UNK N   1      18.657  16.627  -0.006  1.00  0.00     0.187 HD
HETATM   37  H   UNK N   1      18.723  18.804   1.224  0.00  0.00     0.186 HD
BRANCH  33  38
HETATM   38  C   UNK N   1      20.211  14.541   1.147  0.00  0.00     0.015 A 
HETATM   39  C   UNK N   1      21.417  13.938   1.543  0.00  0.00     0.015 A 
HETATM   40  C   UNK N   1      21.645  12.582   1.334  0.00  0.00     0.003 A 
HETATM   41  C   UNK N   1      20.666  11.798   0.734  0.00  0.00     0.026 A 
HETATM   42  C   UNK N   1      19.459  12.367   0.324  0.00  0.00     0.056 A 
HETATM   43  C   UNK N   1      19.219  13.744   0.518  0.00  0.00     0.068 A 
HETATM   44 Cl   UNK N   1      18.255  11.324  -0.414  0.00  0.00    -0.083 Cl
HETATM   45 Cl   UNK N   1      17.678  14.423  -0.014  0.00  0.00    -0.082 Cl
ENDBRANCH  33  38
ENDBRANCH   5  31
TORSDOF 8
ENDMDL
MODEL 4
REMARK VINA RESULT:      -8.2      4.678     10.405
REMARK  8 active torsions:
REMARK  status: ('A' for Active; 'I' for Inactive)
REMARK    1  A    between atoms: C_21  and  C_14 
REMARK    2  A    between atoms: N_31  and  C_14 
REMARK    3  A    between atoms: C_19  and  C_15 
REMARK    4  A    between atoms: C_23  and  C_16 
REMARK    5  A    between atoms: C_20  and  C_17 
REMARK       I    between atoms: N_37  and  C_21 
REMARK    6  A    between atoms: C_24  and  C_23 
REMARK    7  A    between atoms: C_23  and  N_33 
REMARK    8  A    between atoms: O_39  and  C_24 
REMARK       I    between atoms: N_30  and  C_25 
REMARK       I    between atoms: N_33  and  C_25 
ROOT
HETATM    1  C   UNK N   1      34.967  12.843  10.344  0.00  0.00     0.030 C 
HETATM    2  C   UNK N   1      36.944  13.850  11.529  0.00  0.00     0.030 C 
HETATM    3  C   UNK N   1      34.169  14.124  10.622  0.00  0.00     0.126 C 
HETATM    4  C   UNK N   1      36.112  15.083  11.861  0.00  0.00     0.126 C 
HETATM    5  C   UNK N   1      36.039  12.622  11.426  0.00  0.00     0.040 C 
HETATM    6  C   UNK N   1      34.940  16.407  10.191  0.00  0.00     0.237 C 
HETATM    7  N   UNK N   1      35.071  15.235  10.868  0.00  0.00    -0.351 N 
HETATM    8  O   UNK N   1      35.691  17.343  10.424  0.00  0.00    -0.272 OA
ENDROOT
BRANCH   6   9
HETATM    9  C   UNK N   1      33.882  16.579   9.154  0.00  0.00     0.224 C 
BRANCH   9  10
HETATM   10  N   UNK N   1      34.403  16.184   7.870  0.00  0.00    -0.364 N 
HETATM   11  C   UNK N   1      33.739  15.400   7.093  0.00  0.00     0.136 C 
ATOM     12  HN  UNK N   1      35.315  16.532   7.571  1.00  0.00     0.161 HD
BRANCH  11  13
HETATM   13  C   UNK N   1      34.349  14.943   5.791  0.00  0.00     0.177 C 
BRANCH  13  14
HETATM   14  C   UNK N   1      33.821  15.809   4.633  0.00  0.00     0.017 C 
HETATM   15  C   UNK N   1      33.281  17.173   5.116  0.00  0.00     0.007 C 
HETATM   16  C   UNK N   1      32.247  17.737   4.147  0.00  0.00     0.000 C 
HETATM   17  C   UNK N   1      31.027  16.808   4.037  0.00  0.00     0.000 C 
HETATM   18  C   UNK N   1      31.370  15.319   4.196  0.00  0.00     0.000 C 
HETATM   19  C   UNK N   1      32.807  15.036   3.764  0.00  0.00     0.007 C 
ENDBRANCH  13  14
BRANCH  13  20
HETATM   20  N   UNK N   1      35.797  15.021   5.830  0.00  0.00    -0.215 N 
HETATM   21  C   UNK N   1      36.643  13.930   6.162  0.00  0.00     0.665 C 
HETATM   22  N   UNK N   1      37.914  14.095   6.160  0.00  0.00    -0.235 N 
HETATM   23  N   UNK N   1      36.104  12.657   6.455  0.00  0.00    -0.235 N 
HETATM   24  H   UNK N   1      38.330  14.977   6.030  0.00  0.00     0.174 HD
ATOM     25  HN  UNK N   1      38.515  13.282   6.299  1.00  0.00     0.174 HD
HETATM   26  H   UNK N   1      36.658  11.844   6.405  0.00  0.00     0.174 HD
HETATM   27  H   UNK N   1      35.157  12.580   6.714  0.00  0.00     0.174 HD
HETATM   28  H   UNK N   1      36.219  15.883   5.613  0.00  0.00     0.178 HD
ENDBRANCH  13  20
ENDBRANCH  11  13
BRANCH  11  29
HETATM   29  O   UNK N   1      32.526  14.934   7.464  0.00  0.00    -0.348 OA
HETATM   30  H   UNK N   1      31.670  14.840   7.836  0.00  0.00     0.219 HD
ENDBRANCH  11  29
ENDBRANCH   9  10
ENDBRANCH   6   9
BRANCH   5  31
HETATM   31  C   UNK N   1      35.441  12.272  12.763  0.00  0.00     0.032 A 
HETATM   32  C   UNK N   1      36.012  12.517  13.995  0.00  0.00     0.058 A 
HETATM   33  C   UNK N   1      35.073  12.057  14.892  0.00  0.00     0.062 A 
HETATM   34  N   UNK N   1      34.015  11.560  14.224  0.00  0.00    -0.300 N 
HETATM   35  N   UNK N   1      34.240  11.693  12.923  0.00  0.00    -0.304 N 
ATOM     36  HN  UNK N   1      33.182  11.150  14.647  1.00  0.00     0.187 HD
HETATM   37  H   UNK N   1      33.632  11.415  12.200  0.00  0.00     0.186 HD
BRANCH  33  38
HETATM   38  C   UNK N   1      35.188  12.205  16.365  0.00  0.00     0.015 A 
HETATM   39  C   UNK N   1      35.174  13.508  16.890  0.00  0.00     0.015 A 
HETATM   40  C   UNK N   1      35.218  13.733  18.263  0.00  0.00     0.003 A 
HETATM   41  C   UNK N   1      35.267  12.654  19.140  0.00  0.00     0.026 A 
HETATM   42  C   UNK N   1      35.289  11.347  18.651  0.00  0.00     0.056 A 
HETATM   43  C   UNK N   1      35.256  11.106  17.261  0.00  0.00     0.068 A 
HETATM   44 Cl   UNK N   1      35.334  10.027  19.808  0.00  0.00    -0.083 Cl
HETATM   45 Cl   UNK N   1      35.283   9.436  16.686  0.00  0.00    -0.082 Cl
ENDBRANCH  33  38
ENDBRANCH   5  31
TORSDOF 8
ENDMDL
MODEL 5
REMARK VINA RESULT:      -8.1      4.494     10.797
REMARK  8 active torsions:
REMARK  status: ('A' for Active; 'I' for Inactive)
REMARK    1  A    between atoms: C_21  and  C_14 
REMARK    2  A    between atoms: N_31  and  C_14 
REMARK    3  A    between atoms: C_19  and  C_15 
REMARK    4  A    between atoms: C_23  and  C_16 
REMARK    5  A    between atoms: C_20  and  C_17 
REMARK       I    between atoms: N_37  and  C_21 
REMARK    6  A    between atoms: C_24  and  C_23 
REMARK    7  A    between atoms: C_23  and  N_33 
REMARK    8  A    between atoms: O_39  and  C_24 
REMARK       I    between atoms: N_30  and  C_25 
REMARK       I    between atoms: N_33  and  C_25 
ROOT
HETATM    1  C   UNK N   1      33.167  13.977   8.693  0.00  0.00     0.030 C 
HETATM    2  C   UNK N   1      34.775  15.517   7.526  0.00  0.00     0.030 C 
HETATM    3  C   UNK N   1      32.655  15.164   9.520  0.00  0.00     0.126 C 
HETATM    4  C   UNK N   1      34.308  16.668   8.409  0.00  0.00     0.126 C 
HETATM    5  C   UNK N   1      34.633  14.192   8.276  0.00  0.00     0.040 C 
HETATM    6  C   UNK N   1      31.980  17.340   8.626  0.00  0.00     0.237 C 
HETATM    7  N   UNK N   1      32.951  16.413   8.843  0.00  0.00    -0.351 N 
HETATM    8  O   UNK N   1      32.247  18.398   8.075  0.00  0.00    -0.272 OA
ENDROOT
BRANCH   6   9
HETATM    9  C   UNK N   1      30.573  17.090   9.052  0.00  0.00     0.224 C 
BRANCH   9  10
HETATM   10  N   UNK N   1      29.704  17.171   7.907  0.00  0.00    -0.364 N 
HETATM   11  C   UNK N   1      28.513  17.651   8.006  0.00  0.00     0.136 C 
ATOM     12  HN  UNK N   1      30.037  16.841   7.000  1.00  0.00     0.161 HD
BRANCH  11  13
HETATM   13  C   UNK N   1      27.601  17.647   6.804  0.00  0.00     0.177 C 
BRANCH  13  14
HETATM   14  C   UNK N   1      27.973  18.806   5.861  0.00  0.00     0.017 C 
HETATM   15  C   UNK N   1      27.238  20.115   6.219  0.00  0.00     0.007 C 
HETATM   16  C   UNK N   1      27.110  21.030   5.005  0.00  0.00     0.000 C 
HETATM   17  C   UNK N   1      26.282  20.364   3.895  0.00  0.00     0.000 C 
HETATM   18  C   UNK N   1      26.444  18.838   3.837  0.00  0.00     0.000 C 
HETATM   19  C   UNK N   1      27.805  18.408   4.380  0.00  0.00     0.007 C 
ENDBRANCH  13  14
BRANCH  13  20
HETATM   20  N   UNK N   1      27.684  16.392   6.082  0.00  0.00    -0.215 N 
HETATM   21  C   UNK N   1      26.741  15.338   6.207  0.00  0.00     0.665 C 
HETATM   22  N   UNK N   1      26.895  14.268   5.519  0.00  0.00    -0.235 N 
HETATM   23  N   UNK N   1      25.614  15.470   7.050  0.00  0.00    -0.235 N 
HETATM   24  H   UNK N   1      27.697  14.105   4.974  0.00  0.00     0.174 HD
ATOM     25  HN  UNK N   1      26.160  13.561   5.538  1.00  0.00     0.174 HD
HETATM   26  H   UNK N   1      24.822  14.895   6.937  0.00  0.00     0.174 HD
HETATM   27  H   UNK N   1      25.620  16.150   7.763  0.00  0.00     0.174 HD
HETATM   28  H   UNK N   1      28.442  16.263   5.467  0.00  0.00     0.178 HD
ENDBRANCH  13  20
ENDBRANCH  11  13
BRANCH  11  29
HETATM   29  O   UNK N   1      28.053  18.102   9.194  0.00  0.00    -0.348 OA
HETATM   30  H   UNK N   1      27.508  18.390   9.901  0.00  0.00     0.219 HD
ENDBRANCH  11  29
ENDBRANCH   9  10
ENDBRANCH   6   9
BRANCH   5  31
HETATM   31  C   UNK N   1      35.578  14.123   9.445  0.00  0.00     0.032 A 
HETATM   32  C   UNK N   1      35.274  13.654  10.706  0.00  0.00     0.058 A 
HETATM   33  C   UNK N   1      36.463  13.756  11.394  0.00  0.00     0.062 A 
HETATM   34  N   UNK N   1      37.411  14.267  10.585  0.00  0.00    -0.300 N 
HETATM   35  N   UNK N   1      36.869  14.489   9.394  0.00  0.00    -0.304 N 
ATOM     36  HN  UNK N   1      38.379  14.452  10.844  1.00  0.00     0.187 HD
HETATM   37  H   UNK N   1      37.333  14.859   8.609  0.00  0.00     0.186 HD
BRANCH  33  38
HETATM   38  C   UNK N   1      36.668  13.263  12.780  0.00  0.00     0.015 A 
HETATM   39  C   UNK N   1      36.292  14.113  13.833  0.00  0.00     0.015 A 
HETATM   40  C   UNK N   1      36.396  13.705  15.160  0.00  0.00     0.003 A 
HETATM   41  C   UNK N   1      36.869  12.432  15.459  0.00  0.00     0.026 A 
HETATM   42  C   UNK N   1      37.257  11.565  14.436  0.00  0.00     0.056 A 
HETATM   43  C   UNK N   1      37.168  11.970  13.087  0.00  0.00     0.068 A 
HETATM   44 Cl   UNK N   1      37.831   9.964  14.874  0.00  0.00    -0.083 Cl
HETATM   45 Cl   UNK N   1      37.666  10.840  11.824  0.00  0.00    -0.082 Cl
ENDBRANCH  33  38
ENDBRANCH   5  31
TORSDOF 8
ENDMDL
MODEL 6
REMARK VINA RESULT:      -8.1      4.677     10.791
REMARK  8 active torsions:
REMARK  status: ('A' for Active; 'I' for Inactive)
REMARK    1  A    between atoms: C_21  and  C_14 
REMARK    2  A    between atoms: N_31  and  C_14 
REMARK    3  A    between atoms: C_19  and  C_15 
REMARK    4  A    between atoms: C_23  and  C_16 
REMARK    5  A    between atoms: C_20  and  C_17 
REMARK       I    between atoms: N_37  and  C_21 
REMARK    6  A    between atoms: C_24  and  C_23 
REMARK    7  A    between atoms: C_23  and  N_33 
REMARK    8  A    between atoms: O_39  and  C_24 
REMARK       I    between atoms: N_30  and  C_25 
REMARK       I    between atoms: N_33  and  C_25 
ROOT
HETATM    1  C   UNK N   1      34.604  13.633  10.440  0.00  0.00     0.030 C 
HETATM    2  C   UNK N   1      36.784  14.865  10.212  0.00  0.00     0.030 C 
HETATM    3  C   UNK N   1      33.892  14.971  10.679  0.00  0.00     0.126 C 
HETATM    4  C   UNK N   1      36.073  16.175  10.525  0.00  0.00     0.126 C 
HETATM    5  C   UNK N   1      36.070  13.703  10.903  0.00  0.00     0.040 C 
HETATM    6  C   UNK N   1      34.131  16.980   9.302  0.00  0.00     0.237 C 
HETATM    7  N   UNK N   1      34.682  16.064  10.141  0.00  0.00    -0.351 N 
HETATM    8  O   UNK N   1      34.800  17.909   8.874  0.00  0.00    -0.272 OA
ENDROOT
BRANCH   6   9
HETATM    9  C   UNK N   1      32.703  16.874   8.883  0.00  0.00     0.224 C 
BRANCH   9  10
HETATM   10  N   UNK N   1      32.574  17.294   7.511  0.00  0.00    -0.364 N 
HETATM   11  C   UNK N   1      31.653  16.812   6.750  0.00  0.00     0.136 C 
ATOM     12  HN  UNK N   1      33.224  17.985   7.135  1.00  0.00     0.161 HD
BRANCH  11  13
HETATM   13  C   UNK N   1      31.596  17.214   5.297  0.00  0.00     0.177 C 
BRANCH  13  14
HETATM   14  C   UNK N   1      32.897  16.797   4.587  0.00  0.00     0.017 C 
HETATM   15  C   UNK N   1      32.724  16.684   3.058  0.00  0.00     0.007 C 
HETATM   16  C   UNK N   1      33.744  15.726   2.451  0.00  0.00     0.000 C 
HETATM   17  C   UNK N   1      33.566  14.304   3.007  0.00  0.00     0.000 C 
HETATM   18  C   UNK N   1      33.077  14.268   4.463  0.00  0.00     0.000 C 
HETATM   19  C   UNK N   1      33.504  15.525   5.218  0.00  0.00     0.007 C 
ENDBRANCH  13  14
BRANCH  13  20
HETATM   20  N   UNK N   1      30.464  16.607   4.625  0.00  0.00    -0.215 N 
HETATM   21  C   UNK N   1      29.283  17.309   4.264  0.00  0.00     0.665 C 
HETATM   22  N   UNK N   1      28.338  16.688   3.663  0.00  0.00    -0.235 N 
HETATM   23  N   UNK N   1      29.155  18.693   4.524  0.00  0.00    -0.235 N 
HETATM   24  H   UNK N   1      28.355  15.714   3.524  0.00  0.00     0.174 HD
ATOM     25  HN  UNK N   1      27.540  17.221   3.318  1.00  0.00     0.174 HD
HETATM   26  H   UNK N   1      28.495  19.243   4.042  0.00  0.00     0.174 HD
HETATM   27  H   UNK N   1      29.736  19.115   5.198  0.00  0.00     0.174 HD
HETATM   28  H   UNK N   1      30.517  15.649   4.405  0.00  0.00     0.178 HD
ENDBRANCH  13  20
ENDBRANCH  11  13
BRANCH  11  29
HETATM   29  O   UNK N   1      30.775  15.903   7.229  0.00  0.00    -0.348 OA
HETATM   30  H   UNK N   1      30.043  15.484   7.638  0.00  0.00     0.219 HD
ENDBRANCH  11  29
ENDBRANCH   9  10
ENDBRANCH   6   9
BRANCH   5  31
HETATM   31  C   UNK N   1      36.195  13.802  12.400  0.00  0.00     0.032 A 
HETATM   32  C   UNK N   1      35.755  12.865  13.313  0.00  0.00     0.058 A 
HETATM   33  C   UNK N   1      36.132  13.386  14.531  0.00  0.00     0.062 A 
HETATM   34  N   UNK N   1      36.749  14.569  14.345  0.00  0.00    -0.300 N 
HETATM   35  N   UNK N   1      36.788  14.821  13.043  0.00  0.00    -0.304 N 
ATOM     36  HN  UNK N   1      37.121  15.169  15.081  1.00  0.00     0.187 HD
HETATM   37  H   UNK N   1      37.183  15.618  12.620  0.00  0.00     0.186 HD
BRANCH  33  38
HETATM   38  C   UNK N   1      35.971  12.676  15.826  0.00  0.00     0.015 A 
HETATM   39  C   UNK N   1      35.292  13.349  16.855  0.00  0.00     0.015 A 
HETATM   40  C   UNK N   1      35.047  12.733  18.079  0.00  0.00     0.003 A 
HETATM   41  C   UNK N   1      35.470  11.425  18.293  0.00  0.00     0.026 A 
HETATM   42  C   UNK N   1      36.153  10.731  17.293  0.00  0.00     0.056 A 
HETATM   43  C   UNK N   1      36.418  11.348  16.052  0.00  0.00     0.068 A 
HETATM   44 Cl   UNK N   1      36.647   9.078  17.617  0.00  0.00    -0.083 Cl
HETATM   45 Cl   UNK N   1      37.284  10.432  14.814  0.00  0.00    -0.082 Cl
ENDBRANCH  33  38
ENDBRANCH   5  31
TORSDOF 8
ENDMDL
MODEL 7
REMARK VINA RESULT:      -8.0      2.026      2.393
REMARK  8 active torsions:
REMARK  status: ('A' for Active; 'I' for Inactive)
REMARK    1  A    between atoms: C_21  and  C_14 
REMARK    2  A    between atoms: N_31  and  C_14 
REMARK    3  A    between atoms: C_19  and  C_15 
REMARK    4  A    between atoms: C_23  and  C_16 
REMARK    5  A    between atoms: C_20  and  C_17 
REMARK       I    between atoms: N_37  and  C_21 
REMARK    6  A    between atoms: C_24  and  C_23 
REMARK    7  A    between atoms: C_23  and  N_33 
REMARK    8  A    between atoms: O_39  and  C_24 
REMARK       I    between atoms: N_30  and  C_25 
REMARK       I    between atoms: N_33  and  C_25 
ROOT
HETATM    1  C   UNK N   1      33.575  17.656   7.898  0.00  0.00     0.030 C 
HETATM    2  C   UNK N   1      34.661  16.038   6.307  0.00  0.00     0.030 C 
HETATM    3  C   UNK N   1      33.011  16.470   8.692  0.00  0.00     0.126 C 
HETATM    4  C   UNK N   1      34.031  14.876   7.065  0.00  0.00     0.126 C 
HETATM    5  C   UNK N   1      33.773  17.278   6.418  0.00  0.00     0.040 C 
HETATM    6  C   UNK N   1      34.290  14.529   9.458  0.00  0.00     0.237 C 
HETATM    7  N   UNK N   1      33.794  15.275   8.436  0.00  0.00    -0.351 N 
HETATM    8  O   UNK N   1      34.928  13.512   9.229  0.00  0.00    -0.272 OA
ENDROOT
BRANCH   6   9
HETATM    9  C   UNK N   1      34.069  14.931  10.877  0.00  0.00     0.224 C 
BRANCH   9  10
HETATM   10  N   UNK N   1      34.642  13.939  11.751  0.00  0.00    -0.364 N 
HETATM   11  C   UNK N   1      35.714  14.182  12.423  0.00  0.00     0.136 C 
ATOM     12  HN  UNK N   1      34.191  13.028  11.838  1.00  0.00     0.161 HD
BRANCH  11  13
HETATM   13  C   UNK N   1      36.331  13.094  13.266  0.00  0.00     0.177 C 
BRANCH  13  14
HETATM   14  C   UNK N   1      35.338  12.650  14.357  0.00  0.00     0.017 C 
HETATM   15  C   UNK N   1      35.527  13.428  15.676  0.00  0.00     0.007 C 
HETATM   16  C   UNK N   1      35.026  12.625  16.873  0.00  0.00     0.000 C 
HETATM   17  C   UNK N   1      35.817  11.317  17.031  0.00  0.00     0.000 C 
HETATM   18  C   UNK N   1      36.288  10.716  15.697  0.00  0.00     0.000 C 
HETATM   19  C   UNK N   1      35.360  11.120  14.554  0.00  0.00     0.007 C 
ENDBRANCH  13  14
BRANCH  13  20
HETATM   20  N   UNK N   1      36.705  11.948  12.460  0.00  0.00    -0.215 N 
HETATM   21  C   UNK N   1      37.689  11.983  11.437  0.00  0.00     0.665 C 
HETATM   22  N   UNK N   1      37.958  10.914  10.784  0.00  0.00    -0.235 N 
HETATM   23  N   UNK N   1      38.405  13.169  11.160  0.00  0.00    -0.235 N 
HETATM   24  H   UNK N   1      37.440  10.085  10.895  0.00  0.00     0.174 HD
ATOM     25  HN  UNK N   1      38.736  10.923  10.124  1.00  0.00     0.174 HD
HETATM   26  H   UNK N   1      39.262  13.147  10.675  0.00  0.00     0.174 HD
HETATM   27  H   UNK N   1      38.040  14.035  11.457  0.00  0.00     0.174 HD
HETATM   28  H   UNK N   1      36.247  11.094  12.632  0.00  0.00     0.178 HD
ENDBRANCH  13  20
ENDBRANCH  11  13
BRANCH  11  29
HETATM   29  O   UNK N   1      36.323  15.385  12.331  0.00  0.00    -0.348 OA
HETATM   30  H   UNK N   1      36.724  16.210  12.522  0.00  0.00     0.219 HD
ENDBRANCH  11  29
ENDBRANCH   9  10
ENDBRANCH   6   9
BRANCH   5  31
HETATM   31  C   UNK N   1      32.467  17.078   5.698  0.00  0.00     0.032 A 
HETATM   32  C   UNK N   1      31.230  17.517   6.125  0.00  0.00     0.058 A 
HETATM   33  C   UNK N   1      30.375  17.132   5.117  0.00  0.00     0.062 A 
HETATM   34  N   UNK N   1      31.068  16.491   4.156  0.00  0.00    -0.300 N 
HETATM   35  N   UNK N   1      32.346  16.461   4.511  0.00  0.00    -0.304 N 
ATOM     36  HN  UNK N   1      30.677  16.097   3.301  1.00  0.00     0.187 HD
HETATM   37  H   UNK N   1      33.080  16.055   3.995  0.00  0.00     0.186 HD
BRANCH  33  38
HETATM   38  C   UNK N   1      28.932  17.482   5.070  0.00  0.00     0.015 A 
HETATM   39  C   UNK N   1      28.598  18.830   4.856  0.00  0.00     0.015 A 
HETATM   40  C   UNK N   1      27.272  19.234   4.740  0.00  0.00     0.003 A 
HETATM   41  C   UNK N   1      26.251  18.293   4.825  0.00  0.00     0.026 A 
HETATM   42  C   UNK N   1      26.548  16.947   5.044  0.00  0.00     0.056 A 
HETATM   43  C   UNK N   1      27.889  16.525   5.175  0.00  0.00     0.068 A 
HETATM   44 Cl   UNK N   1      25.218  15.803   5.127  0.00  0.00    -0.083 Cl
HETATM   45 Cl   UNK N   1      28.220  14.812   5.449  0.00  0.00    -0.082 Cl
ENDBRANCH  33  38
ENDBRANCH   5  31
TORSDOF 8
ENDMDL
MODEL 8
REMARK VINA RESULT:      -7.9      4.924     10.355
REMARK  8 active torsions:
REMARK  status: ('A' for Active; 'I' for Inactive)
REMARK    1  A    between atoms: C_21  and  C_14 
REMARK    2  A    between atoms: N_31  and  C_14 
REMARK    3  A    between atoms: C_19  and  C_15 
REMARK    4  A    between atoms: C_23  and  C_16 
REMARK    5  A    between atoms: C_20  and  C_17 
REMARK       I    between atoms: N_37  and  C_21 
REMARK    6  A    between atoms: C_24  and  C_23 
REMARK    7  A    between atoms: C_23  and  N_33 
REMARK    8  A    between atoms: O_39  and  C_24 
REMARK       I    between atoms: N_30  and  C_25 
REMARK       I    between atoms: N_33  and  C_25 
ROOT
HETATM    1  C   UNK N   1      34.592  13.673  10.560  0.00  0.00     0.030 C 
HETATM    2  C   UNK N   1      36.877  14.698  10.335  0.00  0.00     0.030 C 
HETATM    3  C   UNK N   1      34.005  15.073  10.787  0.00  0.00     0.126 C 
HETATM    4  C   UNK N   1      36.288  16.070  10.636  0.00  0.00     0.126 C 
HETATM    5  C   UNK N   1      36.056  13.612  11.031  0.00  0.00     0.040 C 
HETATM    6  C   UNK N   1      34.433  17.042   9.398  0.00  0.00     0.237 C 
HETATM    7  N   UNK N   1      34.894  16.085  10.246  0.00  0.00    -0.351 N 
HETATM    8  O   UNK N   1      35.188  17.902   8.968  0.00  0.00    -0.272 OA
ENDROOT
BRANCH   6   9
HETATM    9  C   UNK N   1      33.004  17.065   8.973  0.00  0.00     0.224 C 
BRANCH   9  10
HETATM   10  N   UNK N   1      32.829  16.199   7.835  0.00  0.00    -0.364 N 
HETATM   11  C   UNK N   1      33.123  16.593   6.645  0.00  0.00     0.136 C 
ATOM     12  HN  UNK N   1      32.463  15.256   7.975  1.00  0.00     0.161 HD
BRANCH  11  13
HETATM   13  C   UNK N   1      32.851  15.689   5.468  0.00  0.00     0.177 C 
BRANCH  13  14
HETATM   14  C   UNK N   1      32.393  14.306   5.965  0.00  0.00     0.017 C 
HETATM   15  C   UNK N   1      33.560  13.303   6.077  0.00  0.00     0.007 C 
HETATM   16  C   UNK N   1      33.071  11.864   5.959  0.00  0.00     0.000 C 
HETATM   17  C   UNK N   1      32.420  11.611   4.590  0.00  0.00     0.000 C 
HETATM   18  C   UNK N   1      31.699  12.839   4.014  0.00  0.00     0.000 C 
HETATM   19  C   UNK N   1      31.215  13.765   5.127  0.00  0.00     0.007 C 
ENDBRANCH  13  14
BRANCH  13  20
HETATM   20  N   UNK N   1      31.838  16.249   4.595  0.00  0.00    -0.215 N 
HETATM   21  C   UNK N   1      32.041  16.529   3.217  0.00  0.00     0.665 C 
HETATM   22  N   UNK N   1      31.080  17.015   2.524  0.00  0.00    -0.235 N 
HETATM   23  N   UNK N   1      33.276  16.240   2.594  0.00  0.00    -0.235 N 
HETATM   24  H   UNK N   1      30.228  17.294   2.929  0.00  0.00     0.174 HD
ATOM     25  HN  UNK N   1      31.203  17.116   1.516  1.00  0.00     0.174 HD
HETATM   26  H   UNK N   1      33.347  16.157   1.615  0.00  0.00     0.174 HD
HETATM   27  H   UNK N   1      34.082  16.121   3.148  0.00  0.00     0.174 HD
HETATM   28  H   UNK N   1      30.954  16.446   4.980  0.00  0.00     0.178 HD
ENDBRANCH  13  20
ENDBRANCH  11  13
BRANCH  11  29
HETATM   29  O   UNK N   1      33.617  17.834   6.437  0.00  0.00    -0.348 OA
HETATM   30  H   UNK N   1      33.972  18.695   6.548  0.00  0.00     0.219 HD
ENDBRANCH  11  29
ENDBRANCH   9  10
ENDBRANCH   6   9
BRANCH   5  31
HETATM   31  C   UNK N   1      36.182  13.708  12.528  0.00  0.00     0.032 A 
HETATM   32  C   UNK N   1      35.729  12.778  13.441  0.00  0.00     0.058 A 
HETATM   33  C   UNK N   1      36.114  13.294  14.658  0.00  0.00     0.062 A 
HETATM   34  N   UNK N   1      36.748  14.468  14.472  0.00  0.00    -0.300 N 
HETATM   35  N   UNK N   1      36.791  14.719  13.170  0.00  0.00    -0.304 N 
ATOM     36  HN  UNK N   1      37.130  15.063  15.207  1.00  0.00     0.187 HD
HETATM   37  H   UNK N   1      37.197  15.510  12.747  0.00  0.00     0.186 HD
BRANCH  33  38
HETATM   38  C   UNK N   1      35.943  12.587  15.953  0.00  0.00     0.015 A 
HETATM   39  C   UNK N   1      35.287  13.275  16.987  0.00  0.00     0.015 A 
HETATM   40  C   UNK N   1      35.035  12.664  18.212  0.00  0.00     0.003 A 
HETATM   41  C   UNK N   1      35.425  11.346  18.423  0.00  0.00     0.026 A 
HETATM   42  C   UNK N   1      36.085  10.636  17.418  0.00  0.00     0.056 A 
HETATM   43  C   UNK N   1      36.358  11.247  16.175  0.00  0.00     0.068 A 
HETATM   44 Cl   UNK N   1      36.538   8.970  17.737  0.00  0.00    -0.083 Cl
HETATM   45 Cl   UNK N   1      37.192  10.312  14.931  0.00  0.00    -0.082 Cl
ENDBRANCH  33  38
ENDBRANCH   5  31
TORSDOF 8
ENDMDL
MODEL 9
REMARK VINA RESULT:      -7.8      2.382      4.388
REMARK  8 active torsions:
REMARK  status: ('A' for Active; 'I' for Inactive)
REMARK    1  A    between atoms: C_21  and  C_14 
REMARK    2  A    between atoms: N_31  and  C_14 
REMARK    3  A    between atoms: C_19  and  C_15 
REMARK    4  A    between atoms: C_23  and  C_16 
REMARK    5  A    between atoms: C_20  and  C_17 
REMARK       I    between atoms: N_37  and  C_21 
REMARK    6  A    between atoms: C_24  and  C_23 
REMARK    7  A    between atoms: C_23  and  N_33 
REMARK    8  A    between atoms: O_39  and  C_24 
REMARK       I    between atoms: N_30  and  C_25 
REMARK       I    between atoms: N_33  and  C_25 
ROOT
HETATM    1  C   UNK N   1      35.739  14.640  11.826  0.00  0.00     0.030 C 
HETATM    2  C   UNK N   1      36.755  14.012   9.613  0.00  0.00     0.030 C 
HETATM    3  C   UNK N   1      34.601  13.643  11.568  0.00  0.00     0.126 C 
HETATM    4  C   UNK N   1      35.578  13.083   9.341  0.00  0.00     0.126 C 
HETATM    5  C   UNK N   1      36.308  15.175  10.500  0.00  0.00     0.040 C 
HETATM    6  C   UNK N   1      34.877  11.317  10.859  0.00  0.00     0.237 C 
HETATM    7  N   UNK N   1      35.018  12.644  10.601  0.00  0.00    -0.351 N 
HETATM    8  O   UNK N   1      35.210  10.486  10.027  0.00  0.00    -0.272 OA
ENDROOT
BRANCH   6   9
HETATM    9  C   UNK N   1      34.315  10.844  12.157  0.00  0.00     0.224 C 
BRANCH   9  10
HETATM   10  N   UNK N   1      35.087  11.394  13.242  0.00  0.00    -0.364 N 
HETATM   11  C   UNK N   1      34.649  11.369  14.453  0.00  0.00     0.136 C 
ATOM     12  HN  UNK N   1      35.997  11.812  13.047  1.00  0.00     0.161 HD
BRANCH  11  13
HETATM   13  C   UNK N   1      35.448  12.025  15.552  0.00  0.00     0.177 C 
BRANCH  13  14
HETATM   14  C   UNK N   1      36.270  10.964  16.306  0.00  0.00     0.017 C 
HETATM   15  C   UNK N   1      36.444   9.665  15.491  0.00  0.00     0.007 C 
HETATM   16  C   UNK N   1      36.685   8.465  16.402  0.00  0.00     0.000 C 
HETATM   17  C   UNK N   1      35.486   8.229  17.334  0.00  0.00     0.000 C 
HETATM   18  C   UNK N   1      34.761   9.519  17.745  0.00  0.00     0.000 C 
HETATM   19  C   UNK N   1      35.711  10.714  17.722  0.00  0.00     0.007 C 
ENDBRANCH  13  14
BRANCH  13  20
HETATM   20  N   UNK N   1      36.338  13.040  15.024  0.00  0.00    -0.215 N 
HETATM   21  C   UNK N   1      36.662  14.245  15.703  0.00  0.00     0.665 C 
HETATM   22  N   UNK N   1      37.468  15.079  15.158  0.00  0.00    -0.235 N 
HETATM   23  N   UNK N   1      36.140  14.515  16.988  0.00  0.00    -0.235 N 
HETATM   24  H   UNK N   1      37.801  14.964  14.239  0.00  0.00     0.174 HD
ATOM     25  HN  UNK N   1      37.774  15.889  15.696  1.00  0.00     0.174 HD
HETATM   26  H   UNK N   1      36.561  15.180  17.580  0.00  0.00     0.174 HD
HETATM   27  H   UNK N   1      35.339  14.032  17.297  0.00  0.00     0.174 HD
HETATM   28  H   UNK N   1      36.743  12.885  14.140  0.00  0.00     0.178 HD
ENDBRANCH  13  20
ENDBRANCH  11  13
BRANCH  11  29
HETATM   29  O   UNK N   1      33.451  10.812  14.736  0.00  0.00    -0.348 OA
HETATM   30  H   UNK N   1      32.688  10.484  15.172  0.00  0.00     0.219 HD
ENDBRANCH  11  29
ENDBRANCH   9  10
ENDBRANCH   6   9
BRANCH   5  31
HETATM   31  C   UNK N   1      35.336  16.069   9.777  0.00  0.00     0.032 A 
HETATM   32  C   UNK N   1      34.876  15.891   8.489  0.00  0.00     0.058 A 
HETATM   33  C   UNK N   1      33.991  16.931   8.306  0.00  0.00     0.062 A 
HETATM   34  N   UNK N   1      33.942  17.684   9.422  0.00  0.00    -0.300 N 
HETATM   35  N   UNK N   1      34.763  17.155  10.320  0.00  0.00    -0.304 N 
ATOM     36  HN  UNK N   1      33.371  18.518   9.553  1.00  0.00     0.187 HD
HETATM   37  H   UNK N   1      34.925  17.500  11.228  0.00  0.00     0.186 HD
BRANCH  33  38
HETATM   38  C   UNK N   1      33.148  17.103   7.096  0.00  0.00     0.015 A 
HETATM   39  C   UNK N   1      33.804  17.325   5.874  0.00  0.00     0.015 A 
HETATM   40  C   UNK N   1      33.092  17.439   4.684  0.00  0.00     0.003 A 
HETATM   41  C   UNK N   1      31.706  17.321   4.691  0.00  0.00     0.026 A 
HETATM   42  C   UNK N   1      31.023  17.106   5.889  0.00  0.00     0.056 A 
HETATM   43  C   UNK N   1      31.732  17.001   7.105  0.00  0.00     0.068 A 
HETATM   44 Cl   UNK N   1      29.275  16.950   5.834  0.00  0.00    -0.083 Cl
HETATM   45 Cl   UNK N   1      30.828  16.727   8.597  0.00  0.00    -0.082 Cl
ENDBRANCH  33  38
ENDBRANCH   5  31
TORSDOF 8
ENDMDL
