REMARK WARNING: 32 MAX_TORS EXCEEDED!!!
REMARK  36 active torsions:
REMARK  status: ('A' for Active; 'I' for Inactive)
REMARK    1  A    between atoms: C_4  and  C_3 
REMARK    2  A    between atoms: C_14  and  C_3 
REMARK    3  A    between atoms: C_16  and  C_4 
REMARK    4  A    between atoms: C_6  and  C_5 
REMARK    5  A    between atoms: C_15  and  C_5 
REMARK    6  A    between atoms: N_31  and  C_6 
REMARK    7  A    between atoms: C_8  and  C_7 
REMARK    8  A    between atoms: N_27  and  C_7 
REMARK    9  A    between atoms: N_29  and  C_8 
REMARK   10  A    between atoms: C_13  and  C_9 
REMARK   11  A    between atoms: O_54  and  C_9 
REMARK   12  A    between atoms: C_25  and  C_10 
REMARK   13  A    between atoms: O_55  and  C_10 
REMARK   14  A    between atoms: N_27  and  C_14 
REMARK   15  A    between atoms: O_40  and  C_14 
REMARK   16  A    between atoms: N_29  and  C_15 
REMARK   17  A    between atoms: O_41  and  C_15 
REMARK   18  A    between atoms: O_43  and  C_16 
REMARK   19  A    between atoms: C_18  and  O_44 
REMARK   20  A    between atoms: C_19  and  O_57 
REMARK   21  A    between atoms: C_23  and  C_20 
REMARK   22  A    between atoms: C_25  and  C_20 
REMARK   23  A    between atoms: C_20  and  O_45 
REMARK   24  A    between atoms: N_26  and  C_21 
REMARK   25  A    between atoms: N_31  and  C_23 
REMARK   26  A    between atoms: O_46  and  C_23 
REMARK   27  A    between atoms: C_24  and  N_39 
REMARK   28  A    between atoms: P_59  and  O_47 
REMARK   29  A    between atoms: P_59  and  O_48 
REMARK   30  A    between atoms: P_60  and  O_50 
REMARK   31  A    between atoms: P_61  and  O_52 
REMARK   32  A    between atoms: P_60  and  O_54 
REMARK   33  A    between atoms: P_61  and  O_55 
REMARK   34  A    between atoms: P_59  and  O_57 
REMARK   35  A    between atoms: P_60  and  O_58 
REMARK   36  A    between atoms: P_61  and  O_58 
ROOT
HETATM    1  O   UNK N   1      -5.062  -4.435   0.340  0.00  0.00    -0.631 OA
HETATM    2  P   UNK N   1      -3.690  -3.709   0.400  0.00  0.00     0.401 P 
ENDROOT
BRANCH   2   3
HETATM    3  O   UNK N   1      -2.485  -4.942   0.216  0.00  0.00    -0.307 OA
HETATM    4  H   UNK N   1      -2.745  -5.871   0.113  0.00  0.00     0.222 HD
ENDBRANCH   2   3
BRANCH   2   5
HETATM    5  O   UNK N   1      -3.671  -2.568  -0.915  0.00  0.00    -0.296 OA
BRANCH   5   6
HETATM    6  C   UNK N   1      -4.503  -1.541  -0.472  0.00  0.00     0.192 C 
BRANCH   6   7
HETATM    7  C   UNK N   1      -4.999  -0.635  -1.597  0.00  0.00     0.008 C 
HETATM    8  C   UNK N   1      -3.893   0.342  -1.965  0.00  0.00     0.020 C 
HETATM    9  C   UNK N   1      -5.343  -1.452  -2.837  0.00  0.00     0.020 C 
BRANCH   7  10
HETATM   10  C   UNK N   1      -6.255   0.129  -1.115  0.00  0.00     0.202 C 
BRANCH  10  11
HETATM   11  C   UNK N   1      -7.346  -0.828  -0.698  0.00  0.00     0.141 C 
BRANCH  11  12
HETATM   12  N   UNK N   1      -8.481  -0.829  -1.310  0.00  0.00    -0.372 N 
ATOM     13  HN  UNK N   1      -8.629  -0.187  -2.089  1.00  0.00     0.161 HD
BRANCH  12  14
HETATM   14  C   UNK N   1      -9.546  -1.722  -0.916  0.00  0.00     0.129 C 
BRANCH  14  15
HETATM   15  C   UNK N   1      -9.961  -1.394   0.508  0.00  0.00     0.103 C 
BRANCH  15  16
HETATM   16  C   UNK N   1     -10.901  -2.410   1.069  0.00  0.00     0.112 C 
BRANCH  16  17
HETATM   17  N   UNK N   1     -12.096  -2.078   1.418  0.00  0.00    -0.373 N 
ATOM     18  HN  UNK N   1     -12.698  -2.786   1.839  1.00  0.00     0.161 HD
BRANCH  17  19
HETATM   19  C   UNK N   1     -12.618  -0.737   1.236  0.00  0.00     0.141 C 
BRANCH  19  20
HETATM   20  C   UNK N   1     -12.943  -0.495  -0.239  0.00  0.00     0.141 C 
BRANCH  20  21
HETATM   21  N   UNK N   1     -13.749  -1.590  -0.713  0.00  0.00    -0.373 N 
ATOM     22  HN  UNK N   1     -13.296  -2.354  -1.216  1.00  0.00     0.161 HD
BRANCH  21  23
HETATM   23  C   UNK N   1     -15.020  -1.637  -0.524  0.00  0.00     0.111 C 
BRANCH  23  24
HETATM   24  C   UNK N   1     -15.765  -2.874  -0.886  0.00  0.00     0.094 C 
BRANCH  24  25
HETATM   25  C   UNK N   1     -15.253  -3.994   0.009  0.00  0.00     0.118 C 
BRANCH  25  26
HETATM   26  C   UNK N   1     -15.872  -5.301  -0.337  0.00  0.00     0.139 C 
HETATM   27  O   UNK N   1     -15.166  -6.228  -0.697  0.00  0.00    -0.650 OA
BRANCH  26  28
HETATM   28  O   UNK N   1     -17.201  -5.474  -0.219  0.00  0.00    -0.776 OA
HETATM   29  H   UNK N   1     -17.768  -4.732  -0.136  0.00  0.00     0.167 HD
ENDBRANCH  26  28
ENDBRANCH  25  26
ENDBRANCH  24  25
ENDBRANCH  23  24
BRANCH  23  30
HETATM   30  O   UNK N   1     -15.672  -0.611   0.062  0.00  0.00    -0.350 OA
HETATM   31  H   UNK N   1     -15.281   0.137   0.469  0.00  0.00     0.219 HD
ENDBRANCH  23  30
ENDBRANCH  21  23
ENDBRANCH  20  21
ENDBRANCH  19  20
ENDBRANCH  17  19
ENDBRANCH  16  17
BRANCH  16  32
HETATM   32  O   UNK N   1     -10.487  -3.681   1.236  0.00  0.00    -0.350 OA
HETATM   33  H   UNK N   1     -11.109  -4.373   1.352  0.00  0.00     0.219 HD
ENDBRANCH  16  32
ENDBRANCH  15  16
ENDBRANCH  14  15
ENDBRANCH  12  14
ENDBRANCH  11  12
BRANCH  11  34
HETATM   34  O   UNK N   1      -7.128  -1.679   0.331  0.00  0.00    -0.348 OA
HETATM   35  H   UNK N   1      -7.563  -2.105   1.043  0.00  0.00     0.219 HD
ENDBRANCH  11  34
ENDBRANCH  10  11
BRANCH  10  36
HETATM   36  O   UNK N   1      -5.941   0.944  -0.022  0.00  0.00    -0.387 OA
HETATM   37  H   UNK N   1      -5.343   1.038   0.736  0.00  0.00     0.210 HD
ENDBRANCH  10  36
ENDBRANCH   7  10
ENDBRANCH   6   7
ENDBRANCH   5   6
ENDBRANCH   2   5
BRANCH   2  38
HETATM   38  O   UNK N   1      -3.604  -2.943   1.965  0.00  0.00    -0.195 OA
BRANCH  38  39
HETATM   39  P   UNK N   1      -2.138  -1.992   2.021  0.00  0.00     0.401 P 
HETATM   40  O   UNK N   1      -0.959  -2.905   2.451  0.00  0.00    -0.631 OA
BRANCH  39  41
HETATM   41  O   UNK N   1      -2.297  -0.828   3.298  0.00  0.00    -0.307 OA
HETATM   42  H   UNK N   1      -1.778  -0.426   4.012  0.00  0.00     0.222 HD
ENDBRANCH  39  41
BRANCH  39  43
HETATM   43  O   UNK N   1      -1.737  -1.128   0.555  0.00  0.00    -0.294 OA
BRANCH  43  44
HETATM   44  C   UNK N   1      -0.978  -1.971  -0.273  0.00  0.00     0.215 C 
BRANCH  44  45
HETATM   45  C   UNK N   1       0.350  -1.318  -0.664  0.00  0.00     0.180 C 
HETATM   46  C   UNK N   1       1.533  -1.932   0.107  0.00  0.00     0.197 C 
HETATM   47  C   UNK N   1       2.422  -0.719   0.166  0.00  0.00     0.199 C 
HETATM   48  C   UNK N   1       1.369   0.329   0.501  0.00  0.00     0.262 C 
HETATM   49  O   UNK N   1       0.310   0.074  -0.391  0.00  0.00    -0.353 OA
BRANCH  46  50
HETATM   50  O   UNK N   1       2.196  -2.994  -0.552  0.00  0.00    -0.286 OA
BRANCH  50  51
HETATM   51  P   UNK N   1       1.174  -4.417  -0.655  0.00  0.00     0.391 P 
HETATM   52  O   UNK N   1       0.416  -4.606   0.686  0.00  0.00    -0.632 OA
BRANCH  51  53
HETATM   53  O   UNK N   1      -0.002  -4.294  -1.928  0.00  0.00    -0.307 OA
HETATM   54  H   UNK N   1      -0.270  -3.691  -2.639  0.00  0.00     0.222 HD
ENDBRANCH  51  53
BRANCH  51  55
HETATM   55  O   UNK N   1       2.135  -5.845  -0.870  0.00  0.00    -0.307 OA
HETATM   56  H   UNK N   1       1.712  -6.710  -0.991  0.00  0.00     0.222 HD
ENDBRANCH  51  55
ENDBRANCH  50  51
ENDBRANCH  46  50
BRANCH  47  57
HETATM   57  O   UNK N   1       3.417  -0.840   1.138  0.00  0.00    -0.388 OA
HETATM   58  H   UNK N   1       3.690  -1.480   1.813  0.00  0.00     0.210 HD
ENDBRANCH  47  57
BRANCH  48  59
HETATM   59  N   UNK N   1       1.799   1.728   0.388  0.00  0.00    -0.297 N 
HETATM   60  C   UNK N   1       0.948   2.785   0.476  0.00  0.00     0.188 A 
HETATM   61  N   UNK N   1       1.605   3.972   0.368  0.00  0.00    -0.346 N 
HETATM   62  C   UNK N   1       2.896   3.625   0.224  0.00  0.00     0.122 A 
ATOM     63  HN  UNK N   1       1.209   4.911   0.390  1.00  0.00     0.167 HD
HETATM   64  C   UNK N   1       4.016   4.427   0.105  0.00  0.00     0.131 A 
HETATM   65  C   UNK N   1       3.014   2.281   0.229  0.00  0.00     0.142 A 
HETATM   66  N   UNK N   1       5.233   3.814   0.001  0.00  0.00    -0.337 N 
HETATM   67  C   UNK N   1       5.336   2.443   0.010  0.00  0.00     0.183 A 
ATOM     68  HN  UNK N   1       6.076   4.381  -0.085  1.00  0.00     0.168 HD
HETATM   69  N   UNK N   1       4.216   1.663   0.126  0.00  0.00    -0.336 N 
ATOM     70  HN  UNK N   1       4.285   0.645   0.134  1.00  0.00     0.168 HD
BRANCH  64  71
HETATM   71  N   UNK N   1       3.916   5.833   0.108  0.00  0.00    -0.383 N 
HETATM   72  H   UNK N   1       4.731   6.384   0.111  0.00  0.00     0.157 HD
HETATM   73  H   UNK N   1       3.030   6.263   0.108  0.00  0.00     0.157 HD
ENDBRANCH  64  71
ENDBRANCH  48  59
ENDBRANCH  44  45
ENDBRANCH  43  44
ENDBRANCH  39  43
ENDBRANCH  38  39
ENDBRANCH   2  38
TORSDOF 36
