REMARK  6 active torsions:
REMARK  status: ('A' for Active; 'I' for Inactive)
REMARK    1  A    between atoms: C_5  and  C_3 
REMARK    2  A    between atoms: O_12  and  C_3 
REMARK    3  A    between atoms: O_13  and  C_4 
REMARK    4  A    between atoms: C_6  and  O_14 
REMARK    5  A    between atoms: C_7  and  O_15 
REMARK    6  A    between atoms: C_8  and  N_10 
ROOT
HETATM    1  C   UNK N   1       2.013   0.986  -0.125  0.00  0.00     0.125 C 
HETATM    2  C   UNK N   1       0.955   2.012   0.302  0.00  0.00     0.058 C 
HETATM    3  C   UNK N   1      -0.484   1.536  -0.023  0.00  0.00     0.158 C 
HETATM    4  C   UNK N   1      -0.565   0.038   0.279  0.00  0.00     0.189 C 
HETATM    5  C   UNK N   1       0.367  -0.729  -0.701  0.00  0.00     0.210 C 
HETATM    6  N   UNK N   1       1.518   0.080  -1.159  0.00  0.00    -0.399 N 
HETATM    7  H   UNK N   1       1.922   0.012  -2.094  0.00  0.00     0.155 HD
ENDROOT
BRANCH   5   8
HETATM    8  N   UNK N   1       0.742  -2.007  -0.102  0.00  0.00    -0.351 N 
HETATM    9  C   UNK N   1       1.939  -2.444   0.145  0.00  0.00     0.108 C 
HETATM   10  C   UNK N   1       2.104  -3.774   0.791  0.00  0.00     0.097 C 
ATOM     11  HN  UNK N   1      -0.025  -2.629   0.151  1.00  0.00     0.163 HD
BRANCH   9  12
HETATM   12  O   UNK N   1       3.039  -1.728  -0.155  0.00  0.00    -0.350 OA
HETATM   13  H   UNK N   1       3.853  -2.142  -0.364  0.00  0.00     0.219 HD
ENDBRANCH   9  12
ENDBRANCH   5   8
BRANCH   4  14
HETATM   14  O   UNK N   1      -1.876  -0.433   0.155  0.00  0.00    -0.389 OA
HETATM   15  H   UNK N   1      -2.613   0.191   0.069  0.00  0.00     0.210 HD
ENDBRANCH   4  14
BRANCH   3  16
HETATM   16  O   UNK N   1      -1.404   2.248   0.753  0.00  0.00    -0.392 OA
HETATM   17  H   UNK N   1      -1.296   3.047   1.291  0.00  0.00     0.210 HD
ENDBRANCH   3  16
BRANCH   2  18
HETATM   18  C   UNK N   1       1.265   3.364  -0.331  0.00  0.00     0.173 C 
BRANCH  18  19
HETATM   19  O   UNK N   1       0.420   4.354   0.172  0.00  0.00    -0.400 OA
HETATM   20  H   UNK N   1       0.722   5.207   0.521  0.00  0.00     0.209 HD
ENDBRANCH  18  19
ENDBRANCH   2  18
TORSDOF 6
