MODEL 1
REMARK VINA RESULT:      -6.6      0.000      0.000
REMARK  11 active torsions:
REMARK  status: ('A' for Active; 'I' for Inactive)
REMARK    1  A    between atoms: C_3  and  C_2 
REMARK    2  A    between atoms: C_4  and  C_2 
REMARK    3  A    between atoms: C_7  and  C_3 
REMARK    4  A    between atoms: C_8  and  C_4 
REMARK    5  A    between atoms: C_13  and  C_7 
REMARK    6  A    between atoms: C_7  and  N_15 
REMARK    7  A    between atoms: C_8  and  O_19 
REMARK    8  A    between atoms: C_9  and  N_16 
REMARK    9  A    between atoms: C_14  and  C_10 
REMARK   10  A    between atoms: O_22  and  C_13 
REMARK   11  A    between atoms: O_24  and  C_14 
ROOT
HETATM    1  C   UNK N   1      26.885  18.640   5.581  0.00  0.00     0.111 C 
HETATM    2  N   UNK N   1      25.893  18.259   4.841  0.00  0.00    -0.359 N 
ATOM      3  HN  UNK N   1      26.004  17.485   4.186  1.00  0.00     0.162 HD
ENDROOT
BRANCH   2   4
HETATM    4  C   UNK N   1      24.624  18.948   4.958  0.00  0.00     0.209 C 
HETATM    5  C   UNK N   1      24.129  19.786   3.829  0.00  0.00     0.251 C 
HETATM    6  N   UNK N   1      23.046  19.098   3.581  0.00  0.00    -0.293 N 
HETATM    7  O   UNK N   1      24.434  20.903   3.436  0.00  0.00    -0.271 OA
HETATM    8  C   UNK N   1      21.778  19.334   2.948  0.00  0.00     0.115 C 
HETATM    9  C   UNK N   1      23.364  18.048   4.498  0.00  0.00     0.187 C 
HETATM   10  C   UNK N   1      20.748  18.495   3.286  0.00  0.00    -0.041 C 
HETATM   11  C   UNK N   1      19.351  18.660   2.782  0.00  0.00     0.047 C 
HETATM   12  C   UNK N   1      20.979  17.349   4.243  0.00  0.00     0.112 C 
HETATM   13  S   UNK N   1      22.003  17.855   5.673  0.00  0.00    -0.136 SA
BRANCH   8  14
HETATM   14  C   UNK N   1      21.565  20.526   2.055  0.00  0.00     0.194 C 
HETATM   15  O   UNK N   1      21.479  20.384   0.849  0.00  0.00    -0.645 OA
BRANCH  14  16
HETATM   16  O   UNK N   1      21.486  21.771   2.564  0.00  0.00    -0.772 OA
HETATM   17  H   UNK N   1      22.203  22.126   3.050  0.00  0.00     0.167 HD
ENDBRANCH  14  16
ENDBRANCH   8  14
ENDBRANCH   2   4
BRANCH   1  18
HETATM   18  C   UNK N   1      28.249  18.043   5.419  0.00  0.00     0.083 C 
BRANCH  18  19
HETATM   19  C   UNK N   1      28.465  16.906   6.429  0.00  0.00     0.010 C 
BRANCH  19  20
HETATM   20  C   UNK N   1      29.731  17.121   7.269  0.00  0.00     0.036 C 
BRANCH  20  21
HETATM   21  C   UNK N   1      29.565  18.169   8.364  0.00  0.00     0.173 C 
BRANCH  21  22
HETATM   22  C   UNK N   1      28.380  17.822   9.224  0.00  0.00     0.163 C 
HETATM   23  O   UNK N   1      28.399  16.831   9.939  0.00  0.00    -0.648 OA
BRANCH  22  24
HETATM   24  O   UNK N   1      27.285  18.605   9.204  0.00  0.00    -0.775 OA
HETATM   25  H   UNK N   1      27.270  19.435   9.637  0.00  0.00     0.167 HD
ENDBRANCH  22  24
ENDBRANCH  21  22
BRANCH  21  26
HETATM   26  N   UNK N   1      30.782  18.203   9.163  0.00  0.00    -0.418 N 
HETATM   27  H   UNK N   1      31.293  17.355   9.406  0.00  0.00     0.150 HD
HETATM   28  H   UNK N   1      31.134  19.102   9.490  0.00  0.00     0.150 HD
ENDBRANCH  21  26
ENDBRANCH  20  21
ENDBRANCH  19  20
ENDBRANCH  18  19
ENDBRANCH   1  18
BRANCH   1  29
HETATM   29  O   UNK N   1      26.704  19.601   6.515  0.00  0.00    -0.350 OA
HETATM   30  H   UNK N   1      25.956  19.750   7.059  0.00  0.00     0.219 HD
ENDBRANCH   1  29
TORSDOF 11
ENDMDL
MODEL 2
REMARK VINA RESULT:      -6.1      7.228     12.980
REMARK  11 active torsions:
REMARK  status: ('A' for Active; 'I' for Inactive)
REMARK    1  A    between atoms: C_3  and  C_2 
REMARK    2  A    between atoms: C_4  and  C_2 
REMARK    3  A    between atoms: C_7  and  C_3 
REMARK    4  A    between atoms: C_8  and  C_4 
REMARK    5  A    between atoms: C_13  and  C_7 
REMARK    6  A    between atoms: C_7  and  N_15 
REMARK    7  A    between atoms: C_8  and  O_19 
REMARK    8  A    between atoms: C_9  and  N_16 
REMARK    9  A    between atoms: C_14  and  C_10 
REMARK   10  A    between atoms: O_22  and  C_13 
REMARK   11  A    between atoms: O_24  and  C_14 
ROOT
HETATM    1  C   UNK N   1      33.945  17.248   8.485  0.00  0.00     0.111 C 
HETATM    2  N   UNK N   1      34.092  15.963   8.544  0.00  0.00    -0.359 N 
ATOM      3  HN  UNK N   1      33.434  15.345   8.068  1.00  0.00     0.162 HD
ENDROOT
BRANCH   2   4
HETATM    4  C   UNK N   1      35.204  15.416   9.295  0.00  0.00     0.209 C 
HETATM    5  C   UNK N   1      35.179  15.446  10.784  0.00  0.00     0.251 C 
HETATM    6  N   UNK N   1      35.200  14.152  10.971  0.00  0.00    -0.293 N 
HETATM    7  O   UNK N   1      35.374  16.340  11.595  0.00  0.00    -0.271 OA
HETATM    8  C   UNK N   1      35.570  13.254  12.029  0.00  0.00     0.115 C 
HETATM    9  C   UNK N   1      35.062  13.833   9.585  0.00  0.00     0.187 C 
HETATM   10  C   UNK N   1      35.866  11.963  11.674  0.00  0.00    -0.041 C 
HETATM   11  C   UNK N   1      36.350  10.932  12.641  0.00  0.00     0.047 C 
HETATM   12  C   UNK N   1      35.747  11.520  10.234  0.00  0.00     0.112 C 
HETATM   13  S   UNK N   1      36.433  12.766   9.082  0.00  0.00    -0.136 SA
BRANCH   8  14
HETATM   14  C   UNK N   1      35.747  13.745  13.440  0.00  0.00     0.194 C 
HETATM   15  O   UNK N   1      34.913  13.492  14.289  0.00  0.00    -0.645 OA
BRANCH  14  16
HETATM   16  O   UNK N   1      36.815  14.488  13.789  0.00  0.00    -0.772 OA
HETATM   17  H   UNK N   1      36.735  15.141  14.456  0.00  0.00     0.167 HD
ENDBRANCH  14  16
ENDBRANCH   8  14
ENDBRANCH   2   4
BRANCH   1  18
HETATM   18  C   UNK N   1      32.751  17.864   7.824  0.00  0.00     0.083 C 
BRANCH  18  19
HETATM   19  C   UNK N   1      31.555  16.900   7.860  0.00  0.00     0.010 C 
BRANCH  19  20
HETATM   20  C   UNK N   1      30.217  17.651   7.858  0.00  0.00     0.036 C 
BRANCH  20  21
HETATM   21  C   UNK N   1      29.648  17.883   9.254  0.00  0.00     0.173 C 
BRANCH  21  22
HETATM   22  C   UNK N   1      28.144  17.903   9.193  0.00  0.00     0.163 C 
HETATM   23  O   UNK N   1      27.496  16.907   9.480  0.00  0.00    -0.648 OA
BRANCH  22  24
HETATM   24  O   UNK N   1      27.503  19.024   8.812  0.00  0.00    -0.775 OA
HETATM   25  H   UNK N   1      26.573  19.108   8.897  0.00  0.00     0.167 HD
ENDBRANCH  22  24
ENDBRANCH  21  22
BRANCH  21  26
HETATM   26  N   UNK N   1      30.107  16.814  10.128  0.00  0.00    -0.418 N 
HETATM   27  H   UNK N   1      31.048  16.425  10.058  0.00  0.00     0.150 HD
HETATM   28  H   UNK N   1      29.470  16.441  10.831  0.00  0.00     0.150 HD
ENDBRANCH  21  26
ENDBRANCH  20  21
ENDBRANCH  19  20
ENDBRANCH  18  19
ENDBRANCH   1  18
BRANCH   1  29
HETATM   29  O   UNK N   1      34.873  18.062   9.035  0.00  0.00    -0.350 OA
HETATM   30  H   UNK N   1      34.770  18.942   9.339  0.00  0.00     0.219 HD
ENDBRANCH   1  29
TORSDOF 11
ENDMDL
MODEL 3
REMARK VINA RESULT:      -6.0     10.668     14.870
REMARK  11 active torsions:
REMARK  status: ('A' for Active; 'I' for Inactive)
REMARK    1  A    between atoms: C_3  and  C_2 
REMARK    2  A    between atoms: C_4  and  C_2 
REMARK    3  A    between atoms: C_7  and  C_3 
REMARK    4  A    between atoms: C_8  and  C_4 
REMARK    5  A    between atoms: C_13  and  C_7 
REMARK    6  A    between atoms: C_7  and  N_15 
REMARK    7  A    between atoms: C_8  and  O_19 
REMARK    8  A    between atoms: C_9  and  N_16 
REMARK    9  A    between atoms: C_14  and  C_10 
REMARK   10  A    between atoms: O_22  and  C_13 
REMARK   11  A    between atoms: O_24  and  C_14 
ROOT
HETATM    1  C   UNK N   1      34.229  13.350   9.156  0.00  0.00     0.111 C 
HETATM    2  N   UNK N   1      34.105  13.096  10.419  0.00  0.00    -0.359 N 
ATOM      3  HN  UNK N   1      33.181  13.053  10.850  1.00  0.00     0.162 HD
ENDROOT
BRANCH   2   4
HETATM    4  C   UNK N   1      35.297  12.873  11.211  0.00  0.00     0.209 C 
HETATM    5  C   UNK N   1      35.509  13.646  12.468  0.00  0.00     0.251 C 
HETATM    6  N   UNK N   1      35.505  12.627  13.286  0.00  0.00    -0.293 N 
HETATM    7  O   UNK N   1      35.867  14.796  12.678  0.00  0.00    -0.271 OA
HETATM    8  C   UNK N   1      36.000  12.341  14.604  0.00  0.00     0.115 C 
HETATM    9  C   UNK N   1      35.137  11.676  12.285  0.00  0.00     0.187 C 
HETATM   10  C   UNK N   1      36.182  11.022  14.929  0.00  0.00    -0.041 C 
HETATM   11  C   UNK N   1      36.769  10.564  16.224  0.00  0.00     0.047 C 
HETATM   12  C   UNK N   1      35.819   9.936  13.942  0.00  0.00     0.112 C 
HETATM   13  S   UNK N   1      36.366  10.349  12.245  0.00  0.00    -0.136 SA
BRANCH   8  14
HETATM   14  C   UNK N   1      36.418  13.448  15.534  0.00  0.00     0.194 C 
HETATM   15  O   UNK N   1      35.742  13.720  16.509  0.00  0.00    -0.645 OA
BRANCH  14  16
HETATM   16  O   UNK N   1      37.530  14.171  15.300  0.00  0.00    -0.772 OA
HETATM   17  H   UNK N   1      37.953  14.124  14.466  0.00  0.00     0.167 HD
ENDBRANCH  14  16
ENDBRANCH   8  14
ENDBRANCH   2   4
BRANCH   1  18
HETATM   18  C   UNK N   1      33.042  13.704   8.314  0.00  0.00     0.083 C 
BRANCH  18  19
HETATM   19  C   UNK N   1      33.198  15.113   7.724  0.00  0.00     0.010 C 
BRANCH  19  20
HETATM   20  C   UNK N   1      33.229  16.190   8.817  0.00  0.00     0.036 C 
BRANCH  20  21
HETATM   21  C   UNK N   1      34.592  16.856   8.977  0.00  0.00     0.173 C 
BRANCH  21  22
HETATM   22  C   UNK N   1      34.611  18.161   8.228  0.00  0.00     0.163 C 
HETATM   23  O   UNK N   1      33.933  18.312   7.223  0.00  0.00    -0.648 OA
BRANCH  22  24
HETATM   24  O   UNK N   1      35.386  19.172   8.663  0.00  0.00    -0.775 OA
HETATM   25  H   UNK N   1      35.035  19.869   9.182  0.00  0.00     0.167 HD
ENDBRANCH  22  24
ENDBRANCH  21  22
BRANCH  21  26
HETATM   26  N   UNK N   1      34.835  17.080  10.395  0.00  0.00    -0.418 N 
HETATM   27  H   UNK N   1      34.540  17.935  10.866  0.00  0.00     0.150 HD
HETATM   28  H   UNK N   1      35.316  16.360  10.934  0.00  0.00     0.150 HD
ENDBRANCH  21  26
ENDBRANCH  20  21
ENDBRANCH  19  20
ENDBRANCH  18  19
ENDBRANCH   1  18
BRANCH   1  29
HETATM   29  O   UNK N   1      35.448  13.308   8.572  0.00  0.00    -0.350 OA
HETATM   30  H   UNK N   1      35.773  12.691   7.947  0.00  0.00     0.219 HD
ENDBRANCH   1  29
TORSDOF 11
ENDMDL
MODEL 4
REMARK VINA RESULT:      -6.0      5.092      6.284
REMARK  11 active torsions:
REMARK  status: ('A' for Active; 'I' for Inactive)
REMARK    1  A    between atoms: C_3  and  C_2 
REMARK    2  A    between atoms: C_4  and  C_2 
REMARK    3  A    between atoms: C_7  and  C_3 
REMARK    4  A    between atoms: C_8  and  C_4 
REMARK    5  A    between atoms: C_13  and  C_7 
REMARK    6  A    between atoms: C_7  and  N_15 
REMARK    7  A    between atoms: C_8  and  O_19 
REMARK    8  A    between atoms: C_9  and  N_16 
REMARK    9  A    between atoms: C_14  and  C_10 
REMARK   10  A    between atoms: O_22  and  C_13 
REMARK   11  A    between atoms: O_24  and  C_14 
ROOT
HETATM    1  C   UNK N   1      20.651  15.097   7.843  0.00  0.00     0.111 C 
HETATM    2  N   UNK N   1      21.477  16.038   7.513  0.00  0.00    -0.359 N 
ATOM      3  HN  UNK N   1      21.914  16.618   8.230  1.00  0.00     0.162 HD
ENDROOT
BRANCH   2   4
HETATM    4  C   UNK N   1      21.772  16.256   6.111  0.00  0.00     0.209 C 
HETATM    5  C   UNK N   1      20.971  17.239   5.329  0.00  0.00     0.251 C 
HETATM    6  N   UNK N   1      21.953  18.053   5.040  0.00  0.00    -0.293 N 
HETATM    7  O   UNK N   1      19.849  17.190   4.845  0.00  0.00    -0.271 OA
HETATM    8  C   UNK N   1      22.228  19.047   4.041  0.00  0.00     0.115 C 
HETATM    9  C   UNK N   1      22.907  17.378   5.864  0.00  0.00     0.187 C 
HETATM   10  C   UNK N   1      23.544  19.358   3.818  0.00  0.00    -0.041 C 
HETATM   11  C   UNK N   1      24.000  20.306   2.756  0.00  0.00     0.047 C 
HETATM   12  C   UNK N   1      24.633  18.705   4.639  0.00  0.00     0.112 C 
HETATM   13  S   UNK N   1      24.336  16.913   4.857  0.00  0.00    -0.136 SA
BRANCH   8  14
HETATM   14  C   UNK N   1      21.126  19.624   3.194  0.00  0.00     0.194 C 
HETATM   15  O   UNK N   1      20.700  20.742   3.416  0.00  0.00    -0.645 OA
BRANCH  14  16
HETATM   16  O   UNK N   1      20.575  18.914   2.191  0.00  0.00    -0.772 OA
HETATM   17  H   UNK N   1      19.776  19.201   1.796  0.00  0.00     0.167 HD
ENDBRANCH  14  16
ENDBRANCH   8  14
ENDBRANCH   2   4
BRANCH   1  18
HETATM   18  C   UNK N   1      20.220  14.904   9.264  0.00  0.00     0.083 C 
BRANCH  18  19
HETATM   19  C   UNK N   1      20.600  13.500   9.758  0.00  0.00     0.010 C 
BRANCH  19  20
HETATM   20  C   UNK N   1      22.099  13.390  10.067  0.00  0.00     0.036 C 
BRANCH  20  21
HETATM   21  C   UNK N   1      22.491  12.068  10.717  0.00  0.00     0.173 C 
BRANCH  21  22
HETATM   22  C   UNK N   1      23.887  12.169  11.272  0.00  0.00     0.163 C 
HETATM   23  O   UNK N   1      24.854  12.184  10.525  0.00  0.00    -0.648 OA
BRANCH  22  24
HETATM   24  O   UNK N   1      24.076  12.236  12.603  0.00  0.00    -0.775 OA
HETATM   25  H   UNK N   1      23.742  11.576  13.178  0.00  0.00     0.167 HD
ENDBRANCH  22  24
ENDBRANCH  21  22
BRANCH  21  26
HETATM   26  N   UNK N   1      21.542  11.773  11.781  0.00  0.00    -0.418 N 
HETATM   27  H   UNK N   1      21.763  11.129  12.540  0.00  0.00     0.150 HD
HETATM   28  H   UNK N   1      20.627  12.224  11.766  0.00  0.00     0.150 HD
ENDBRANCH  21  26
ENDBRANCH  20  21
ENDBRANCH  19  20
ENDBRANCH  18  19
ENDBRANCH   1  18
BRANCH   1  29
HETATM   29  O   UNK N   1      20.153  14.271   6.896  0.00  0.00    -0.350 OA
HETATM   30  H   UNK N   1      20.619  13.710   6.308  0.00  0.00     0.219 HD
ENDBRANCH   1  29
TORSDOF 11
ENDMDL
MODEL 5
REMARK VINA RESULT:      -5.9      6.834      9.738
REMARK  11 active torsions:
REMARK  status: ('A' for Active; 'I' for Inactive)
REMARK    1  A    between atoms: C_3  and  C_2 
REMARK    2  A    between atoms: C_4  and  C_2 
REMARK    3  A    between atoms: C_7  and  C_3 
REMARK    4  A    between atoms: C_8  and  C_4 
REMARK    5  A    between atoms: C_13  and  C_7 
REMARK    6  A    between atoms: C_7  and  N_15 
REMARK    7  A    between atoms: C_8  and  O_19 
REMARK    8  A    between atoms: C_9  and  N_16 
REMARK    9  A    between atoms: C_14  and  C_10 
REMARK   10  A    between atoms: O_22  and  C_13 
REMARK   11  A    between atoms: O_24  and  C_14 
ROOT
HETATM    1  C   UNK N   1      35.169  16.929  10.075  0.00  0.00     0.111 C 
HETATM    2  N   UNK N   1      34.001  16.577   9.643  0.00  0.00    -0.359 N 
ATOM      3  HN  UNK N   1      33.584  15.694   9.940  1.00  0.00     0.162 HD
ENDROOT
BRANCH   2   4
HETATM    4  C   UNK N   1      33.296  17.453   8.730  0.00  0.00     0.209 C 
HETATM    5  C   UNK N   1      33.395  17.229   7.260  0.00  0.00     0.251 C 
HETATM    6  N   UNK N   1      32.128  16.983   7.049  0.00  0.00    -0.293 N 
HETATM    7  O   UNK N   1      34.274  17.474   6.446  0.00  0.00    -0.271 OA
HETATM    8  C   UNK N   1      31.225  17.032   5.933  0.00  0.00     0.115 C 
HETATM    9  C   UNK N   1      31.779  16.981   8.435  0.00  0.00     0.187 C 
HETATM   10  C   UNK N   1      29.888  17.129   6.218  0.00  0.00    -0.041 C 
HETATM   11  C   UNK N   1      28.830  17.275   5.174  0.00  0.00     0.047 C 
HETATM   12  C   UNK N   1      29.411  17.129   7.653  0.00  0.00     0.112 C 
HETATM   13  S   UNK N   1      30.460  18.187   8.716  0.00  0.00    -0.136 SA
BRANCH   8  14
HETATM   14  C   UNK N   1      31.738  17.101   4.521  0.00  0.00     0.194 C 
HETATM   15  O   UNK N   1      32.167  16.102   3.972  0.00  0.00    -0.645 OA
BRANCH  14  16
HETATM   16  O   UNK N   1      31.753  18.264   3.842  0.00  0.00    -0.772 OA
HETATM   17  H   UNK N   1      32.190  18.320   3.015  0.00  0.00     0.167 HD
ENDBRANCH  14  16
ENDBRANCH   8  14
ENDBRANCH   2   4
BRANCH   1  18
HETATM   18  C   UNK N   1      35.993  16.012  10.925  0.00  0.00     0.083 C 
BRANCH  18  19
HETATM   19  C   UNK N   1      36.524  14.835  10.092  0.00  0.00     0.010 C 
BRANCH  19  20
HETATM   20  C   UNK N   1      36.376  13.499  10.832  0.00  0.00     0.036 C 
BRANCH  20  21
HETATM   21  C   UNK N   1      36.054  13.657  12.315  0.00  0.00     0.173 C 
BRANCH  21  22
HETATM   22  C   UNK N   1      34.931  12.729  12.693  0.00  0.00     0.163 C 
HETATM   23  O   UNK N   1      34.511  12.694  13.840  0.00  0.00    -0.648 OA
BRANCH  22  24
HETATM   24  O   UNK N   1      34.385  11.925  11.762  0.00  0.00    -0.775 OA
HETATM   25  H   UNK N   1      34.916  11.393  11.203  0.00  0.00     0.167 HD
ENDBRANCH  22  24
ENDBRANCH  21  22
BRANCH  21  26
HETATM   26  N   UNK N   1      37.250  13.347  13.086  0.00  0.00    -0.418 N 
HETATM   27  H   UNK N   1      38.182  13.371  12.671  0.00  0.00     0.150 HD
HETATM   28  H   UNK N   1      37.154  13.099  14.070  0.00  0.00     0.150 HD
ENDBRANCH  21  26
ENDBRANCH  20  21
ENDBRANCH  19  20
ENDBRANCH  18  19
ENDBRANCH   1  18
BRANCH   1  29
HETATM   29  O   UNK N   1      35.673  18.143   9.755  0.00  0.00    -0.350 OA
HETATM   30  H   UNK N   1      35.682  18.567   8.920  0.00  0.00     0.219 HD
ENDBRANCH   1  29
TORSDOF 11
ENDMDL
MODEL 6
REMARK VINA RESULT:      -5.8     11.273     12.936
REMARK  11 active torsions:
REMARK  status: ('A' for Active; 'I' for Inactive)
REMARK    1  A    between atoms: C_3  and  C_2 
REMARK    2  A    between atoms: C_4  and  C_2 
REMARK    3  A    between atoms: C_7  and  C_3 
REMARK    4  A    between atoms: C_8  and  C_4 
REMARK    5  A    between atoms: C_13  and  C_7 
REMARK    6  A    between atoms: C_7  and  N_15 
REMARK    7  A    between atoms: C_8  and  O_19 
REMARK    8  A    between atoms: C_9  and  N_16 
REMARK    9  A    between atoms: C_14  and  C_10 
REMARK   10  A    between atoms: O_22  and  C_13 
REMARK   11  A    between atoms: O_24  and  C_14 
ROOT
HETATM    1  C   UNK N   1      28.452  22.640  -6.395  0.00  0.00     0.111 C 
HETATM    2  N   UNK N   1      28.354  23.469  -5.406  0.00  0.00    -0.359 N 
ATOM      3  HN  UNK N   1      28.926  23.347  -4.570  1.00  0.00     0.162 HD
ENDROOT
BRANCH   2   4
HETATM    4  C   UNK N   1      27.420  24.572  -5.503  0.00  0.00     0.209 C 
HETATM    5  C   UNK N   1      27.057  25.347  -4.283  0.00  0.00     0.251 C 
HETATM    6  N   UNK N   1      27.528  26.501  -4.679  0.00  0.00    -0.293 N 
HETATM    7  O   UNK N   1      26.313  25.106  -3.343  0.00  0.00    -0.271 OA
HETATM    8  C   UNK N   1      27.312  27.884  -4.361  0.00  0.00     0.115 C 
HETATM    9  C   UNK N   1      28.127  25.978  -5.867  0.00  0.00     0.187 C 
HETATM   10  C   UNK N   1      27.676  28.805  -5.308  0.00  0.00    -0.041 C 
HETATM   11  C   UNK N   1      27.438  30.274  -5.166  0.00  0.00     0.047 C 
HETATM   12  C   UNK N   1      28.323  28.359  -6.599  0.00  0.00     0.112 C 
HETATM   13  S   UNK N   1      27.495  26.885  -7.299  0.00  0.00    -0.136 SA
BRANCH   8  14
HETATM   14  C   UNK N   1      26.601  28.289  -3.098  0.00  0.00     0.194 C 
HETATM   15  O   UNK N   1      27.214  28.815  -2.188  0.00  0.00    -0.645 OA
BRANCH  14  16
HETATM   16  O   UNK N   1      25.282  28.063  -2.939  0.00  0.00    -0.772 OA
HETATM   17  H   UNK N   1      24.922  27.976  -2.079  0.00  0.00     0.167 HD
ENDBRANCH  14  16
ENDBRANCH   8  14
ENDBRANCH   2   4
BRANCH   1  18
HETATM   18  C   UNK N   1      29.312  21.418  -6.303  0.00  0.00     0.083 C 
BRANCH  18  19
HETATM   19  C   UNK N   1      30.681  21.764  -5.698  0.00  0.00     0.010 C 
BRANCH  19  20
HETATM   20  C   UNK N   1      30.817  21.248  -4.259  0.00  0.00     0.036 C 
BRANCH  20  21
HETATM   21  C   UNK N   1      31.665  22.149  -3.367  0.00  0.00     0.173 C 
BRANCH  21  22
HETATM   22  C   UNK N   1      30.773  23.080  -2.590  0.00  0.00     0.163 C 
HETATM   23  O   UNK N   1      30.438  22.812  -1.446  0.00  0.00    -0.648 OA
BRANCH  22  24
HETATM   24  O   UNK N   1      30.334  24.217  -3.161  0.00  0.00    -0.775 OA
HETATM   25  H   UNK N   1      29.603  24.219  -3.748  0.00  0.00     0.167 HD
ENDBRANCH  22  24
ENDBRANCH  21  22
BRANCH  21  26
HETATM   26  N   UNK N   1      32.437  21.311  -2.460  0.00  0.00    -0.418 N 
HETATM   27  H   UNK N   1      33.375  20.984  -2.693  0.00  0.00     0.150 HD
HETATM   28  H   UNK N   1      32.028  21.042  -1.566  0.00  0.00     0.150 HD
ENDBRANCH  21  26
ENDBRANCH  20  21
ENDBRANCH  19  20
ENDBRANCH  18  19
ENDBRANCH   1  18
BRANCH   1  29
HETATM   29  O   UNK N   1      27.763  22.863  -7.537  0.00  0.00    -0.350 OA
HETATM   30  H   UNK N   1      26.855  23.069  -7.638  0.00  0.00     0.219 HD
ENDBRANCH   1  29
TORSDOF 11
ENDMDL
MODEL 7
REMARK VINA RESULT:      -5.7      5.318      6.625
REMARK  11 active torsions:
REMARK  status: ('A' for Active; 'I' for Inactive)
REMARK    1  A    between atoms: C_3  and  C_2 
REMARK    2  A    between atoms: C_4  and  C_2 
REMARK    3  A    between atoms: C_7  and  C_3 
REMARK    4  A    between atoms: C_8  and  C_4 
REMARK    5  A    between atoms: C_13  and  C_7 
REMARK    6  A    between atoms: C_7  and  N_15 
REMARK    7  A    between atoms: C_8  and  O_19 
REMARK    8  A    between atoms: C_9  and  N_16 
REMARK    9  A    between atoms: C_14  and  C_10 
REMARK   10  A    between atoms: O_22  and  C_13 
REMARK   11  A    between atoms: O_24  and  C_14 
ROOT
HETATM    1  C   UNK N   1      20.470  14.865   8.176  0.00  0.00     0.111 C 
HETATM    2  N   UNK N   1      21.110  15.949   7.873  0.00  0.00    -0.359 N 
ATOM      3  HN  UNK N   1      21.396  16.602   8.603  1.00  0.00     0.162 HD
ENDROOT
BRANCH   2   4
HETATM    4  C   UNK N   1      21.414  16.220   6.483  0.00  0.00     0.209 C 
HETATM    5  C   UNK N   1      21.985  17.540   6.092  0.00  0.00     0.251 C 
HETATM    6  N   UNK N   1      23.122  17.092   5.627  0.00  0.00    -0.293 N 
HETATM    7  O   UNK N   1      21.485  18.648   5.957  0.00  0.00    -0.271 OA
HETATM    8  C   UNK N   1      24.133  17.551   4.716  0.00  0.00     0.115 C 
HETATM    9  C   UNK N   1      22.895  15.745   6.048  0.00  0.00     0.187 C 
HETATM   10  C   UNK N   1      24.944  16.598   4.155  0.00  0.00    -0.041 C 
HETATM   11  C   UNK N   1      25.985  16.902   3.127  0.00  0.00     0.047 C 
HETATM   12  C   UNK N   1      24.791  15.144   4.537  0.00  0.00     0.112 C 
HETATM   13  S   UNK N   1      23.033  14.644   4.619  0.00  0.00    -0.136 SA
BRANCH   8  14
HETATM   14  C   UNK N   1      24.210  18.995   4.304  0.00  0.00     0.194 C 
HETATM   15  O   UNK N   1      25.106  19.707   4.720  0.00  0.00    -0.645 OA
BRANCH  14  16
HETATM   16  O   UNK N   1      23.286  19.537   3.488  0.00  0.00    -0.772 OA
HETATM   17  H   UNK N   1      22.958  20.398   3.656  0.00  0.00     0.167 HD
ENDBRANCH  14  16
ENDBRANCH   8  14
ENDBRANCH   2   4
BRANCH   1  18
HETATM   18  C   UNK N   1      20.026  14.591   9.580  0.00  0.00     0.083 C 
BRANCH  18  19
HETATM   19  C   UNK N   1      20.539  13.222  10.052  0.00  0.00     0.010 C 
BRANCH  19  20
HETATM   20  C   UNK N   1      22.068  13.200  10.183  0.00  0.00     0.036 C 
BRANCH  20  21
HETATM   21  C   UNK N   1      22.602  11.940  10.856  0.00  0.00     0.173 C 
BRANCH  21  22
HETATM   22  C   UNK N   1      24.034  12.153  11.270  0.00  0.00     0.163 C 
HETATM   23  O   UNK N   1      24.939  12.058  10.454  0.00  0.00    -0.648 OA
BRANCH  22  24
HETATM   24  O   UNK N   1      24.325  12.445  12.551  0.00  0.00    -0.775 OA
HETATM   25  H   UNK N   1      23.664  12.736  13.149  0.00  0.00     0.167 HD
ENDBRANCH  22  24
ENDBRANCH  21  22
BRANCH  21  26
HETATM   26  N   UNK N   1      21.776  11.647  12.019  0.00  0.00    -0.418 N 
HETATM   27  H   UNK N   1      22.107  11.059  12.783  0.00  0.00     0.150 HD
HETATM   28  H   UNK N   1      20.837  12.041  12.070  0.00  0.00     0.150 HD
ENDBRANCH  21  26
ENDBRANCH  20  21
ENDBRANCH  19  20
ENDBRANCH  18  19
ENDBRANCH   1  18
BRANCH   1  29
HETATM   29  O   UNK N   1      20.180  13.958   7.216  0.00  0.00    -0.350 OA
HETATM   30  H   UNK N   1      20.003  14.108   6.309  0.00  0.00     0.219 HD
ENDBRANCH   1  29
TORSDOF 11
ENDMDL
MODEL 8
REMARK VINA RESULT:      -5.6     11.593     14.454
REMARK  11 active torsions:
REMARK  status: ('A' for Active; 'I' for Inactive)
REMARK    1  A    between atoms: C_3  and  C_2 
REMARK    2  A    between atoms: C_4  and  C_2 
REMARK    3  A    between atoms: C_7  and  C_3 
REMARK    4  A    between atoms: C_8  and  C_4 
REMARK    5  A    between atoms: C_13  and  C_7 
REMARK    6  A    between atoms: C_7  and  N_15 
REMARK    7  A    between atoms: C_8  and  O_19 
REMARK    8  A    between atoms: C_9  and  N_16 
REMARK    9  A    between atoms: C_14  and  C_10 
REMARK   10  A    between atoms: O_22  and  C_13 
REMARK   11  A    between atoms: O_24  and  C_14 
ROOT
HETATM    1  C   UNK N   1      27.401  24.496  -4.517  0.00  0.00     0.111 C 
HETATM    2  N   UNK N   1      28.343  23.661  -4.818  0.00  0.00    -0.359 N 
ATOM      3  HN  UNK N   1      28.189  22.939  -5.524  1.00  0.00     0.162 HD
ENDROOT
BRANCH   2   4
HETATM    4  C   UNK N   1      29.618  23.765  -4.139  0.00  0.00     0.209 C 
HETATM    5  C   UNK N   1      30.293  22.536  -3.634  0.00  0.00     0.251 C 
HETATM    6  N   UNK N   1      31.365  22.623  -4.377  0.00  0.00    -0.293 N 
HETATM    7  O   UNK N   1      30.094  21.828  -2.656  0.00  0.00    -0.271 OA
HETATM    8  C   UNK N   1      32.712  22.129  -4.332  0.00  0.00     0.115 C 
HETATM    9  C   UNK N   1      30.883  23.729  -5.144  0.00  0.00     0.187 C 
HETATM   10  C   UNK N   1      33.650  22.809  -5.065  0.00  0.00    -0.041 C 
HETATM   11  C   UNK N   1      35.106  22.474  -5.056  0.00  0.00     0.047 C 
HETATM   12  C   UNK N   1      33.244  23.991  -5.916  0.00  0.00     0.112 C 
HETATM   13  S   UNK N   1      32.072  25.088  -5.037  0.00  0.00    -0.136 SA
BRANCH   8  14
HETATM   14  C   UNK N   1      33.094  20.995  -3.420  0.00  0.00     0.194 C 
HETATM   15  O   UNK N   1      33.470  19.933  -3.882  0.00  0.00    -0.645 OA
BRANCH  14  16
HETATM   16  O   UNK N   1      33.010  21.119  -2.081  0.00  0.00    -0.772 OA
HETATM   17  H   UNK N   1      33.239  21.929  -1.670  0.00  0.00     0.167 HD
ENDBRANCH  14  16
ENDBRANCH   8  14
ENDBRANCH   2   4
BRANCH   1  18
HETATM   18  C   UNK N   1      26.028  24.362  -5.101  0.00  0.00     0.083 C 
BRANCH  18  19
HETATM   19  C   UNK N   1      25.755  25.491  -6.106  0.00  0.00     0.010 C 
BRANCH  19  20
HETATM   20  C   UNK N   1      24.945  26.632  -5.477  0.00  0.00     0.036 C 
BRANCH  20  21
HETATM   21  C   UNK N   1      25.720  27.941  -5.366  0.00  0.00     0.173 C 
BRANCH  21  22
HETATM   22  C   UNK N   1      25.764  28.386  -3.929  0.00  0.00     0.163 C 
HETATM   23  O   UNK N   1      25.635  27.576  -3.022  0.00  0.00    -0.648 OA
BRANCH  22  24
HETATM   24  O   UNK N   1      25.941  29.687  -3.635  0.00  0.00    -0.775 OA
HETATM   25  H   UNK N   1      25.320  30.337  -3.902  0.00  0.00     0.167 HD
ENDBRANCH  22  24
ENDBRANCH  21  22
BRANCH  21  26
HETATM   26  N   UNK N   1      27.068  27.727  -5.874  0.00  0.00    -0.418 N 
HETATM   27  H   UNK N   1      27.623  26.915  -5.607  0.00  0.00     0.150 HD
HETATM   28  H   UNK N   1      27.468  28.410  -6.516  0.00  0.00     0.150 HD
ENDBRANCH  21  26
ENDBRANCH  20  21
ENDBRANCH  19  20
ENDBRANCH  18  19
ENDBRANCH   1  18
BRANCH   1  29
HETATM   29  O   UNK N   1      27.643  25.508  -3.654  0.00  0.00    -0.350 OA
HETATM   30  H   UNK N   1      27.821  26.407  -3.847  0.00  0.00     0.219 HD
ENDBRANCH   1  29
TORSDOF 11
ENDMDL
MODEL 9
REMARK VINA RESULT:      -5.3      2.427      3.291
REMARK  11 active torsions:
REMARK  status: ('A' for Active; 'I' for Inactive)
REMARK    1  A    between atoms: C_3  and  C_2 
REMARK    2  A    between atoms: C_4  and  C_2 
REMARK    3  A    between atoms: C_7  and  C_3 
REMARK    4  A    between atoms: C_8  and  C_4 
REMARK    5  A    between atoms: C_13  and  C_7 
REMARK    6  A    between atoms: C_7  and  N_15 
REMARK    7  A    between atoms: C_8  and  O_19 
REMARK    8  A    between atoms: C_9  and  N_16 
REMARK    9  A    between atoms: C_14  and  C_10 
REMARK   10  A    between atoms: O_22  and  C_13 
REMARK   11  A    between atoms: O_24  and  C_14 
ROOT
HETATM    1  C   UNK N   1      27.093  18.466   4.800  0.00  0.00     0.111 C 
HETATM    2  N   UNK N   1      26.334  18.919   3.854  0.00  0.00    -0.359 N 
ATOM      3  HN  UNK N   1      26.654  18.909   2.885  1.00  0.00     0.162 HD
ENDROOT
BRANCH   2   4
HETATM    4  C   UNK N   1      25.026  19.441   4.192  0.00  0.00     0.209 C 
HETATM    5  C   UNK N   1      24.240  20.192   3.172  0.00  0.00     0.251 C 
HETATM    6  N   UNK N   1      23.229  19.366   3.108  0.00  0.00    -0.293 N 
HETATM    7  O   UNK N   1      24.326  21.333   2.740  0.00  0.00    -0.271 OA
HETATM    8  C   UNK N   1      21.852  19.428   2.704  0.00  0.00     0.115 C 
HETATM    9  C   UNK N   1      23.832  18.380   3.949  0.00  0.00     0.187 C 
HETATM   10  C   UNK N   1      21.012  18.469   3.208  0.00  0.00    -0.041 C 
HETATM   11  C   UNK N   1      19.540  18.445   2.953  0.00  0.00     0.047 C 
HETATM   12  C   UNK N   1      21.550  17.376   4.103  0.00  0.00     0.112 C 
HETATM   13  S   UNK N   1      22.730  18.031   5.339  0.00  0.00    -0.136 SA
BRANCH   8  14
HETATM   14  C   UNK N   1      21.337  20.569   1.871  0.00  0.00     0.194 C 
HETATM   15  O   UNK N   1      21.167  20.430   0.673  0.00  0.00    -0.645 OA
BRANCH  14  16
HETATM   16  O   UNK N   1      21.072  21.770   2.421  0.00  0.00    -0.772 OA
HETATM   17  H   UNK N   1      21.181  22.552   1.918  0.00  0.00     0.167 HD
ENDBRANCH  14  16
ENDBRANCH   8  14
ENDBRANCH   2   4
BRANCH   1  18
HETATM   18  C   UNK N   1      28.497  18.024   4.526  0.00  0.00     0.083 C 
BRANCH  18  19
HETATM   19  C   UNK N   1      28.508  16.807   3.588  0.00  0.00     0.010 C 
BRANCH  19  20
HETATM   20  C   UNK N   1      27.934  15.557   4.268  0.00  0.00     0.036 C 
BRANCH  20  21
HETATM   21  C   UNK N   1      26.687  15.009   3.582  0.00  0.00     0.173 C 
BRANCH  21  22
HETATM   22  C   UNK N   1      25.508  15.116   4.511  0.00  0.00     0.163 C 
HETATM   23  O   UNK N   1      25.652  15.518   5.657  0.00  0.00    -0.648 OA
BRANCH  22  24
HETATM   24  O   UNK N   1      24.283  14.760   4.083  0.00  0.00    -0.775 OA
HETATM   25  H   UNK N   1      23.752  15.345   3.578  0.00  0.00     0.167 HD
ENDBRANCH  22  24
ENDBRANCH  21  22
BRANCH  21  26
HETATM   26  N   UNK N   1      26.449  15.777   2.368  0.00  0.00    -0.418 N 
HETATM   27  H   UNK N   1      25.524  15.843   1.943  0.00  0.00     0.150 HD
HETATM   28  H   UNK N   1      27.230  16.263   1.929  0.00  0.00     0.150 HD
ENDBRANCH  21  26
ENDBRANCH  20  21
ENDBRANCH  19  20
ENDBRANCH  18  19
ENDBRANCH   1  18
BRANCH   1  29
HETATM   29  O   UNK N   1      26.626  18.392   6.067  0.00  0.00    -0.350 OA
HETATM   30  H   UNK N   1      26.766  17.717   6.701  0.00  0.00     0.219 HD
ENDBRANCH   1  29
TORSDOF 11
ENDMDL
