REMARK  6 active torsions:
REMARK  status: ('A' for Active; 'I' for Inactive)
REMARK    1  A    between atoms: C_2  and  N_3 
REMARK       I    between atoms: N_3  and  C_4 
REMARK    2  A    between atoms: C_4  and  C_6 
REMARK    3  A    between atoms: C_7  and  C_9 
REMARK    4  A    between atoms: C_10  and  C_11 
REMARK    5  A    between atoms: C_12  and  C_14 
REMARK    6  A    between atoms: C_15  and  C_16 
ROOT
HETATM    1  C   UNK N   1       3.617   3.702  -0.265  0.00  0.00     0.007 C 
HETATM    2  C   UNK N   1       2.332   3.982   0.046  0.00  0.00    -0.062 C 
HETATM    3  C   UNK N   1       2.002   5.380   0.440  0.00  0.00     0.048 C 
ENDROOT
BRANCH   2   4
HETATM    4  C   UNK N   1       1.219   2.987   0.048  0.00  0.00     0.007 C 
HETATM    5  C   UNK N   1       1.425   1.668  -0.026  0.00  0.00     0.009 C 
BRANCH   5   6
HETATM    6  C   UNK N   1       0.363   0.621  -0.021  0.00  0.00    -0.048 C 
HETATM    7  C   UNK N   1       0.755  -0.682   0.046  0.00  0.00    -0.077 C 
HETATM    8  C   UNK N   1       2.208  -1.049   0.085  0.00  0.00     0.044 C 
HETATM    9  C   UNK N   1      -0.235  -1.816   0.119  0.00  0.00     0.034 C 
HETATM   10  C   UNK N   1      -1.585  -1.366   0.650  0.00  0.00     0.005 C 
HETATM   11  C   UNK N   1      -2.053  -0.208  -0.204  0.00  0.00     0.014 C 
HETATM   12  C   UNK N   1      -1.125   1.002  -0.058  0.00  0.00    -0.020 C 
HETATM   13  C   UNK N   1      -1.496   1.750   1.213  0.00  0.00     0.020 C 
HETATM   14  C   UNK N   1      -1.410   1.898  -1.250  0.00  0.00     0.020 C 
ENDBRANCH   5   6
ENDBRANCH   2   4
BRANCH   1  15
HETATM   15  C   UNK N   1       4.083   2.382  -0.740  0.00  0.00     0.001 C 
HETATM   16  C   UNK N   1       5.356   1.957  -0.785  0.00  0.00     0.007 C 
BRANCH  16  17
HETATM   17  C   UNK N   1       6.574   2.661  -0.318  0.00  0.00    -0.057 C 
HETATM   18  C   UNK N   1       7.734   1.982  -0.391  0.00  0.00     0.080 C 
HETATM   19  C   UNK N   1       6.503   4.037   0.273  0.00  0.00     0.048 C 
BRANCH  18  20
HETATM   20  C   UNK N   1       9.065   2.435   0.079  0.00  0.00     0.241 C 
HETATM   21  N   UNK N   1      10.127   1.609  -0.071  0.00  0.00    -0.358 N 
HETATM   22  H   UNK N   1       9.996   0.739  -0.514  0.00  0.00     0.162 HD
HETATM   23  O   UNK N   1       9.203   3.522   0.625  0.00  0.00    -0.269 OA
BRANCH  21  24
HETATM   24  C   UNK N   1      11.444   1.965   0.396  0.00  0.00     0.118 C 
HETATM   25  C   UNK N   1      12.410   0.835   0.107  0.00  0.00     0.026 C 
ENDBRANCH  21  24
ENDBRANCH  18  20
ENDBRANCH  16  17
ENDBRANCH   1  15
TORSDOF 6
