MODEL 1
REMARK VINA RESULT:      -6.3      0.000      0.000
REMARK  8 active torsions:
REMARK  status: ('A' for Active; 'I' for Inactive)
REMARK    1  A    between atoms: C_4  and  C_2 
REMARK    2  A    between atoms: O_16  and  C_2 
REMARK    3  A    between atoms: O_17  and  C_3 
REMARK    4  A    between atoms: C_5  and  O_18 
REMARK    5  A    between atoms: C_6  and  O_19 
REMARK    6  A    between atoms: C_7  and  O_20 
REMARK    7  A    between atoms: O_22  and  C_9 
REMARK    8  A    between atoms: N_13  and  N_15 
ROOT
HETATM    1  C   UNK N   1      33.366  15.856   7.255  0.00  0.00     0.180 C 
HETATM    2  C   UNK N   1      34.213  17.139   7.124  0.00  0.00     0.180 C 
HETATM    3  C   UNK N   1      34.263  17.831   8.479  0.00  0.00     0.183 C 
HETATM    4  C   UNK N   1      35.077  16.900   9.382  0.00  0.00     0.215 C 
HETATM    5  C   UNK N   1      35.493  14.356   9.248  0.00  0.00     0.305 A 
HETATM    6  C   UNK N   1      34.580  14.091  11.226  0.00  0.00     0.244 A 
HETATM    7  C   UNK N   1      34.468  15.458   9.414  0.00  0.00     0.251 A 
HETATM    8  N   UNK N   1      33.991  15.134  10.762  0.00  0.00    -0.313 N 
ATOM      9  HN  UNK N   1      33.282  15.667  11.267  1.00  0.00     0.166 HD
HETATM   10  N   UNK N   1      35.523  13.569  10.326  0.00  0.00    -0.180 N 
HETATM   11  O   UNK N   1      36.160  14.154   8.244  0.00  0.00    -0.265 OA
HETATM   12  O   UNK N   1      33.388  15.212   8.522  0.00  0.00    -0.340 OA
ENDROOT
BRANCH   4  13
HETATM   13  O   UNK N   1      35.197  17.448  10.664  0.00  0.00    -0.387 OA
HETATM   14  H   UNK N   1      34.434  17.462  11.262  0.00  0.00     0.210 HD
ENDBRANCH   4  13
BRANCH   3  15
HETATM   15  O   UNK N   1      34.911  19.065   8.368  0.00  0.00    -0.390 OA
HETATM   16  H   UNK N   1      35.518  19.484   7.739  0.00  0.00     0.210 HD
ENDBRANCH   3  15
BRANCH  10  17
HETATM   17  N   UNK N   1      36.223  12.372  10.373  0.00  0.00    -0.271 N 
HETATM   18  C   UNK N   1      37.315  12.154  11.026  0.00  0.00     0.126 C 
HETATM   19  C   UNK N   1      37.887  10.778  11.034  0.00  0.00     0.098 C 
ATOM     20  HN  UNK N   1      35.839  11.591   9.841  1.00  0.00     0.189 HD
BRANCH  18  21
HETATM   21  O   UNK N   1      37.977  13.134  11.664  0.00  0.00    -0.349 OA
HETATM   22  H   UNK N   1      38.097  13.993  11.307  0.00  0.00     0.219 HD
ENDBRANCH  18  21
ENDBRANCH  10  17
BRANCH   6  23
HETATM   23  O   UNK N   1      34.252  13.556  12.415  0.00  0.00    -0.331 OA
HETATM   24  H   UNK N   1      34.221  13.925  13.276  0.00  0.00     0.221 HD
ENDBRANCH   6  23
BRANCH   1  25
HETATM   25  C   UNK N   1      33.683  14.839   6.161  0.00  0.00     0.198 C 
BRANCH  25  26
HETATM   26  O   UNK N   1      34.920  15.103   5.573  0.00  0.00    -0.398 OA
HETATM   27  H   UNK N   1      35.164  16.002   5.299  0.00  0.00     0.209 HD
ENDBRANCH  25  26
ENDBRANCH   1  25
BRANCH   2  28
HETATM   28  O   UNK N   1      33.657  17.977   6.152  0.00  0.00    -0.390 OA
HETATM   29  H   UNK N   1      33.047  17.616   5.491  0.00  0.00     0.210 HD
ENDBRANCH   2  28
TORSDOF 8
ENDMDL
MODEL 2
REMARK VINA RESULT:      -6.1      2.119      5.673
REMARK  8 active torsions:
REMARK  status: ('A' for Active; 'I' for Inactive)
REMARK    1  A    between atoms: C_4  and  C_2 
REMARK    2  A    between atoms: O_16  and  C_2 
REMARK    3  A    between atoms: O_17  and  C_3 
REMARK    4  A    between atoms: C_5  and  O_18 
REMARK    5  A    between atoms: C_6  and  O_19 
REMARK    6  A    between atoms: C_7  and  O_20 
REMARK    7  A    between atoms: O_22  and  C_9 
REMARK    8  A    between atoms: N_13  and  N_15 
ROOT
HETATM    1  C   UNK N   1      37.209  14.779  10.599  0.00  0.00     0.180 C 
HETATM    2  C   UNK N   1      36.442  13.592  11.217  0.00  0.00     0.180 C 
HETATM    3  C   UNK N   1      35.173  14.119  11.873  0.00  0.00     0.183 C 
HETATM    4  C   UNK N   1      34.294  14.610  10.719  0.00  0.00     0.215 C 
HETATM    5  C   UNK N   1      34.914  15.409   8.344  0.00  0.00     0.305 A 
HETATM    6  C   UNK N   1      34.005  17.364   8.753  0.00  0.00     0.244 A 
HETATM    7  C   UNK N   1      35.047  15.658   9.833  0.00  0.00     0.251 A 
HETATM    8  N   UNK N   1      34.387  16.964   9.912  0.00  0.00    -0.313 N 
ATOM      9  HN  UNK N   1      34.249  17.489  10.776  1.00  0.00     0.166 HD
HETATM   10  N   UNK N   1      34.307  16.436   7.744  0.00  0.00    -0.180 N 
HETATM   11  O   UNK N   1      35.358  14.441   7.745  0.00  0.00    -0.265 OA
HETATM   12  O   UNK N   1      36.420  15.867  10.137  0.00  0.00    -0.340 OA
ENDROOT
BRANCH   4  13
HETATM   13  O   UNK N   1      33.083  15.111  11.210  0.00  0.00    -0.387 OA
HETATM   14  H   UNK N   1      33.080  15.842  11.847  0.00  0.00     0.210 HD
ENDBRANCH   4  13
BRANCH   3  15
HETATM   15  O   UNK N   1      34.519  13.090  12.558  0.00  0.00    -0.390 OA
HETATM   16  H   UNK N   1      34.392  12.137  12.436  0.00  0.00     0.210 HD
ENDBRANCH   3  15
BRANCH  10  17
HETATM   17  N   UNK N   1      34.226  16.569   6.366  0.00  0.00    -0.271 N 
HETATM   18  C   UNK N   1      33.168  16.873   5.691  0.00  0.00     0.126 C 
HETATM   19  C   UNK N   1      33.282  17.057   4.217  0.00  0.00     0.098 C 
ATOM     20  HN  UNK N   1      35.083  16.410   5.835  1.00  0.00     0.189 HD
BRANCH  18  21
HETATM   21  O   UNK N   1      31.960  16.987   6.266  0.00  0.00    -0.349 OA
HETATM   22  H   UNK N   1      31.165  17.099   5.782  0.00  0.00     0.219 HD
ENDBRANCH  18  21
ENDBRANCH  10  17
BRANCH   6  23
HETATM   23  O   UNK N   1      33.444  18.571   8.564  0.00  0.00    -0.331 OA
HETATM   24  H   UNK N   1      33.782  19.362   8.191  0.00  0.00     0.221 HD
ENDBRANCH   6  23
BRANCH   1  25
HETATM   25  C   UNK N   1      38.165  14.337   9.494  0.00  0.00     0.198 C 
BRANCH  25  26
HETATM   26  O   UNK N   1      37.806  13.087   8.988  0.00  0.00    -0.398 OA
HETATM   27  H   UNK N   1      38.451  12.529   8.525  0.00  0.00     0.209 HD
ENDBRANCH  25  26
ENDBRANCH   1  25
BRANCH   2  28
HETATM   28  O   UNK N   1      37.254  12.937  12.150  0.00  0.00    -0.390 OA
HETATM   29  H   UNK N   1      38.111  12.575  11.878  0.00  0.00     0.210 HD
ENDBRANCH   2  28
TORSDOF 8
ENDMDL
MODEL 3
REMARK VINA RESULT:      -5.9     13.712     15.887
REMARK  8 active torsions:
REMARK  status: ('A' for Active; 'I' for Inactive)
REMARK    1  A    between atoms: C_4  and  C_2 
REMARK    2  A    between atoms: O_16  and  C_2 
REMARK    3  A    between atoms: O_17  and  C_3 
REMARK    4  A    between atoms: C_5  and  O_18 
REMARK    5  A    between atoms: C_6  and  O_19 
REMARK    6  A    between atoms: C_7  and  O_20 
REMARK    7  A    between atoms: O_22  and  C_9 
REMARK    8  A    between atoms: N_13  and  N_15 
ROOT
HETATM    1  C   UNK N   1      20.729  18.149   2.151  0.00  0.00     0.180 C 
HETATM    2  C   UNK N   1      20.197  17.035   1.226  0.00  0.00     0.180 C 
HETATM    3  C   UNK N   1      21.110  15.823   1.346  0.00  0.00     0.183 C 
HETATM    4  C   UNK N   1      20.905  15.299   2.770  0.00  0.00     0.215 C 
HETATM    5  C   UNK N   1      20.109  16.496   4.914  0.00  0.00     0.305 A 
HETATM    6  C   UNK N   1      22.001  15.998   5.908  0.00  0.00     0.244 A 
HETATM    7  C   UNK N   1      21.169  16.415   3.835  0.00  0.00     0.251 A 
HETATM    8  N   UNK N   1      22.324  16.066   4.667  0.00  0.00    -0.313 N 
ATOM      9  HN  UNK N   1      23.265  15.900   4.308  1.00  0.00     0.166 HD
HETATM   10  N   UNK N   1      20.636  16.256   6.116  0.00  0.00    -0.180 N 
HETATM   11  O   UNK N   1      18.941  16.808   4.737  0.00  0.00    -0.265 OA
HETATM   12  O   UNK N   1      21.402  17.723   3.329  0.00  0.00    -0.340 OA
ENDROOT
BRANCH   4  13
HETATM   13  O   UNK N   1      21.697  14.165   2.990  0.00  0.00    -0.387 OA
HETATM   14  H   UNK N   1      21.518  13.344   2.507  0.00  0.00     0.210 HD
ENDBRANCH   4  13
BRANCH   3  15
HETATM   15  O   UNK N   1      20.736  14.842   0.424  0.00  0.00    -0.390 OA
HETATM   16  H   UNK N   1      21.140  14.046   0.044  0.00  0.00     0.210 HD
ENDBRANCH   3  15
BRANCH  10  17
HETATM   17  N   UNK N   1      19.943  16.453   7.302  0.00  0.00    -0.271 N 
HETATM   18  C   UNK N   1      19.896  17.550   7.981  0.00  0.00     0.126 C 
HETATM   19  C   UNK N   1      19.030  17.610   9.192  0.00  0.00     0.098 C 
ATOM     20  HN  UNK N   1      19.423  15.657   7.672  1.00  0.00     0.189 HD
BRANCH  18  21
HETATM   21  O   UNK N   1      20.634  18.626   7.659  0.00  0.00    -0.349 OA
HETATM   22  H   UNK N   1      21.201  19.063   8.264  0.00  0.00     0.219 HD
ENDBRANCH  18  21
ENDBRANCH  10  17
BRANCH   6  23
HETATM   23  O   UNK N   1      22.910  15.769   6.871  0.00  0.00    -0.331 OA
HETATM   24  H   UNK N   1      22.905  15.960   7.789  0.00  0.00     0.221 HD
ENDBRANCH   6  23
BRANCH   1  25
HETATM   25  C   UNK N   1      19.647  19.161   2.520  0.00  0.00     0.198 C 
BRANCH  25  26
HETATM   26  O   UNK N   1      18.373  18.612   2.368  0.00  0.00    -0.398 OA
HETATM   27  H   UNK N   1      18.178  17.990   1.649  0.00  0.00     0.209 HD
ENDBRANCH  25  26
ENDBRANCH   1  25
BRANCH   2  28
HETATM   28  O   UNK N   1      20.147  17.497  -0.093  0.00  0.00    -0.390 OA
HETATM   29  H   UNK N   1      19.816  18.388  -0.283  0.00  0.00     0.210 HD
ENDBRANCH   2  28
TORSDOF 8
ENDMDL
MODEL 4
REMARK VINA RESULT:      -5.7      2.483      5.823
REMARK  8 active torsions:
REMARK  status: ('A' for Active; 'I' for Inactive)
REMARK    1  A    between atoms: C_4  and  C_2 
REMARK    2  A    between atoms: O_16  and  C_2 
REMARK    3  A    between atoms: O_17  and  C_3 
REMARK    4  A    between atoms: C_5  and  O_18 
REMARK    5  A    between atoms: C_6  and  O_19 
REMARK    6  A    between atoms: C_7  and  O_20 
REMARK    7  A    between atoms: O_22  and  C_9 
REMARK    8  A    between atoms: N_13  and  N_15 
ROOT
HETATM    1  C   UNK N   1      35.141  13.281   9.555  0.00  0.00     0.180 C 
HETATM    2  C   UNK N   1      35.389  13.675  11.026  0.00  0.00     0.180 C 
HETATM    3  C   UNK N   1      36.122  15.009  11.056  0.00  0.00     0.183 C 
HETATM    4  C   UNK N   1      35.117  16.036  10.527  0.00  0.00     0.215 C 
HETATM    5  C   UNK N   1      33.069  15.756   8.982  0.00  0.00     0.305 A 
HETATM    6  C   UNK N   1      33.963  17.135   7.528  0.00  0.00     0.244 A 
HETATM    7  C   UNK N   1      34.572  15.630   9.117  0.00  0.00     0.251 A 
HETATM    8  N   UNK N   1      34.981  16.611   8.108  0.00  0.00    -0.313 N 
ATOM      9  HN  UNK N   1      35.950  16.846   7.892  1.00  0.00     0.166 HD
HETATM   10  N   UNK N   1      32.750  16.640   8.034  0.00  0.00    -0.180 N 
HETATM   11  O   UNK N   1      32.244  15.095   9.596  0.00  0.00    -0.265 OA
HETATM   12  O   UNK N   1      34.965  14.351   8.636  0.00  0.00    -0.340 OA
ENDROOT
BRANCH   4  13
HETATM   13  O   UNK N   1      35.687  17.315  10.522  0.00  0.00    -0.387 OA
HETATM   14  H   UNK N   1      36.632  17.429  10.706  0.00  0.00     0.210 HD
ENDBRANCH   4  13
BRANCH   3  15
HETATM   15  O   UNK N   1      36.482  15.333  12.367  0.00  0.00    -0.390 OA
HETATM   16  H   UNK N   1      37.216  15.124  12.965  0.00  0.00     0.210 HD
ENDBRANCH   3  15
BRANCH  10  17
HETATM   17  N   UNK N   1      31.457  16.813   7.562  0.00  0.00    -0.271 N 
HETATM   18  C   UNK N   1      30.563  17.598   8.062  0.00  0.00     0.126 C 
HETATM   19  C   UNK N   1      29.248  17.724   7.373  0.00  0.00     0.098 C 
ATOM     20  HN  UNK N   1      31.187  16.268   6.742  1.00  0.00     0.189 HD
BRANCH  18  21
HETATM   21  O   UNK N   1      30.761  18.273   9.207  0.00  0.00    -0.349 OA
HETATM   22  H   UNK N   1      31.465  18.879   9.334  0.00  0.00     0.219 HD
ENDBRANCH  18  21
ENDBRANCH  10  17
BRANCH   6  23
HETATM   23  O   UNK N   1      34.090  18.006   6.512  0.00  0.00    -0.331 OA
HETATM   24  H   UNK N   1      34.556  17.951   5.701  0.00  0.00     0.221 HD
ENDBRANCH   6  23
BRANCH   1  25
HETATM   25  C   UNK N   1      33.988  12.289   9.409  0.00  0.00     0.198 C 
BRANCH  25  26
HETATM   26  O   UNK N   1      33.755  11.609  10.605  0.00  0.00    -0.398 OA
HETATM   27  H   UNK N   1      34.453  11.083  11.026  0.00  0.00     0.209 HD
ENDBRANCH  25  26
ENDBRANCH   1  25
BRANCH   2  28
HETATM   28  O   UNK N   1      36.135  12.678  11.664  0.00  0.00    -0.390 OA
HETATM   29  H   UNK N   1      35.824  12.299  12.500  0.00  0.00     0.210 HD
ENDBRANCH   2  28
TORSDOF 8
ENDMDL
MODEL 5
REMARK VINA RESULT:      -5.5     12.689     14.799
REMARK  8 active torsions:
REMARK  status: ('A' for Active; 'I' for Inactive)
REMARK    1  A    between atoms: C_4  and  C_2 
REMARK    2  A    between atoms: O_16  and  C_2 
REMARK    3  A    between atoms: O_17  and  C_3 
REMARK    4  A    between atoms: C_5  and  O_18 
REMARK    5  A    between atoms: C_6  and  O_19 
REMARK    6  A    between atoms: C_7  and  O_20 
REMARK    7  A    between atoms: O_22  and  C_9 
REMARK    8  A    between atoms: N_13  and  N_15 
ROOT
HETATM    1  C   UNK N   1      23.653  18.354   3.602  0.00  0.00     0.180 C 
HETATM    2  C   UNK N   1      23.362  19.867   3.520  0.00  0.00     0.180 C 
HETATM    3  C   UNK N   1      22.036  20.070   2.800  0.00  0.00     0.183 C 
HETATM    4  C   UNK N   1      20.971  19.505   3.745  0.00  0.00     0.215 C 
HETATM    5  C   UNK N   1      21.136  17.727   5.608  0.00  0.00     0.305 A 
HETATM    6  C   UNK N   1      19.663  16.480   4.564  0.00  0.00     0.244 A 
HETATM    7  C   UNK N   1      21.277  18.019   4.128  0.00  0.00     0.251 A 
HETATM    8  N   UNK N   1      20.230  17.131   3.614  0.00  0.00    -0.313 N 
ATOM      9  HN  UNK N   1      19.983  17.041   2.628  1.00  0.00     0.166 HD
HETATM   10  N   UNK N   1      20.188  16.812   5.823  0.00  0.00    -0.180 N 
HETATM   11  O   UNK N   1      21.835  18.198   6.493  0.00  0.00    -0.265 OA
HETATM   12  O   UNK N   1      22.521  17.497   3.679  0.00  0.00    -0.340 OA
ENDROOT
BRANCH   4  13
HETATM   13  O   UNK N   1      19.697  19.651   3.183  0.00  0.00    -0.387 OA
HETATM   14  H   UNK N   1      19.007  20.139   3.659  0.00  0.00     0.210 HD
ENDBRANCH   4  13
BRANCH   3  15
HETATM   15  O   UNK N   1      21.804  21.432   2.590  0.00  0.00    -0.390 OA
HETATM   16  H   UNK N   1      22.319  22.251   2.662  0.00  0.00     0.210 HD
ENDBRANCH   3  15
BRANCH  10  17
HETATM   17  N   UNK N   1      19.978  16.213   7.056  0.00  0.00    -0.271 N 
HETATM   18  C   UNK N   1      20.811  15.452   7.684  0.00  0.00     0.126 C 
HETATM   19  C   UNK N   1      20.452  14.960   9.044  0.00  0.00     0.098 C 
ATOM     20  HN  UNK N   1      19.081  16.389   7.509  1.00  0.00     0.189 HD
BRANCH  18  21
HETATM   21  O   UNK N   1      21.970  15.053   7.136  0.00  0.00    -0.349 OA
HETATM   22  H   UNK N   1      22.111  14.191   6.794  0.00  0.00     0.219 HD
ENDBRANCH  18  21
ENDBRANCH  10  17
BRANCH   6  23
HETATM   23  O   UNK N   1      18.725  15.546   4.328  0.00  0.00    -0.331 OA
HETATM   24  H   UNK N   1      18.192  15.039   4.910  0.00  0.00     0.221 HD
ENDBRANCH   6  23
BRANCH   1  25
HETATM   25  C   UNK N   1      24.627  18.013   4.728  0.00  0.00     0.198 C 
BRANCH  25  26
HETATM   26  O   UNK N   1      24.736  19.067   5.635  0.00  0.00    -0.398 OA
HETATM   27  H   UNK N   1      24.359  19.939   5.437  0.00  0.00     0.209 HD
ENDBRANCH  25  26
ENDBRANCH   1  25
BRANCH   2  28
HETATM   28  O   UNK N   1      24.403  20.513   2.845  0.00  0.00    -0.390 OA
HETATM   29  H   UNK N   1      25.325  20.296   3.053  0.00  0.00     0.210 HD
ENDBRANCH   2  28
TORSDOF 8
ENDMDL
MODEL 6
REMARK VINA RESULT:      -5.5      4.002      6.763
REMARK  8 active torsions:
REMARK  status: ('A' for Active; 'I' for Inactive)
REMARK    1  A    between atoms: C_4  and  C_2 
REMARK    2  A    between atoms: O_16  and  C_2 
REMARK    3  A    between atoms: O_17  and  C_3 
REMARK    4  A    between atoms: C_5  and  O_18 
REMARK    5  A    between atoms: C_6  and  O_19 
REMARK    6  A    between atoms: C_7  and  O_20 
REMARK    7  A    between atoms: O_22  and  C_9 
REMARK    8  A    between atoms: N_13  and  N_15 
ROOT
HETATM    1  C   UNK N   1      34.061  16.717   7.817  0.00  0.00     0.180 C 
HETATM    2  C   UNK N   1      34.178  15.268   8.333  0.00  0.00     0.180 C 
HETATM    3  C   UNK N   1      33.466  15.170   9.675  0.00  0.00     0.183 C 
HETATM    4  C   UNK N   1      31.980  15.369   9.363  0.00  0.00     0.215 C 
HETATM    5  C   UNK N   1      30.813  16.571   7.400  0.00  0.00     0.305 A 
HETATM    6  C   UNK N   1      29.834  17.942   8.807  0.00  0.00     0.244 A 
HETATM    7  C   UNK N   1      31.732  16.711   8.596  0.00  0.00     0.251 A 
HETATM    8  N   UNK N   1      30.922  17.623   9.409  0.00  0.00    -0.313 N 
ATOM      9  HN  UNK N   1      31.189  17.963  10.333  1.00  0.00     0.166 HD
HETATM   10  N   UNK N   1      29.715  17.315   7.556  0.00  0.00    -0.180 N 
HETATM   11  O   UNK N   1      31.057  15.929   6.389  0.00  0.00    -0.265 OA
HETATM   12  O   UNK N   1      32.892  17.429   8.195  0.00  0.00    -0.340 OA
ENDROOT
BRANCH   4  13
HETATM   13  O   UNK N   1      31.221  15.286  10.536  0.00  0.00    -0.387 OA
HETATM   14  H   UNK N   1      31.528  15.721  11.347  0.00  0.00     0.210 HD
ENDBRANCH   4  13
BRANCH   3  15
HETATM   15  O   UNK N   1      33.664  13.905  10.236  0.00  0.00    -0.390 OA
HETATM   16  H   UNK N   1      33.927  13.555  11.102  0.00  0.00     0.210 HD
ENDBRANCH   3  15
BRANCH  10  17
HETATM   17  N   UNK N   1      28.796  17.534   6.540  0.00  0.00    -0.271 N 
HETATM   18  C   UNK N   1      27.548  17.204   6.559  0.00  0.00     0.126 C 
HETATM   19  C   UNK N   1      26.683  17.593   5.410  0.00  0.00     0.098 C 
ATOM     20  HN  UNK N   1      29.138  17.998   5.698  1.00  0.00     0.189 HD
BRANCH  18  21
HETATM   21  O   UNK N   1      27.012  16.483   7.559  0.00  0.00    -0.349 OA
HETATM   22  H   UNK N   1      26.553  15.677   7.426  0.00  0.00     0.219 HD
ENDBRANCH  18  21
ENDBRANCH  10  17
BRANCH   6  23
HETATM   23  O   UNK N   1      28.966  18.829   9.323  0.00  0.00    -0.331 OA
HETATM   24  H   UNK N   1      28.029  18.859   9.317  0.00  0.00     0.221 HD
ENDBRANCH   6  23
BRANCH   1  25
HETATM   25  C   UNK N   1      34.246  16.808   6.303  0.00  0.00     0.198 C 
BRANCH  25  26
HETATM   26  O   UNK N   1      33.576  17.915   5.781  0.00  0.00    -0.398 OA
HETATM   27  H   UNK N   1      32.669  17.839   5.445  0.00  0.00     0.209 HD
ENDBRANCH  25  26
ENDBRANCH   1  25
BRANCH   2  28
HETATM   28  O   UNK N   1      35.526  14.914   8.452  0.00  0.00    -0.390 OA
HETATM   29  H   UNK N   1      35.979  15.009   9.304  0.00  0.00     0.210 HD
ENDBRANCH   2  28
TORSDOF 8
ENDMDL
MODEL 7
REMARK VINA RESULT:      -5.5      2.177      6.486
REMARK  8 active torsions:
REMARK  status: ('A' for Active; 'I' for Inactive)
REMARK    1  A    between atoms: C_4  and  C_2 
REMARK    2  A    between atoms: O_16  and  C_2 
REMARK    3  A    between atoms: O_17  and  C_3 
REMARK    4  A    between atoms: C_5  and  O_18 
REMARK    5  A    between atoms: C_6  and  O_19 
REMARK    6  A    between atoms: C_7  and  O_20 
REMARK    7  A    between atoms: O_22  and  C_9 
REMARK    8  A    between atoms: N_13  and  N_15 
ROOT
HETATM    1  C   UNK N   1      36.116  13.612  13.854  0.00  0.00     0.180 C 
HETATM    2  C   UNK N   1      37.260  12.732  13.310  0.00  0.00     0.180 C 
HETATM    3  C   UNK N   1      36.694  11.795  12.253  0.00  0.00     0.183 C 
HETATM    4  C   UNK N   1      36.290  12.698  11.084  0.00  0.00     0.215 C 
HETATM    5  C   UNK N   1      35.657  15.199  11.022  0.00  0.00     0.305 A 
HETATM    6  C   UNK N   1      33.682  14.691  10.211  0.00  0.00     0.244 A 
HETATM    7  C   UNK N   1      35.304  13.822  11.545  0.00  0.00     0.251 A 
HETATM    8  N   UNK N   1      33.998  13.655  10.900  0.00  0.00    -0.313 N 
ATOM      9  HN  UNK N   1      33.414  12.823  10.988  1.00  0.00     0.166 HD
HETATM   10  N   UNK N   1      34.678  15.680  10.252  0.00  0.00    -0.180 N 
HETATM   11  O   UNK N   1      36.663  15.830  11.311  0.00  0.00    -0.265 OA
HETATM   12  O   UNK N   1      35.067  13.916  12.944  0.00  0.00    -0.340 OA
ENDROOT
BRANCH   4  13
HETATM   13  O   UNK N   1      35.761  11.932  10.039  0.00  0.00    -0.387 OA
HETATM   14  H   UNK N   1      35.296  11.102  10.228  0.00  0.00     0.210 HD
ENDBRANCH   4  13
BRANCH   3  15
HETATM   15  O   UNK N   1      37.675  10.891  11.833  0.00  0.00    -0.390 OA
HETATM   16  H   UNK N   1      38.252  10.236  12.255  0.00  0.00     0.210 HD
ENDBRANCH   3  15
BRANCH  10  17
HETATM   17  N   UNK N   1      34.644  16.991   9.800  0.00  0.00    -0.271 N 
HETATM   18  C   UNK N   1      34.522  17.369   8.571  0.00  0.00     0.126 C 
HETATM   19  C   UNK N   1      34.417  18.825   8.273  0.00  0.00     0.098 C 
ATOM     20  HN  UNK N   1      34.723  17.726  10.503  1.00  0.00     0.189 HD
BRANCH  18  21
HETATM   21  O   UNK N   1      34.530  16.498   7.549  0.00  0.00    -0.349 OA
HETATM   22  H   UNK N   1      35.091  16.582   6.802  0.00  0.00     0.219 HD
ENDBRANCH  18  21
ENDBRANCH  10  17
BRANCH   6  23
HETATM   23  O   UNK N   1      32.494  14.802   9.592  0.00  0.00    -0.331 OA
HETATM   24  H   UNK N   1      32.235  14.629   8.708  0.00  0.00     0.221 HD
ENDBRANCH   6  23
BRANCH   1  25
HETATM   25  C   UNK N   1      36.631  14.903  14.487  0.00  0.00     0.198 C 
BRANCH  25  26
HETATM   26  O   UNK N   1      37.577  14.635  15.477  0.00  0.00    -0.398 OA
HETATM   27  H   UNK N   1      37.370  14.762  16.416  0.00  0.00     0.209 HD
ENDBRANCH  25  26
ENDBRANCH   1  25
BRANCH   2  28
HETATM   28  O   UNK N   1      37.844  12.012  14.359  0.00  0.00    -0.390 OA
HETATM   29  H   UNK N   1      37.433  11.192  14.672  0.00  0.00     0.210 HD
ENDBRANCH   2  28
TORSDOF 8
ENDMDL
MODEL 8
REMARK VINA RESULT:      -5.4      2.099      5.835
REMARK  8 active torsions:
REMARK  status: ('A' for Active; 'I' for Inactive)
REMARK    1  A    between atoms: C_4  and  C_2 
REMARK    2  A    between atoms: O_16  and  C_2 
REMARK    3  A    between atoms: O_17  and  C_3 
REMARK    4  A    between atoms: C_5  and  O_18 
REMARK    5  A    between atoms: C_6  and  O_19 
REMARK    6  A    between atoms: C_7  and  O_20 
REMARK    7  A    between atoms: O_22  and  C_9 
REMARK    8  A    between atoms: N_13  and  N_15 
ROOT
HETATM    1  C   UNK N   1      36.075  13.267  11.242  0.00  0.00     0.180 C 
HETATM    2  C   UNK N   1      37.409  13.766  10.649  0.00  0.00     0.180 C 
HETATM    3  C   UNK N   1      37.427  13.454   9.159  0.00  0.00     0.183 C 
HETATM    4  C   UNK N   1      36.350  14.351   8.543  0.00  0.00     0.215 C 
HETATM    5  C   UNK N   1      34.244  15.420   9.582  0.00  0.00     0.305 A 
HETATM    6  C   UNK N   1      32.977  14.349   8.146  0.00  0.00     0.244 A 
HETATM    7  C   UNK N   1      34.962  14.133   9.232  0.00  0.00     0.251 A 
HETATM    8  N   UNK N   1      33.997  13.580   8.277  0.00  0.00    -0.313 N 
ATOM      9  HN  UNK N   1      34.119  12.697   7.780  1.00  0.00     0.166 HD
HETATM   10  N   UNK N   1      33.080  15.506   8.934  0.00  0.00    -0.180 N 
HETATM   11  O   UNK N   1      34.626  16.245  10.399  0.00  0.00    -0.265 OA
HETATM   12  O   UNK N   1      34.952  13.284  10.372  0.00  0.00    -0.340 OA
ENDROOT
BRANCH   4  13
HETATM   13  O   UNK N   1      36.286  14.153   7.159  0.00  0.00    -0.387 OA
HETATM   14  H   UNK N   1      35.596  13.589   6.778  0.00  0.00     0.210 HD
ENDBRANCH   4  13
BRANCH   3  15
HETATM   15  O   UNK N   1      38.674  13.772   8.614  0.00  0.00    -0.390 OA
HETATM   16  H   UNK N   1      39.232  13.435   7.896  0.00  0.00     0.210 HD
ENDBRANCH   3  15
BRANCH  10  17
HETATM   17  N   UNK N   1      32.128  16.477   9.209  0.00  0.00    -0.271 N 
HETATM   18  C   UNK N   1      31.778  17.443   8.427  0.00  0.00     0.126 C 
HETATM   19  C   UNK N   1      30.673  18.349   8.851  0.00  0.00     0.098 C 
ATOM     20  HN  UNK N   1      31.661  16.424  10.115  1.00  0.00     0.189 HD
BRANCH  18  21
HETATM   21  O   UNK N   1      32.405  17.687   7.264  0.00  0.00    -0.349 OA
HETATM   22  H   UNK N   1      32.182  17.262   6.458  0.00  0.00     0.219 HD
ENDBRANCH  18  21
ENDBRANCH  10  17
BRANCH   6  23
HETATM   23  O   UNK N   1      31.923  14.013   7.382  0.00  0.00    -0.331 OA
HETATM   24  H   UNK N   1      31.090  14.424   7.256  0.00  0.00     0.221 HD
ENDBRANCH   6  23
BRANCH   1  25
HETATM   25  C   UNK N   1      35.719  13.978  12.546  0.00  0.00     0.198 C 
BRANCH  25  26
HETATM   26  O   UNK N   1      36.418  15.180  12.670  0.00  0.00    -0.398 OA
HETATM   27  H   UNK N   1      37.345  15.251  12.394  0.00  0.00     0.209 HD
ENDBRANCH  25  26
ENDBRANCH   1  25
BRANCH   2  28
HETATM   28  O   UNK N   1      38.479  13.149  11.305  0.00  0.00    -0.390 OA
HETATM   29  H   UNK N   1      39.348  13.103  10.879  0.00  0.00     0.210 HD
ENDBRANCH   2  28
TORSDOF 8
ENDMDL
MODEL 9
REMARK VINA RESULT:      -5.3     13.587     16.110
REMARK  8 active torsions:
REMARK  status: ('A' for Active; 'I' for Inactive)
REMARK    1  A    between atoms: C_4  and  C_2 
REMARK    2  A    between atoms: O_16  and  C_2 
REMARK    3  A    between atoms: O_17  and  C_3 
REMARK    4  A    between atoms: C_5  and  O_18 
REMARK    5  A    between atoms: C_6  and  O_19 
REMARK    6  A    between atoms: C_7  and  O_20 
REMARK    7  A    between atoms: O_22  and  C_9 
REMARK    8  A    between atoms: N_13  and  N_15 
ROOT
HETATM    1  C   UNK N   1      19.540  15.930   3.914  0.00  0.00     0.180 C 
HETATM    2  C   UNK N   1      19.641  15.134   2.597  0.00  0.00     0.180 C 
HETATM    3  C   UNK N   1      19.327  16.068   1.437  0.00  0.00     0.183 C 
HETATM    4  C   UNK N   1      20.487  17.067   1.395  0.00  0.00     0.215 C 
HETATM    5  C   UNK N   1      22.112  17.849   3.242  0.00  0.00     0.305 A 
HETATM    6  C   UNK N   1      21.430  19.919   2.981  0.00  0.00     0.244 A 
HETATM    7  C   UNK N   1      20.673  17.786   2.772  0.00  0.00     0.251 A 
HETATM    8  N   UNK N   1      20.407  19.222   2.641  0.00  0.00    -0.313 N 
ATOM      9  HN  UNK N   1      19.522  19.618   2.322  1.00  0.00     0.166 HD
HETATM   10  N   UNK N   1      22.517  19.115   3.362  0.00  0.00    -0.180 N 
HETATM   11  O   UNK N   1      22.801  16.886   3.544  0.00  0.00    -0.265 OA
HETATM   12  O   UNK N   1      19.867  17.311   3.843  0.00  0.00    -0.340 OA
ENDROOT
BRANCH   4  13
HETATM   13  O   UNK N   1      20.307  17.977   0.347  0.00  0.00    -0.387 OA
HETATM   14  H   UNK N   1      19.453  18.034  -0.109  0.00  0.00     0.210 HD
ENDBRANCH   4  13
BRANCH   3  15
HETATM   15  O   UNK N   1      19.279  15.351   0.238  0.00  0.00    -0.390 OA
HETATM   16  H   UNK N   1      19.491  15.526  -0.692  0.00  0.00     0.210 HD
ENDBRANCH   3  15
BRANCH  10  17
HETATM   17  N   UNK N   1      23.718  19.475   3.956  0.00  0.00    -0.271 N 
HETATM   18  C   UNK N   1      24.605  20.270   3.459  0.00  0.00     0.126 C 
HETATM   19  C   UNK N   1      25.803  20.613   4.276  0.00  0.00     0.098 C 
ATOM     20  HN  UNK N   1      23.920  19.072   4.871  1.00  0.00     0.189 HD
BRANCH  18  21
HETATM   21  O   UNK N   1      24.507  20.765   2.214  0.00  0.00    -0.349 OA
HETATM   22  H   UNK N   1      23.992  20.368   1.539  0.00  0.00     0.219 HD
ENDBRANCH  18  21
ENDBRANCH  10  17
BRANCH   6  23
HETATM   23  O   UNK N   1      21.399  21.262   3.016  0.00  0.00    -0.331 OA
HETATM   24  H   UNK N   1      20.854  21.859   3.491  0.00  0.00     0.221 HD
ENDBRANCH   6  23
BRANCH   1  25
HETATM   25  C   UNK N   1      20.331  15.277   5.047  0.00  0.00     0.198 C 
BRANCH  25  26
HETATM   26  O   UNK N   1      19.498  14.951   6.118  0.00  0.00    -0.398 OA
HETATM   27  H   UNK N   1      18.554  14.771   5.982  0.00  0.00     0.209 HD
ENDBRANCH  25  26
ENDBRANCH   1  25
BRANCH   2  28
HETATM   28  O   UNK N   1      18.752  14.054   2.627  0.00  0.00    -0.390 OA
HETATM   29  H   UNK N   1      18.197  13.903   3.407  0.00  0.00     0.210 HD
ENDBRANCH   2  28
TORSDOF 8
ENDMDL
