REMARK  6 active torsions:
REMARK  status: ('A' for Active; 'I' for Inactive)
REMARK    1  A    between atoms: N_2  and  C_5 
REMARK    2  A    between atoms: C_5  and  C_6 
REMARK    3  A    between atoms: C_6  and  O_7 
REMARK    4  A    between atoms: O_7  and  P_8 
REMARK    5  A    between atoms: P_8  and  O_9 
REMARK    6  A    between atoms: P_8  and  O_10 
ROOT
HETATM    1  O   UNK N   1       5.226  -1.880   0.392  0.00  0.00    -0.295 OA
ENDROOT
BRANCH   1   2
HETATM    2  C   UNK N   1       4.029  -1.806  -0.328  0.00  0.00     0.208 C 
BRANCH   2   3
HETATM    3  C   UNK N   1       2.878  -1.565   0.650  0.00  0.00     0.262 C 
BRANCH   3   4
HETATM    4  N   UNK N   1       1.623  -1.197  -0.012  0.00  0.00    -0.077 N 
HETATM    5  C   UNK N   1       0.615  -0.996   1.015  0.00  0.00     0.271 C 
HETATM    6  C   UNK N   1       1.163  -2.250  -0.902  0.00  0.00     0.271 C 
HETATM    7  C   UNK N   1       1.770   0.046  -0.752  0.00  0.00     0.271 C 
ENDBRANCH   3   4
ENDBRANCH   2   3
ENDBRANCH   1   2
BRANCH   1   8
HETATM    8  P   UNK N   1       6.428  -1.146  -0.629  0.00  0.00     0.390 P 
HETATM    9  O   UNK N   1       6.176  -0.016   0.406  0.00  0.00    -0.632 OA
BRANCH   8  10
HETATM   10  O   UNK N   1       8.021  -0.831  -0.015  0.00  0.00    -0.307 OA
HETATM   11  H   UNK N   1       8.618  -1.513   0.329  0.00  0.00     0.222 HD
ENDBRANCH   8  10
BRANCH   8  12
HETATM   12  O   UNK N   1       7.079  -2.541   0.176  0.00  0.00    -0.307 OA
HETATM   13  H   UNK N   1       6.586  -3.245   0.625  0.00  0.00     0.222 HD
ENDBRANCH   8  12
ENDBRANCH   1   8
TORSDOF 6
