MODEL 1
REMARK VINA RESULT:      -4.3      0.000      0.000
REMARK  2 active torsions:
REMARK  status: ('A' for Active; 'I' for Inactive)
REMARK    1  A    between atoms: C_5  and  O_7 
REMARK    2  A    between atoms: C_6  and  O_8 
ROOT
HETATM    1  C   UNK N   1      23.050  11.720  12.844  0.00  0.00     0.042 C 
HETATM    2  C   UNK N   1      24.161  12.869   9.363  0.00  0.00     0.039 C 
HETATM    3  C   UNK N   1      22.917  12.372   8.638  0.00  0.00     0.063 C 
HETATM    4  C   UNK N   1      22.973  12.409  11.493  0.00  0.00     0.149 C 
HETATM    5  C   UNK N   1      24.267  12.160  10.704  0.00  0.00     0.147 C 
HETATM    6  C   UNK N   1      21.680  12.513   9.534  0.00  0.00     0.257 C 
HETATM    7  O   UNK N   1      21.853  11.882  10.792  0.00  0.00    -0.354 OA
ENDROOT
BRANCH   5   8
HETATM    8  O   UNK N   1      25.372  12.657  11.401  0.00  0.00    -0.393 OA
HETATM    9  H   UNK N   1      25.423  13.401  12.021  0.00  0.00     0.210 HD
ENDBRANCH   5   8
BRANCH   6  10
HETATM   10  O   UNK N   1      21.322  13.856   9.691  0.00  0.00    -0.371 OA
HETATM   11  H   UNK N   1      21.265  14.728   9.270  0.00  0.00     0.212 HD
ENDBRANCH   6  10
TORSDOF 2
ENDMDL
MODEL 2
REMARK VINA RESULT:      -4.0      9.607     10.931
REMARK  2 active torsions:
REMARK  status: ('A' for Active; 'I' for Inactive)
REMARK    1  A    between atoms: C_5  and  O_7 
REMARK    2  A    between atoms: C_6  and  O_8 
ROOT
HETATM    1  C   UNK N   1      24.475  20.533   3.426  0.00  0.00     0.042 C 
HETATM    2  C   UNK N   1      21.164  18.639   3.076  0.00  0.00     0.039 C 
HETATM    3  C   UNK N   1      20.305  19.879   2.863  0.00  0.00     0.063 C 
HETATM    4  C   UNK N   1      23.151  20.104   2.818  0.00  0.00     0.149 C 
HETATM    5  C   UNK N   1      22.479  19.054   3.717  0.00  0.00     0.147 C 
HETATM    6  C   UNK N   1      21.084  20.946   2.085  0.00  0.00     0.257 C 
HETATM    7  O   UNK N   1      22.327  21.256   2.695  0.00  0.00    -0.354 OA
ENDROOT
BRANCH   5   8
HETATM    8  O   UNK N   1      23.297  17.930   3.858  0.00  0.00    -0.393 OA
HETATM    9  H   UNK N   1      23.400  17.337   4.619  0.00  0.00     0.210 HD
ENDBRANCH   5   8
BRANCH   6  10
HETATM   10  O   UNK N   1      21.261  20.569   0.750  0.00  0.00    -0.371 OA
HETATM   11  H   UNK N   1      20.851  20.174  -0.036  0.00  0.00     0.212 HD
ENDBRANCH   6  10
TORSDOF 2
ENDMDL
MODEL 3
REMARK VINA RESULT:      -4.0      1.609      2.591
REMARK  2 active torsions:
REMARK  status: ('A' for Active; 'I' for Inactive)
REMARK    1  A    between atoms: C_5  and  O_7 
REMARK    2  A    between atoms: C_6  and  O_8 
ROOT
HETATM    1  C   UNK N   1      24.676  12.336  10.158  0.00  0.00     0.042 C 
HETATM    2  C   UNK N   1      20.941  12.424  11.002  0.00  0.00     0.039 C 
HETATM    3  C   UNK N   1      20.599  13.561  10.048  0.00  0.00     0.063 C 
HETATM    4  C   UNK N   1      23.176  12.336   9.925  0.00  0.00     0.149 C 
HETATM    5  C   UNK N   1      22.438  12.437  11.269  0.00  0.00     0.147 C 
HETATM    6  C   UNK N   1      21.472  13.488   8.790  0.00  0.00     0.257 C 
HETATM    7  O   UNK N   1      22.856  13.446   9.097  0.00  0.00    -0.354 OA
ENDROOT
BRANCH   5   8
HETATM    8  O   UNK N   1      22.767  11.358  12.095  0.00  0.00    -0.393 OA
HETATM    9  H   UNK N   1      22.410  10.455  12.097  0.00  0.00     0.210 HD
ENDBRANCH   5   8
BRANCH   6  10
HETATM   10  O   UNK N   1      21.104  12.406   7.983  0.00  0.00    -0.371 OA
HETATM   11  H   UNK N   1      20.524  11.635   7.886  0.00  0.00     0.212 HD
ENDBRANCH   6  10
TORSDOF 2
ENDMDL
MODEL 4
REMARK VINA RESULT:      -3.9     10.652     12.408
REMARK  2 active torsions:
REMARK  status: ('A' for Active; 'I' for Inactive)
REMARK    1  A    between atoms: C_5  and  O_7 
REMARK    2  A    between atoms: C_6  and  O_8 
ROOT
HETATM    1  C   UNK N   1      33.410  17.149   4.791  0.00  0.00     0.042 C 
HETATM    2  C   UNK N   1      32.206  17.539   8.406  0.00  0.00     0.039 C 
HETATM    3  C   UNK N   1      33.545  17.198   9.047  0.00  0.00     0.063 C 
HETATM    4  C   UNK N   1      33.394  17.636   6.230  0.00  0.00     0.149 C 
HETATM    5  C   UNK N   1      32.198  17.024   6.976  0.00  0.00     0.147 C 
HETATM    6  C   UNK N   1      34.702  17.707   8.180  0.00  0.00     0.257 C 
HETATM    7  O   UNK N   1      34.616  17.244   6.842  0.00  0.00    -0.354 OA
ENDROOT
BRANCH   5   8
HETATM    8  O   UNK N   1      30.996  17.390   6.362  0.00  0.00    -0.393 OA
HETATM    9  H   UNK N   1      30.506  16.940   5.655  0.00  0.00     0.210 HD
ENDBRANCH   5   8
BRANCH   6  10
HETATM   10  O   UNK N   1      34.787  19.103   8.223  0.00  0.00    -0.371 OA
HETATM   11  H   UNK N   1      34.846  19.922   7.707  0.00  0.00     0.212 HD
ENDBRANCH   6  10
TORSDOF 2
ENDMDL
MODEL 5
REMARK VINA RESULT:      -3.8      8.671     10.190
REMARK  2 active torsions:
REMARK  status: ('A' for Active; 'I' for Inactive)
REMARK    1  A    between atoms: C_5  and  O_7 
REMARK    2  A    between atoms: C_6  and  O_8 
ROOT
HETATM    1  C   UNK N   1      24.808  20.555   2.693  0.00  0.00     0.042 C 
HETATM    2  C   UNK N   1      21.264  19.525   3.716  0.00  0.00     0.039 C 
HETATM    3  C   UNK N   1      21.578  18.042   3.867  0.00  0.00     0.063 C 
HETATM    4  C   UNK N   1      23.708  19.911   3.517  0.00  0.00     0.149 C 
HETATM    5  C   UNK N   1      22.343  20.172   2.862  0.00  0.00     0.147 C 
HETATM    6  C   UNK N   1      23.007  17.844   4.387  0.00  0.00     0.257 C 
HETATM    7  O   UNK N   1      23.967  18.515   3.587  0.00  0.00    -0.354 OA
ENDROOT
BRANCH   5   8
HETATM    8  O   UNK N   1      22.095  21.545   2.772  0.00  0.00    -0.393 OA
HETATM    9  H   UNK N   1      21.348  22.009   2.361  0.00  0.00     0.210 HD
ENDBRANCH   5   8
BRANCH   6  10
HETATM   10  O   UNK N   1      23.113  18.229   5.727  0.00  0.00    -0.371 OA
HETATM   11  H   UNK N   1      23.138  17.933   6.651  0.00  0.00     0.212 HD
ENDBRANCH   6  10
TORSDOF 2
ENDMDL
MODEL 6
REMARK VINA RESULT:      -3.8     10.700     12.055
REMARK  2 active torsions:
REMARK  status: ('A' for Active; 'I' for Inactive)
REMARK    1  A    between atoms: C_5  and  O_7 
REMARK    2  A    between atoms: C_6  and  O_8 
ROOT
HETATM    1  C   UNK N   1      35.639  16.140  10.448  0.00  0.00     0.042 C 
HETATM    2  C   UNK N   1      32.558  16.175   8.174  0.00  0.00     0.039 C 
HETATM    3  C   UNK N   1      32.493  17.690   8.034  0.00  0.00     0.063 C 
HETATM    4  C   UNK N   1      34.776  16.477   9.245  0.00  0.00     0.149 C 
HETATM    5  C   UNK N   1      33.392  15.827   9.397  0.00  0.00     0.147 C 
HETATM    6  C   UNK N   1      33.903  18.291   8.036  0.00  0.00     0.257 C 
HETATM    7  O   UNK N   1      34.657  17.891   9.169  0.00  0.00    -0.354 OA
ENDROOT
BRANCH   5   8
HETATM    8  O   UNK N   1      33.508  14.438   9.495  0.00  0.00    -0.393 OA
HETATM    9  H   UNK N   1      32.877  13.749   9.233  0.00  0.00     0.210 HD
ENDBRANCH   5   8
BRANCH   6  10
HETATM   10  O   UNK N   1      34.581  17.990   6.850  0.00  0.00    -0.371 OA
HETATM   11  H   UNK N   1      35.214  17.399   6.412  0.00  0.00     0.212 HD
ENDBRANCH   6  10
TORSDOF 2
ENDMDL
MODEL 7
REMARK VINA RESULT:      -3.7      1.400      3.726
REMARK  2 active torsions:
REMARK  status: ('A' for Active; 'I' for Inactive)
REMARK    1  A    between atoms: C_5  and  O_7 
REMARK    2  A    between atoms: C_6  and  O_8 
ROOT
HETATM    1  C   UNK N   1      23.102  11.667   7.010  0.00  0.00     0.042 C 
HETATM    2  C   UNK N   1      22.098  12.916  10.488  0.00  0.00     0.039 C 
HETATM    3  C   UNK N   1      23.232  12.221  11.230  0.00  0.00     0.063 C 
HETATM    4  C   UNK N   1      23.253  12.313   8.376  0.00  0.00     0.149 C 
HETATM    5  C   UNK N   1      21.916  12.254   9.132  0.00  0.00     0.147 C 
HETATM    6  C   UNK N   1      24.497  12.183  10.364  0.00  0.00     0.257 C 
HETATM    7  O   UNK N   1      24.260  11.607   9.090  0.00  0.00    -0.354 OA
ENDROOT
BRANCH   5   8
HETATM    8  O   UNK N   1      20.919  12.928   8.421  0.00  0.00    -0.393 OA
HETATM    9  H   UNK N   1      19.975  12.718   8.338  0.00  0.00     0.210 HD
ENDBRANCH   5   8
BRANCH   6  10
HETATM   10  O   UNK N   1      25.063  13.457  10.242  0.00  0.00    -0.371 OA
HETATM   11  H   UNK N   1      25.312  14.274  10.701  0.00  0.00     0.212 HD
ENDBRANCH   6  10
TORSDOF 2
ENDMDL
MODEL 8
REMARK VINA RESULT:      -3.7     21.726     23.353
REMARK  2 active torsions:
REMARK  status: ('A' for Active; 'I' for Inactive)
REMARK    1  A    between atoms: C_5  and  O_7 
REMARK    2  A    between atoms: C_6  and  O_8 
ROOT
HETATM    1  C   UNK N   1      40.681  21.823   1.754  0.00  0.00     0.042 C 
HETATM    2  C   UNK N   1      43.785  20.947   3.821  0.00  0.00     0.039 C 
HETATM    3  C   UNK N   1      44.686  22.000   3.190  0.00  0.00     0.063 C 
HETATM    4  C   UNK N   1      41.881  22.037   2.660  0.00  0.00     0.149 C 
HETATM    5  C   UNK N   1      42.598  20.700   2.904  0.00  0.00     0.147 C 
HETATM    6  C   UNK N   1      43.881  23.256   2.836  0.00  0.00     0.257 C 
HETATM    7  O   UNK N   1      42.754  22.962   2.026  0.00  0.00    -0.354 OA
ENDROOT
BRANCH   5   8
HETATM    8  O   UNK N   1      41.734  19.780   3.507  0.00  0.00    -0.393 OA
HETATM    9  H   UNK N   1      41.906  18.867   3.785  0.00  0.00     0.210 HD
ENDBRANCH   5   8
BRANCH   6  10
HETATM   10  O   UNK N   1      43.503  23.953   3.989  0.00  0.00    -0.371 OA
HETATM   11  H   UNK N   1      43.492  24.809   4.444  0.00  0.00     0.212 HD
ENDBRANCH   6  10
TORSDOF 2
ENDMDL
MODEL 9
REMARK VINA RESULT:      -3.6      8.749      9.710
REMARK  2 active torsions:
REMARK  status: ('A' for Active; 'I' for Inactive)
REMARK    1  A    between atoms: C_5  and  O_7 
REMARK    2  A    between atoms: C_6  and  O_8 
ROOT
HETATM    1  C   UNK N   1      28.913  17.597   6.434  0.00  0.00     0.042 C 
HETATM    2  C   UNK N   1      26.780  20.737   6.943  0.00  0.00     0.039 C 
HETATM    3  C   UNK N   1      27.064  21.335   5.571  0.00  0.00     0.063 C 
HETATM    4  C   UNK N   1      27.862  18.653   6.140  0.00  0.00     0.149 C 
HETATM    5  C   UNK N   1      27.848  19.703   7.262  0.00  0.00     0.147 C 
HETATM    6  C   UNK N   1      27.212  20.227   4.522  0.00  0.00     0.257 C 
HETATM    7  O   UNK N   1      28.180  19.259   4.894  0.00  0.00    -0.354 OA
ENDROOT
BRANCH   5   8
HETATM    8  O   UNK N   1      27.557  19.106   8.492  0.00  0.00    -0.393 OA
HETATM    9  H   UNK N   1      28.145  18.933   9.244  0.00  0.00     0.210 HD
ENDBRANCH   5   8
BRANCH   6  10
HETATM   10  O   UNK N   1      25.980  19.624   4.248  0.00  0.00    -0.371 OA
HETATM   11  H   UNK N   1      25.167  19.248   4.621  0.00  0.00     0.212 HD
ENDBRANCH   6  10
TORSDOF 2
ENDMDL
