MODEL 1
REMARK VINA RESULT:      -7.0      0.000      0.000
REMARK  7 active torsions:
REMARK  status: ('A' for Active; 'I' for Inactive)
REMARK    1  A    between atoms: C_1  and  O_20 
REMARK    2  A    between atoms: C_2  and  O_19 
REMARK    3  A    between atoms: C_5  and  O_21 
REMARK    4  A    between atoms: C_6  and  O_18 
REMARK    5  A    between atoms: C_7  and  C_22 
REMARK    6  A    between atoms: C_13  and  O_17 
REMARK    7  A    between atoms: C_15  and  O_16 
ROOT
HETATM    1  C   UNK N   1      22.517  16.200   4.483  0.00  0.00     0.156 C 
HETATM    2  C   UNK N   1      21.757  17.510   4.746  0.00  0.00     0.191 C 
HETATM    3  O   UNK N   1      20.632  17.264   5.516  0.00  0.00    -0.338 OA
HETATM    4  C   UNK N   1      22.882  15.552   5.824  0.00  0.00     0.079 C 
HETATM    5  C   UNK N   1      21.749  15.591   6.815  0.00  0.00     0.011 A 
HETATM    6  C   UNK N   1      20.653  16.446   6.591  0.00  0.00     0.081 A 
HETATM    7  C   UNK N   1      19.582  16.461   7.488  0.00  0.00     0.074 A 
HETATM    8  C   UNK N   1      19.607  15.648   8.622  0.00  0.00     0.071 A 
HETATM    9  C   UNK N   1      20.707  14.820   8.865  0.00  0.00     0.073 A 
HETATM   10  C   UNK N   1      21.777  14.786   7.965  0.00  0.00     0.077 A 
ENDROOT
BRANCH   2  11
HETATM   11  C   UNK N   1      21.376  18.316   3.525  0.00  0.00    -0.021 A 
HETATM   12  C   UNK N   1      21.534  19.711   3.526  0.00  0.00     0.049 A 
HETATM   13  C   UNK N   1      21.256  20.460   2.383  0.00  0.00     0.102 A 
HETATM   14  C   UNK N   1      20.803  19.821   1.220  0.00  0.00     0.132 A 
HETATM   15  C   UNK N   1      20.641  18.428   1.212  0.00  0.00     0.102 A 
HETATM   16  C   UNK N   1      20.942  17.682   2.352  0.00  0.00     0.049 A 
BRANCH  13  17
HETATM   17  O   UNK N   1      21.430  21.793   2.400  0.00  0.00    -0.358 OA
HETATM   18  H   UNK N   1      21.031  22.310   3.071  0.00  0.00     0.217 HD
ENDBRANCH  13  17
BRANCH  14  19
HETATM   19  O   UNK N   1      20.530  20.540   0.118  0.00  0.00    -0.356 OA
HETATM   20  H   UNK N   1      21.227  20.872  -0.413  0.00  0.00     0.218 HD
ENDBRANCH  14  19
BRANCH  15  21
HETATM   21  O   UNK N   1      20.200  17.804   0.106  0.00  0.00    -0.358 OA
HETATM   22  H   UNK N   1      19.429  17.272   0.143  0.00  0.00     0.217 HD
ENDBRANCH  15  21
ENDBRANCH   2  11
BRANCH   1  23
HETATM   23  O   UNK N   1      23.703  16.445   3.788  0.00  0.00    -0.392 OA
HETATM   24  H   UNK N   1      23.710  16.778   2.877  0.00  0.00     0.210 HD
ENDBRANCH   1  23
BRANCH  10  25
HETATM   25  O   UNK N   1      22.825  13.981   8.210  0.00  0.00    -0.360 OA
HETATM   26  H   UNK N   1      23.091  13.813   9.093  0.00  0.00     0.217 HD
ENDBRANCH  10  25
BRANCH   8  27
HETATM   27  O   UNK N   1      18.579  15.670   9.484  0.00  0.00    -0.361 OA
HETATM   28  H   UNK N   1      17.710  15.488   9.181  0.00  0.00     0.217 HD
ENDBRANCH   8  27
TORSDOF 7
ENDMDL
MODEL 2
REMARK VINA RESULT:      -7.0     12.608     15.379
REMARK  7 active torsions:
REMARK  status: ('A' for Active; 'I' for Inactive)
REMARK    1  A    between atoms: C_1  and  O_20 
REMARK    2  A    between atoms: C_2  and  O_19 
REMARK    3  A    between atoms: C_5  and  O_21 
REMARK    4  A    between atoms: C_6  and  O_18 
REMARK    5  A    between atoms: C_7  and  C_22 
REMARK    6  A    between atoms: C_13  and  O_17 
REMARK    7  A    between atoms: C_15  and  O_16 
ROOT
HETATM    1  C   UNK N   1      27.390  24.318  -3.353  0.00  0.00     0.156 C 
HETATM    2  C   UNK N   1      28.884  24.546  -3.637  0.00  0.00     0.191 C 
HETATM    3  O   UNK N   1      29.039  25.401  -4.718  0.00  0.00    -0.338 OA
HETATM    4  C   UNK N   1      26.712  25.671  -3.104  0.00  0.00     0.079 C 
HETATM    5  C   UNK N   1      27.149  26.727  -4.084  0.00  0.00     0.011 A 
HETATM    6  C   UNK N   1      28.299  26.521  -4.870  0.00  0.00     0.081 A 
HETATM    7  C   UNK N   1      28.689  27.481  -5.806  0.00  0.00     0.074 A 
HETATM    8  C   UNK N   1      27.956  28.660  -5.947  0.00  0.00     0.071 A 
HETATM    9  C   UNK N   1      26.831  28.883  -5.149  0.00  0.00     0.073 A 
HETATM   10  C   UNK N   1      26.423  27.922  -4.219  0.00  0.00     0.077 A 
ENDROOT
BRANCH   2  11
HETATM   11  C   UNK N   1      29.720  23.304  -3.842  0.00  0.00    -0.021 A 
HETATM   12  C   UNK N   1      30.676  22.934  -2.882  0.00  0.00     0.049 A 
HETATM   13  C   UNK N   1      31.403  21.752  -3.020  0.00  0.00     0.102 A 
HETATM   14  C   UNK N   1      31.193  20.927  -4.133  0.00  0.00     0.132 A 
HETATM   15  C   UNK N   1      30.242  21.291  -5.098  0.00  0.00     0.102 A 
HETATM   16  C   UNK N   1      29.501  22.463  -4.942  0.00  0.00     0.049 A 
BRANCH  13  17
HETATM   17  O   UNK N   1      32.301  21.408  -2.080  0.00  0.00    -0.358 OA
HETATM   18  H   UNK N   1      33.107  21.001  -2.327  0.00  0.00     0.217 HD
ENDBRANCH  13  17
BRANCH  14  19
HETATM   19  O   UNK N   1      31.895  19.790  -4.272  0.00  0.00    -0.356 OA
HETATM   20  H   UNK N   1      31.684  19.186  -4.957  0.00  0.00     0.218 HD
ENDBRANCH  14  19
BRANCH  15  21
HETATM   21  O   UNK N   1      30.035  20.511  -6.173  0.00  0.00    -0.358 OA
HETATM   22  H   UNK N   1      29.903  20.900  -7.015  0.00  0.00     0.217 HD
ENDBRANCH  15  21
ENDBRANCH   2  11
BRANCH   1  23
HETATM   23  O   UNK N   1      27.218  23.536  -2.210  0.00  0.00    -0.392 OA
HETATM   24  H   UNK N   1      26.404  23.560  -1.682  0.00  0.00     0.210 HD
ENDBRANCH   1  23
BRANCH  10  25
HETATM   25  O   UNK N   1      25.336  28.150  -3.461  0.00  0.00    -0.360 OA
HETATM   26  H   UNK N   1      24.630  27.534  -3.458  0.00  0.00     0.217 HD
ENDBRANCH  10  25
BRANCH   8  27
HETATM   27  O   UNK N   1      28.338  29.582  -6.844  0.00  0.00    -0.361 OA
HETATM   28  H   UNK N   1      29.250  29.726  -7.009  0.00  0.00     0.217 HD
ENDBRANCH   8  27
TORSDOF 7
ENDMDL
MODEL 3
REMARK VINA RESULT:      -6.8      9.024     11.831
REMARK  7 active torsions:
REMARK  status: ('A' for Active; 'I' for Inactive)
REMARK    1  A    between atoms: C_1  and  O_20 
REMARK    2  A    between atoms: C_2  and  O_19 
REMARK    3  A    between atoms: C_5  and  O_21 
REMARK    4  A    between atoms: C_6  and  O_18 
REMARK    5  A    between atoms: C_7  and  C_22 
REMARK    6  A    between atoms: C_13  and  O_17 
REMARK    7  A    between atoms: C_15  and  O_16 
ROOT
HETATM    1  C   UNK N   1      31.531  16.404   5.368  0.00  0.00     0.156 C 
HETATM    2  C   UNK N   1      31.173  16.620   6.848  0.00  0.00     0.191 C 
HETATM    3  O   UNK N   1      30.265  17.660   6.973  0.00  0.00    -0.338 OA
HETATM    4  C   UNK N   1      30.248  16.131   4.574  0.00  0.00     0.079 C 
HETATM    5  C   UNK N   1      29.121  17.053   4.959  0.00  0.00     0.011 A 
HETATM    6  C   UNK N   1      29.203  17.799   6.150  0.00  0.00     0.081 A 
HETATM    7  C   UNK N   1      28.177  18.682   6.495  0.00  0.00     0.074 A 
HETATM    8  C   UNK N   1      27.056  18.808   5.674  0.00  0.00     0.071 A 
HETATM    9  C   UNK N   1      26.956  18.048   4.505  0.00  0.00     0.073 A 
HETATM   10  C   UNK N   1      27.984  17.171   4.143  0.00  0.00     0.077 A 
ENDROOT
BRANCH   2  11
HETATM   11  C   UNK N   1      32.334  16.837   7.790  0.00  0.00    -0.021 A 
HETATM   12  C   UNK N   1      32.546  15.954   8.861  0.00  0.00     0.049 A 
HETATM   13  C   UNK N   1      33.654  16.098   9.695  0.00  0.00     0.102 A 
HETATM   14  C   UNK N   1      34.565  17.141   9.475  0.00  0.00     0.132 A 
HETATM   15  C   UNK N   1      34.359  18.029   8.408  0.00  0.00     0.102 A 
HETATM   16  C   UNK N   1      33.261  17.865   7.564  0.00  0.00     0.049 A 
BRANCH  13  17
HETATM   17  O   UNK N   1      33.847  15.232  10.704  0.00  0.00    -0.358 OA
HETATM   18  H   UNK N   1      33.665  15.489  11.586  0.00  0.00     0.217 HD
ENDBRANCH  13  17
BRANCH  14  19
HETATM   19  O   UNK N   1      35.632  17.287  10.279  0.00  0.00    -0.356 OA
HETATM   20  H   UNK N   1      35.815  18.117  10.673  0.00  0.00     0.218 HD
ENDBRANCH  14  19
BRANCH  15  21
HETATM   21  O   UNK N   1      35.221  19.037   8.190  0.00  0.00    -0.358 OA
HETATM   22  H   UNK N   1      36.140  18.862   8.125  0.00  0.00     0.217 HD
ENDBRANCH  15  21
ENDBRANCH   2  11
BRANCH   1  23
HETATM   23  O   UNK N   1      32.371  15.299   5.218  0.00  0.00    -0.392 OA
HETATM   24  H   UNK N   1      32.344  14.730   4.433  0.00  0.00     0.210 HD
ENDBRANCH   1  23
BRANCH  10  25
HETATM   25  O   UNK N   1      27.875  16.450   3.014  0.00  0.00    -0.360 OA
HETATM   26  H   UNK N   1      28.630  16.032   2.650  0.00  0.00     0.217 HD
ENDBRANCH  10  25
BRANCH   8  27
HETATM   27  O   UNK N   1      26.070  19.653   6.012  0.00  0.00    -0.361 OA
HETATM   28  H   UNK N   1      25.416  19.387   6.628  0.00  0.00     0.217 HD
ENDBRANCH   8  27
TORSDOF 7
ENDMDL
MODEL 4
REMARK VINA RESULT:      -6.8     10.024     12.954
REMARK  7 active torsions:
REMARK  status: ('A' for Active; 'I' for Inactive)
REMARK    1  A    between atoms: C_1  and  O_20 
REMARK    2  A    between atoms: C_2  and  O_19 
REMARK    3  A    between atoms: C_5  and  O_21 
REMARK    4  A    between atoms: C_6  and  O_18 
REMARK    5  A    between atoms: C_7  and  C_22 
REMARK    6  A    between atoms: C_13  and  O_17 
REMARK    7  A    between atoms: C_15  and  O_16 
ROOT
HETATM    1  C   UNK N   1      32.575  16.464   6.589  0.00  0.00     0.156 C 
HETATM    2  C   UNK N   1      32.099  16.145   8.016  0.00  0.00     0.191 C 
HETATM    3  O   UNK N   1      31.212  17.118   8.452  0.00  0.00    -0.338 OA
HETATM    4  C   UNK N   1      31.357  16.572   5.664  0.00  0.00     0.079 C 
HETATM    5  C   UNK N   1      30.226  17.351   6.283  0.00  0.00     0.011 A 
HETATM    6  C   UNK N   1      30.227  17.606   7.667  0.00  0.00     0.081 A 
HETATM    7  C   UNK N   1      29.200  18.358   8.241  0.00  0.00     0.074 A 
HETATM    8  C   UNK N   1      28.156  18.837   7.449  0.00  0.00     0.071 A 
HETATM    9  C   UNK N   1      28.134  18.562   6.079  0.00  0.00     0.073 A 
HETATM   10  C   UNK N   1      29.166  17.822   5.492  0.00  0.00     0.077 A 
ENDROOT
BRANCH   2  11
HETATM   11  C   UNK N   1      33.182  15.940   9.049  0.00  0.00    -0.021 A 
HETATM   12  C   UNK N   1      34.154  16.932   9.257  0.00  0.00     0.049 A 
HETATM   13  C   UNK N   1      35.116  16.789  10.256  0.00  0.00     0.102 A 
HETATM   14  C   UNK N   1      35.127  15.640  11.059  0.00  0.00     0.132 A 
HETATM   15  C   UNK N   1      34.161  14.643  10.856  0.00  0.00     0.102 A 
HETATM   16  C   UNK N   1      33.187  14.802   9.870  0.00  0.00     0.049 A 
BRANCH  13  17
HETATM   17  O   UNK N   1      36.027  17.759  10.449  0.00  0.00    -0.358 OA
HETATM   18  H   UNK N   1      36.516  17.793  11.247  0.00  0.00     0.217 HD
ENDBRANCH  13  17
BRANCH  14  19
HETATM   19  O   UNK N   1      36.055  15.496  12.020  0.00  0.00    -0.356 OA
HETATM   20  H   UNK N   1      36.185  16.173  12.655  0.00  0.00     0.218 HD
ENDBRANCH  14  19
BRANCH  15  21
HETATM   21  O   UNK N   1      34.164  13.533  11.614  0.00  0.00    -0.358 OA
HETATM   22  H   UNK N   1      33.810  13.557  12.482  0.00  0.00     0.217 HD
ENDBRANCH  15  21
ENDBRANCH   2  11
BRANCH   1  23
HETATM   23  O   UNK N   1      33.394  15.444   6.101  0.00  0.00    -0.392 OA
HETATM   24  H   UNK N   1      33.126  14.512   6.115  0.00  0.00     0.210 HD
ENDBRANCH   1  23
BRANCH  10  25
HETATM   25  O   UNK N   1      29.133  17.569   4.172  0.00  0.00    -0.360 OA
HETATM   26  H   UNK N   1      29.749  17.983   3.600  0.00  0.00     0.217 HD
ENDBRANCH  10  25
BRANCH   8  27
HETATM   27  O   UNK N   1      27.168  19.555   8.006  0.00  0.00    -0.361 OA
HETATM   28  H   UNK N   1      27.313  20.001   8.818  0.00  0.00     0.217 HD
ENDBRANCH   8  27
TORSDOF 7
ENDMDL
MODEL 5
REMARK VINA RESULT:      -6.7      1.046      2.002
REMARK  7 active torsions:
REMARK  status: ('A' for Active; 'I' for Inactive)
REMARK    1  A    between atoms: C_1  and  O_20 
REMARK    2  A    between atoms: C_2  and  O_19 
REMARK    3  A    between atoms: C_5  and  O_21 
REMARK    4  A    between atoms: C_6  and  O_18 
REMARK    5  A    between atoms: C_7  and  C_22 
REMARK    6  A    between atoms: C_13  and  O_17 
REMARK    7  A    between atoms: C_15  and  O_16 
ROOT
HETATM    1  C   UNK N   1      23.121  15.876   4.888  0.00  0.00     0.156 C 
HETATM    2  C   UNK N   1      22.201  17.042   5.284  0.00  0.00     0.191 C 
HETATM    3  O   UNK N   1      21.126  16.573   6.023  0.00  0.00    -0.338 OA
HETATM    4  C   UNK N   1      23.584  15.146   6.155  0.00  0.00     0.079 C 
HETATM    5  C   UNK N   1      22.467  14.935   7.143  0.00  0.00     0.011 A 
HETATM    6  C   UNK N   1      21.266  15.658   7.007  0.00  0.00     0.081 A 
HETATM    7  C   UNK N   1      20.214  15.440   7.899  0.00  0.00     0.074 A 
HETATM    8  C   UNK N   1      20.358  14.525   8.943  0.00  0.00     0.071 A 
HETATM    9  C   UNK N   1      21.558  13.826   9.100  0.00  0.00     0.073 A 
HETATM   10  C   UNK N   1      22.613  14.026   8.203  0.00  0.00     0.077 A 
ENDROOT
BRANCH   2  11
HETATM   11  C   UNK N   1      21.704  17.912   4.153  0.00  0.00    -0.021 A 
HETATM   12  C   UNK N   1      20.629  17.485   3.357  0.00  0.00     0.049 A 
HETATM   13  C   UNK N   1      20.111  18.308   2.358  0.00  0.00     0.102 A 
HETATM   14  C   UNK N   1      20.673  19.572   2.131  0.00  0.00     0.132 A 
HETATM   15  C   UNK N   1      21.749  20.005   2.921  0.00  0.00     0.102 A 
HETATM   16  C   UNK N   1      22.247  19.186   3.934  0.00  0.00     0.049 A 
BRANCH  13  17
HETATM   17  O   UNK N   1      19.072  17.886   1.618  0.00  0.00    -0.358 OA
HETATM   18  H   UNK N   1      18.391  18.484   1.380  0.00  0.00     0.217 HD
ENDBRANCH  13  17
BRANCH  14  19
HETATM   19  O   UNK N   1      20.181  20.367   1.166  0.00  0.00    -0.356 OA
HETATM   20  H   UNK N   1      19.388  20.134   0.723  0.00  0.00     0.218 HD
ENDBRANCH  14  19
BRANCH  15  21
HETATM   21  O   UNK N   1      22.300  21.213   2.710  0.00  0.00    -0.358 OA
HETATM   22  H   UNK N   1      22.775  21.638   3.397  0.00  0.00     0.217 HD
ENDBRANCH  15  21
ENDBRANCH   2  11
BRANCH   1  23
HETATM   23  O   UNK N   1      24.256  16.344   4.225  0.00  0.00    -0.392 OA
HETATM   24  H   UNK N   1      25.044  15.793   4.093  0.00  0.00     0.210 HD
ENDBRANCH   1  23
BRANCH  10  25
HETATM   25  O   UNK N   1      23.760  13.343   8.365  0.00  0.00    -0.360 OA
HETATM   26  H   UNK N   1      24.502  13.541   7.830  0.00  0.00     0.217 HD
ENDBRANCH  10  25
BRANCH   8  27
HETATM   27  O   UNK N   1      19.346  14.323   9.801  0.00  0.00    -0.361 OA
HETATM   28  H   UNK N   1      19.518  13.978  10.655  0.00  0.00     0.217 HD
ENDBRANCH   8  27
TORSDOF 7
ENDMDL
MODEL 6
REMARK VINA RESULT:      -6.5      5.886      7.222
REMARK  7 active torsions:
REMARK  status: ('A' for Active; 'I' for Inactive)
REMARK    1  A    between atoms: C_1  and  O_20 
REMARK    2  A    between atoms: C_2  and  O_19 
REMARK    3  A    between atoms: C_5  and  O_21 
REMARK    4  A    between atoms: C_6  and  O_18 
REMARK    5  A    between atoms: C_7  and  C_22 
REMARK    6  A    between atoms: C_13  and  O_17 
REMARK    7  A    between atoms: C_15  and  O_16 
ROOT
HETATM    1  C   UNK N   1      28.269  17.296   4.551  0.00  0.00     0.156 C 
HETATM    2  C   UNK N   1      27.587  18.587   5.030  0.00  0.00     0.191 C 
HETATM    3  O   UNK N   1      27.555  18.625   6.416  0.00  0.00    -0.338 OA
HETATM    4  C   UNK N   1      29.679  17.219   5.149  0.00  0.00     0.079 C 
HETATM    5  C   UNK N   1      29.713  17.604   6.605  0.00  0.00     0.011 A 
HETATM    6  C   UNK N   1      28.617  18.280   7.175  0.00  0.00     0.081 A 
HETATM    7  C   UNK N   1      28.627  18.609   8.533  0.00  0.00     0.074 A 
HETATM    8  C   UNK N   1      29.734  18.292   9.322  0.00  0.00     0.071 A 
HETATM    9  C   UNK N   1      30.837  17.648   8.754  0.00  0.00     0.073 A 
HETATM   10  C   UNK N   1      30.830  17.301   7.399  0.00  0.00     0.077 A 
ENDROOT
BRANCH   2  11
HETATM   11  C   UNK N   1      26.205  18.855   4.479  0.00  0.00    -0.021 A 
HETATM   12  C   UNK N   1      25.103  18.131   4.961  0.00  0.00     0.049 A 
HETATM   13  C   UNK N   1      23.813  18.417   4.516  0.00  0.00     0.102 A 
HETATM   14  C   UNK N   1      23.608  19.429   3.567  0.00  0.00     0.132 A 
HETATM   15  C   UNK N   1      24.704  20.155   3.079  0.00  0.00     0.102 A 
HETATM   16  C   UNK N   1      25.990  19.879   3.545  0.00  0.00     0.049 A 
BRANCH  13  17
HETATM   17  O   UNK N   1      22.770  17.724   5.003  0.00  0.00    -0.358 OA
HETATM   18  H   UNK N   1      22.206  17.252   4.422  0.00  0.00     0.217 HD
ENDBRANCH  13  17
BRANCH  14  19
HETATM   19  O   UNK N   1      22.367  19.704   3.132  0.00  0.00    -0.356 OA
HETATM   20  H   UNK N   1      21.658  19.773   3.741  0.00  0.00     0.218 HD
ENDBRANCH  14  19
BRANCH  15  21
HETATM   21  O   UNK N   1      24.522  21.123   2.164  0.00  0.00    -0.358 OA
HETATM   22  H   UNK N   1      25.204  21.326   1.554  0.00  0.00     0.217 HD
ENDBRANCH  15  21
ENDBRANCH   2  11
BRANCH   1  23
HETATM   23  O   UNK N   1      28.393  17.287   3.160  0.00  0.00    -0.392 OA
HETATM   24  H   UNK N   1      28.937  17.935   2.685  0.00  0.00     0.210 HD
ENDBRANCH   1  23
BRANCH  10  25
HETATM   25  O   UNK N   1      31.897  16.678   6.868  0.00  0.00    -0.360 OA
HETATM   26  H   UNK N   1      32.258  16.975   6.057  0.00  0.00     0.217 HD
ENDBRANCH  10  25
BRANCH   8  27
HETATM   27  O   UNK N   1      29.742  18.615  10.624  0.00  0.00    -0.361 OA
HETATM   28  H   UNK N   1      29.079  19.180  10.971  0.00  0.00     0.217 HD
ENDBRANCH   8  27
TORSDOF 7
ENDMDL
MODEL 7
REMARK VINA RESULT:      -6.5     15.652     18.258
REMARK  7 active torsions:
REMARK  status: ('A' for Active; 'I' for Inactive)
REMARK    1  A    between atoms: C_1  and  O_20 
REMARK    2  A    between atoms: C_2  and  O_19 
REMARK    3  A    between atoms: C_5  and  O_21 
REMARK    4  A    between atoms: C_6  and  O_18 
REMARK    5  A    between atoms: C_7  and  C_22 
REMARK    6  A    between atoms: C_13  and  O_17 
REMARK    7  A    between atoms: C_15  and  O_16 
ROOT
HETATM    1  C   UNK N   1      35.889  10.845  14.224  0.00  0.00     0.156 C 
HETATM    2  C   UNK N   1      36.330  12.318  14.221  0.00  0.00     0.191 C 
HETATM    3  O   UNK N   1      35.714  13.004  15.257  0.00  0.00    -0.338 OA
HETATM    4  C   UNK N   1      36.220  10.224  15.586  0.00  0.00     0.079 C 
HETATM    5  C   UNK N   1      35.867  11.128  16.737  0.00  0.00     0.011 A 
HETATM    6  C   UNK N   1      35.606  12.491  16.502  0.00  0.00     0.081 A 
HETATM    7  C   UNK N   1      35.243  13.328  17.560  0.00  0.00     0.074 A 
HETATM    8  C   UNK N   1      35.163  12.821  18.858  0.00  0.00     0.071 A 
HETATM    9  C   UNK N   1      35.450  11.474  19.102  0.00  0.00     0.073 A 
HETATM   10  C   UNK N   1      35.800  10.625  18.047  0.00  0.00     0.077 A 
ENDROOT
BRANCH   2  11
HETATM   11  C   UNK N   1      36.136  13.069  12.924  0.00  0.00    -0.021 A 
HETATM   12  C   UNK N   1      34.887  13.635  12.618  0.00  0.00     0.049 A 
HETATM   13  C   UNK N   1      34.712  14.392  11.461  0.00  0.00     0.102 A 
HETATM   14  C   UNK N   1      35.786  14.586  10.582  0.00  0.00     0.132 A 
HETATM   15  C   UNK N   1      37.036  14.022  10.879  0.00  0.00     0.102 A 
HETATM   16  C   UNK N   1      37.211  13.285  12.050  0.00  0.00     0.049 A 
BRANCH  13  17
HETATM   17  O   UNK N   1      33.513  14.938  11.196  0.00  0.00    -0.358 OA
HETATM   18  H   UNK N   1      33.324  15.814  11.469  0.00  0.00     0.217 HD
ENDBRANCH  13  17
BRANCH  14  19
HETATM   19  O   UNK N   1      35.621  15.311   9.463  0.00  0.00    -0.356 OA
HETATM   20  H   UNK N   1      34.863  15.854   9.360  0.00  0.00     0.218 HD
ENDBRANCH  14  19
BRANCH  15  21
HETATM   21  O   UNK N   1      38.073  14.195  10.040  0.00  0.00    -0.358 OA
HETATM   22  H   UNK N   1      38.467  13.454   9.623  0.00  0.00     0.217 HD
ENDBRANCH  15  21
ENDBRANCH   2  11
BRANCH   1  23
HETATM   23  O   UNK N   1      36.572  10.122  13.245  0.00  0.00    -0.392 OA
HETATM   24  H   UNK N   1      36.117   9.701  12.499  0.00  0.00     0.210 HD
ENDBRANCH   1  23
BRANCH  10  25
HETATM   25  O   UNK N   1      36.069   9.332  18.297  0.00  0.00    -0.360 OA
HETATM   26  H   UNK N   1      35.402   8.684  18.181  0.00  0.00     0.217 HD
ENDBRANCH  10  25
BRANCH   8  27
HETATM   27  O   UNK N   1      34.820  13.629  19.873  0.00  0.00    -0.361 OA
HETATM   28  H   UNK N   1      35.404  13.745  20.597  0.00  0.00     0.217 HD
ENDBRANCH   8  27
TORSDOF 7
ENDMDL
MODEL 8
REMARK VINA RESULT:      -6.4      9.251     11.075
REMARK  7 active torsions:
REMARK  status: ('A' for Active; 'I' for Inactive)
REMARK    1  A    between atoms: C_1  and  O_20 
REMARK    2  A    between atoms: C_2  and  O_19 
REMARK    3  A    between atoms: C_5  and  O_21 
REMARK    4  A    between atoms: C_6  and  O_18 
REMARK    5  A    between atoms: C_7  and  C_22 
REMARK    6  A    between atoms: C_13  and  O_17 
REMARK    7  A    between atoms: C_15  and  O_16 
ROOT
HETATM    1  C   UNK N   1      31.125  15.191   6.550  0.00  0.00     0.156 C 
HETATM    2  C   UNK N   1      31.236  16.724   6.538  0.00  0.00     0.191 C 
HETATM    3  O   UNK N   1      31.908  17.164   7.667  0.00  0.00    -0.338 OA
HETATM    4  C   UNK N   1      32.531  14.585   6.642  0.00  0.00     0.079 C 
HETATM    5  C   UNK N   1      33.404  15.295   7.642  0.00  0.00     0.011 A 
HETATM    6  C   UNK N   1      33.026  16.561   8.127  0.00  0.00     0.081 A 
HETATM    7  C   UNK N   1      33.814  17.209   9.082  0.00  0.00     0.074 A 
HETATM    8  C   UNK N   1      34.991  16.615   9.538  0.00  0.00     0.071 A 
HETATM    9  C   UNK N   1      35.386  15.371   9.038  0.00  0.00     0.073 A 
HETATM   10  C   UNK N   1      34.597  14.708   8.093  0.00  0.00     0.077 A 
ENDROOT
BRANCH   2  11
HETATM   11  C   UNK N   1      29.939  17.485   6.385  0.00  0.00    -0.021 A 
HETATM   12  C   UNK N   1      29.228  17.899   7.523  0.00  0.00     0.049 A 
HETATM   13  C   UNK N   1      28.069  18.665   7.399  0.00  0.00     0.102 A 
HETATM   14  C   UNK N   1      27.596  19.018   6.128  0.00  0.00     0.132 A 
HETATM   15  C   UNK N   1      28.299  18.605   4.986  0.00  0.00     0.102 A 
HETATM   16  C   UNK N   1      29.470  17.859   5.117  0.00  0.00     0.049 A 
BRANCH  13  17
HETATM   17  O   UNK N   1      27.414  19.065   8.502  0.00  0.00    -0.358 OA
HETATM   18  H   UNK N   1      27.800  18.948   9.347  0.00  0.00     0.217 HD
ENDBRANCH  13  17
BRANCH  14  19
HETATM   19  O   UNK N   1      26.476  19.751   6.004  0.00  0.00    -0.356 OA
HETATM   20  H   UNK N   1      25.724  19.555   6.527  0.00  0.00     0.218 HD
ENDBRANCH  14  19
BRANCH  15  21
HETATM   21  O   UNK N   1      27.852  18.932   3.761  0.00  0.00    -0.358 OA
HETATM   22  H   UNK N   1      28.370  18.735   3.005  0.00  0.00     0.217 HD
ENDBRANCH  15  21
ENDBRANCH   2  11
BRANCH   1  23
HETATM   23  O   UNK N   1      30.534  14.727   5.374  0.00  0.00    -0.392 OA
HETATM   24  H   UNK N   1      30.914  14.903   4.499  0.00  0.00     0.210 HD
ENDBRANCH   1  23
BRANCH  10  25
HETATM   25  O   UNK N   1      34.989  13.510   7.625  0.00  0.00    -0.360 OA
HETATM   26  H   UNK N   1      35.889  13.361   7.414  0.00  0.00     0.217 HD
ENDBRANCH  10  25
BRANCH   8  27
HETATM   27  O   UNK N   1      35.747  17.244  10.451  0.00  0.00    -0.361 OA
HETATM   28  H   UNK N   1      35.672  18.172  10.563  0.00  0.00     0.217 HD
ENDBRANCH   8  27
TORSDOF 7
ENDMDL
MODEL 9
REMARK VINA RESULT:      -6.4      8.868     11.798
REMARK  7 active torsions:
REMARK  status: ('A' for Active; 'I' for Inactive)
REMARK    1  A    between atoms: C_1  and  O_20 
REMARK    2  A    between atoms: C_2  and  O_19 
REMARK    3  A    between atoms: C_5  and  O_21 
REMARK    4  A    between atoms: C_6  and  O_18 
REMARK    5  A    between atoms: C_7  and  C_22 
REMARK    6  A    between atoms: C_13  and  O_17 
REMARK    7  A    between atoms: C_15  and  O_16 
ROOT
HETATM    1  C   UNK N   1      29.605  17.352   8.253  0.00  0.00     0.156 C 
HETATM    2  C   UNK N   1      30.837  17.497   7.345  0.00  0.00     0.191 C 
HETATM    3  O   UNK N   1      30.708  16.681   6.231  0.00  0.00    -0.338 OA
HETATM    4  C   UNK N   1      28.344  17.690   7.450  0.00  0.00     0.079 C 
HETATM    5  C   UNK N   1      28.353  17.080   6.073  0.00  0.00     0.011 A 
HETATM    6  C   UNK N   1      29.554  16.578   5.537  0.00  0.00     0.081 A 
HETATM    7  C   UNK N   1      29.562  15.979   4.276  0.00  0.00     0.074 A 
HETATM    8  C   UNK N   1      28.384  15.899   3.531  0.00  0.00     0.071 A 
HETATM    9  C   UNK N   1      27.194  16.422   4.046  0.00  0.00     0.073 A 
HETATM   10  C   UNK N   1      27.173  17.011   5.314  0.00  0.00     0.077 A 
ENDROOT
BRANCH   2  11
HETATM   11  C   UNK N   1      32.179  17.262   8.000  0.00  0.00    -0.021 A 
HETATM   12  C   UNK N   1      33.175  18.250   7.937  0.00  0.00     0.049 A 
HETATM   13  C   UNK N   1      34.391  18.079   8.598  0.00  0.00     0.102 A 
HETATM   14  C   UNK N   1      34.634  16.905   9.324  0.00  0.00     0.132 A 
HETATM   15  C   UNK N   1      33.645  15.912   9.389  0.00  0.00     0.102 A 
HETATM   16  C   UNK N   1      32.422  16.099   8.745  0.00  0.00     0.049 A 
BRANCH  13  17
HETATM   17  O   UNK N   1      35.323  19.045   8.539  0.00  0.00    -0.358 OA
HETATM   18  H   UNK N   1      36.173  18.901   8.905  0.00  0.00     0.217 HD
ENDBRANCH  13  17
BRANCH  14  19
HETATM   19  O   UNK N   1      35.806  16.734   9.958  0.00  0.00    -0.356 OA
HETATM   20  H   UNK N   1      36.128  15.871  10.130  0.00  0.00     0.218 HD
ENDBRANCH  14  19
BRANCH  15  21
HETATM   21  O   UNK N   1      33.868  14.778  10.077  0.00  0.00    -0.358 OA
HETATM   22  H   UNK N   1      33.549  13.961   9.749  0.00  0.00     0.217 HD
ENDBRANCH  15  21
ENDBRANCH   2  11
BRANCH   1  23
HETATM   23  O   UNK N   1      29.677  18.237   9.331  0.00  0.00    -0.392 OA
HETATM   24  H   UNK N   1      29.674  19.200   9.212  0.00  0.00     0.210 HD
ENDBRANCH   1  23
BRANCH  10  25
HETATM   25  O   UNK N   1      26.020  17.505   5.797  0.00  0.00    -0.360 OA
HETATM   26  H   UNK N   1      25.965  17.776   6.692  0.00  0.00     0.217 HD
ENDBRANCH  10  25
BRANCH   8  27
HETATM   27  O   UNK N   1      28.397  15.327   2.317  0.00  0.00    -0.361 OA
HETATM   28  H   UNK N   1      28.167  15.830   1.560  0.00  0.00     0.217 HD
ENDBRANCH   8  27
TORSDOF 7
ENDMDL
