MODEL 1
REMARK VINA RESULT:      -6.5      0.000      0.000
REMARK  18 active torsions:
REMARK  status: ('A' for Active; 'I' for Inactive)
REMARK    1  A    between atoms: C_2  and  C_1 
REMARK    2  A    between atoms: C_3  and  C_1 
REMARK    3  A    between atoms: N_18  and  C_2 
REMARK    4  A    between atoms: O_30  and  C_3 
REMARK    5  A    between atoms: C_6  and  C_4 
REMARK    6  A    between atoms: N_19  and  C_4 
REMARK    7  A    between atoms: C_7  and  C_5 
REMARK    8  A    between atoms: O_20  and  C_5 
REMARK    9  A    between atoms: C_9  and  C_6 
REMARK   10  A    between atoms: C_6  and  O_21 
REMARK   11  A    between atoms: C_9  and  C_7 
REMARK   12  A    between atoms: C_7  and  O_22 
REMARK   13  A    between atoms: C_9  and  O_23 
REMARK   14  A    between atoms: O_24  and  C_11 
REMARK   15  A    between atoms: O_25  and  C_12 
REMARK   16  A    between atoms: P_31  and  O_27 
REMARK   17  A    between atoms: P_31  and  O_28 
REMARK   18  A    between atoms: P_31  and  O_30 
ROOT
HETATM    1  C   UNK N   1      21.671  16.245   6.970  0.00  0.00     0.135 A 
HETATM    2  C   UNK N   1      21.353  15.033   7.501  0.00  0.00     0.146 A 
HETATM    3  C   UNK N   1      20.899  17.356   7.289  0.00  0.00     0.174 A 
HETATM    4  C   UNK N   1      19.547  15.945   8.664  0.00  0.00     0.224 A 
HETATM    5  C   UNK N   1      23.053  14.777   6.224  0.00  0.00     0.331 A 
HETATM    6  N   UNK N   1      20.305  14.854   8.338  0.00  0.00    -0.306 N 
ATOM      7  HN  UNK N   1      20.087  13.932   8.716  1.00  0.00     0.171 HD
HETATM    8  N   UNK N   1      19.844  17.180   8.140  0.00  0.00    -0.301 N 
ATOM      9  HN  UNK N   1      19.266  17.982   8.392  1.00  0.00     0.171 HD
HETATM   10  N   UNK N   1      22.744  16.107   6.162  0.00  0.00    -0.292 N 
HETATM   11  N   UNK N   1      22.195  14.097   7.039  0.00  0.00    -0.281 N 
HETATM   12  O   UNK N   1      23.969  14.261   5.607  0.00  0.00    -0.246 OA
ENDROOT
BRANCH  11  13
HETATM   13  C   UNK N   1      22.141  12.666   7.300  0.00  0.00     0.170 C 
BRANCH  13  14
HETATM   14  C   UNK N   1      23.311  12.275   8.205  0.00  0.00     0.168 C 
BRANCH  14  15
HETATM   15  C   UNK N   1      23.175  12.832   9.630  0.00  0.00     0.179 C 
BRANCH  15  16
HETATM   16  C   UNK N   1      23.004  11.740  10.707  0.00  0.00     0.173 C 
BRANCH  16  17
HETATM   17  C   UNK N   1      23.828  12.095  11.938  0.00  0.00     0.198 C 
BRANCH  17  18
HETATM   18  O   UNK N   1      25.168  11.767  11.737  0.00  0.00    -0.398 OA
HETATM   19  H   UNK N   1      25.791  12.416  11.373  0.00  0.00     0.209 HD
ENDBRANCH  17  18
ENDBRANCH  16  17
BRANCH  16  20
HETATM   20  O   UNK N   1      21.664  11.613  11.078  0.00  0.00    -0.391 OA
HETATM   21  H   UNK N   1      20.786  11.984  10.897  0.00  0.00     0.210 HD
ENDBRANCH  16  20
ENDBRANCH  15  16
BRANCH  15  22
HETATM   22  O   UNK N   1      24.326  13.573   9.918  0.00  0.00    -0.390 OA
HETATM   23  H   UNK N   1      24.796  13.979  10.663  0.00  0.00     0.210 HD
ENDBRANCH  15  22
ENDBRANCH  14  15
BRANCH  14  24
HETATM   24  O   UNK N   1      23.436  10.882   8.242  0.00  0.00    -0.391 OA
HETATM   25  H   UNK N   1      23.891  10.153   8.693  0.00  0.00     0.210 HD
ENDBRANCH  14  24
ENDBRANCH  13  14
ENDBRANCH  11  13
BRANCH  10  26
HETATM   26  C   UNK N   1      23.414  17.125   5.361  0.00  0.00     0.136 C 
BRANCH  26  27
HETATM   27  C   UNK N   1      23.075  16.969   3.881  0.00  0.00     0.047 C 
BRANCH  27  28
HETATM   28  C   UNK N   1      21.802  17.729   3.521  0.00  0.00     0.182 C 
BRANCH  28  29
HETATM   29  O   UNK N   1      21.885  19.044   3.999  0.00  0.00    -0.297 OA
BRANCH  29  30
HETATM   30  P   UNK N   1      21.331  20.086   2.723  0.00  0.00     0.390 P 
HETATM   31  O   UNK N   1      20.398  20.567   3.869  0.00  0.00    -0.632 OA
BRANCH  30  32
HETATM   32  O   UNK N   1      21.651  21.791   2.755  0.00  0.00    -0.307 OA
HETATM   33  H   UNK N   1      22.095  22.334   3.424  0.00  0.00     0.222 HD
ENDBRANCH  30  32
BRANCH  30  34
HETATM   34  O   UNK N   1      22.969  20.434   3.179  0.00  0.00    -0.307 OA
HETATM   35  H   UNK N   1      23.528  19.734   3.552  0.00  0.00     0.222 HD
ENDBRANCH  30  34
ENDBRANCH  29  30
ENDBRANCH  28  29
ENDBRANCH  27  28
ENDBRANCH  26  27
ENDBRANCH  10  26
BRANCH   3  36
HETATM   36  O   UNK N   1      21.163  18.567   6.773  0.00  0.00    -0.344 OA
HETATM   37  H   UNK N   1      21.879  19.124   7.006  0.00  0.00     0.219 HD
ENDBRANCH   3  36
BRANCH   4  38
HETATM   38  O   UNK N   1      18.503  15.805   9.496  0.00  0.00    -0.332 OA
HETATM   39  H   UNK N   1      18.467  15.108  10.121  0.00  0.00     0.221 HD
ENDBRANCH   4  38
TORSDOF 18
ENDMDL
MODEL 2
REMARK VINA RESULT:      -6.4      6.434      7.951
REMARK  18 active torsions:
REMARK  status: ('A' for Active; 'I' for Inactive)
REMARK    1  A    between atoms: C_2  and  C_1 
REMARK    2  A    between atoms: C_3  and  C_1 
REMARK    3  A    between atoms: N_18  and  C_2 
REMARK    4  A    between atoms: O_30  and  C_3 
REMARK    5  A    between atoms: C_6  and  C_4 
REMARK    6  A    between atoms: N_19  and  C_4 
REMARK    7  A    between atoms: C_7  and  C_5 
REMARK    8  A    between atoms: O_20  and  C_5 
REMARK    9  A    between atoms: C_9  and  C_6 
REMARK   10  A    between atoms: C_6  and  O_21 
REMARK   11  A    between atoms: C_9  and  C_7 
REMARK   12  A    between atoms: C_7  and  O_22 
REMARK   13  A    between atoms: C_9  and  O_23 
REMARK   14  A    between atoms: O_24  and  C_11 
REMARK   15  A    between atoms: O_25  and  C_12 
REMARK   16  A    between atoms: P_31  and  O_27 
REMARK   17  A    between atoms: P_31  and  O_28 
REMARK   18  A    between atoms: P_31  and  O_30 
ROOT
HETATM    1  C   UNK N   1      28.016  18.637   6.437  0.00  0.00     0.135 A 
HETATM    2  C   UNK N   1      28.935  17.655   6.641  0.00  0.00     0.146 A 
HETATM    3  C   UNK N   1      27.551  19.376   7.518  0.00  0.00     0.174 A 
HETATM    4  C   UNK N   1      28.983  18.089   8.934  0.00  0.00     0.224 A 
HETATM    5  C   UNK N   1      28.458  17.699   4.554  0.00  0.00     0.331 A 
HETATM    6  N   UNK N   1      29.428  17.359   7.866  0.00  0.00    -0.306 N 
ATOM      7  HN  UNK N   1      30.112  16.613   7.990  1.00  0.00     0.171 HD
HETATM    8  N   UNK N   1      28.052  19.084   8.756  0.00  0.00    -0.301 N 
ATOM      9  HN  UNK N   1      27.730  19.617   9.564  1.00  0.00     0.171 HD
HETATM   10  N   UNK N   1      27.702  18.684   5.124  0.00  0.00    -0.292 N 
HETATM   11  N   UNK N   1      29.218  17.045   5.480  0.00  0.00    -0.281 N 
HETATM   12  O   UNK N   1      28.436  17.423   3.367  0.00  0.00    -0.246 OA
ENDROOT
BRANCH  11  13
HETATM   13  C   UNK N   1      30.087  15.894   5.286  0.00  0.00     0.170 C 
BRANCH  13  14
HETATM   14  C   UNK N   1      31.512  16.379   5.014  0.00  0.00     0.168 C 
BRANCH  14  15
HETATM   15  C   UNK N   1      32.460  16.140   6.199  0.00  0.00     0.179 C 
BRANCH  15  16
HETATM   16  C   UNK N   1      33.018  17.440   6.815  0.00  0.00     0.173 C 
BRANCH  16  17
HETATM   17  C   UNK N   1      33.384  17.204   8.276  0.00  0.00     0.198 C 
BRANCH  17  18
HETATM   18  O   UNK N   1      32.274  17.413   9.094  0.00  0.00    -0.398 OA
HETATM   19  H   UNK N   1      31.409  17.036   8.867  0.00  0.00     0.209 HD
ENDBRANCH  17  18
ENDBRANCH  16  17
BRANCH  16  20
HETATM   20  O   UNK N   1      34.154  17.869   6.126  0.00  0.00    -0.391 OA
HETATM   21  H   UNK N   1      35.113  17.728   6.077  0.00  0.00     0.210 HD
ENDBRANCH  16  20
ENDBRANCH  15  16
BRANCH  15  22
HETATM   22  O   UNK N   1      31.756  15.439   7.184  0.00  0.00    -0.390 OA
HETATM   23  H   UNK N   1      31.506  15.497   8.119  0.00  0.00     0.210 HD
ENDBRANCH  15  22
ENDBRANCH  14  15
BRANCH  14  24
HETATM   24  O   UNK N   1      32.011  15.759   3.863  0.00  0.00    -0.391 OA
HETATM   25  H   UNK N   1      32.593  15.047   3.553  0.00  0.00     0.210 HD
ENDBRANCH  14  24
ENDBRANCH  13  14
ENDBRANCH  11  13
BRANCH  10  26
HETATM   26  C   UNK N   1      26.744  19.553   4.450  0.00  0.00     0.136 C 
BRANCH  26  27
HETATM   27  C   UNK N   1      25.346  18.940   4.461  0.00  0.00     0.047 C 
BRANCH  27  28
HETATM   28  C   UNK N   1      24.401  19.702   3.537  0.00  0.00     0.182 C 
BRANCH  28  29
HETATM   29  O   UNK N   1      23.085  19.589   4.006  0.00  0.00    -0.297 OA
BRANCH  29  30
HETATM   30  P   UNK N   1      22.038  20.091   2.712  0.00  0.00     0.390 P 
HETATM   31  O   UNK N   1      21.037  20.173   3.899  0.00  0.00    -0.632 OA
BRANCH  30  32
HETATM   32  O   UNK N   1      21.477  21.729   2.598  0.00  0.00    -0.307 OA
HETATM   33  H   UNK N   1      21.662  22.411   1.934  0.00  0.00     0.222 HD
ENDBRANCH  30  32
BRANCH  30  34
HETATM   34  O   UNK N   1      23.309  21.237   3.000  0.00  0.00    -0.307 OA
HETATM   35  H   UNK N   1      23.558  21.469   3.908  0.00  0.00     0.222 HD
ENDBRANCH  30  34
ENDBRANCH  29  30
ENDBRANCH  28  29
ENDBRANCH  27  28
ENDBRANCH  26  27
ENDBRANCH  10  26
BRANCH   3  36
HETATM   36  O   UNK N   1      26.629  20.341   7.367  0.00  0.00    -0.344 OA
HETATM   37  H   UNK N   1      25.723  20.281   7.600  0.00  0.00     0.219 HD
ENDBRANCH   3  36
BRANCH   4  38
HETATM   38  O   UNK N   1      29.454  17.826  10.163  0.00  0.00    -0.332 OA
HETATM   39  H   UNK N   1      29.535  16.946  10.476  0.00  0.00     0.221 HD
ENDBRANCH   4  38
TORSDOF 18
ENDMDL
MODEL 3
REMARK VINA RESULT:      -6.4      3.958      6.356
REMARK  18 active torsions:
REMARK  status: ('A' for Active; 'I' for Inactive)
REMARK    1  A    between atoms: C_2  and  C_1 
REMARK    2  A    between atoms: C_3  and  C_1 
REMARK    3  A    between atoms: N_18  and  C_2 
REMARK    4  A    between atoms: O_30  and  C_3 
REMARK    5  A    between atoms: C_6  and  C_4 
REMARK    6  A    between atoms: N_19  and  C_4 
REMARK    7  A    between atoms: C_7  and  C_5 
REMARK    8  A    between atoms: O_20  and  C_5 
REMARK    9  A    between atoms: C_9  and  C_6 
REMARK   10  A    between atoms: C_6  and  O_21 
REMARK   11  A    between atoms: C_9  and  C_7 
REMARK   12  A    between atoms: C_7  and  O_22 
REMARK   13  A    between atoms: C_9  and  O_23 
REMARK   14  A    between atoms: O_24  and  C_11 
REMARK   15  A    between atoms: O_25  and  C_12 
REMARK   16  A    between atoms: P_31  and  O_27 
REMARK   17  A    between atoms: P_31  and  O_28 
REMARK   18  A    between atoms: P_31  and  O_30 
ROOT
HETATM    1  C   UNK N   1      21.023  17.480   2.299  0.00  0.00     0.135 A 
HETATM    2  C   UNK N   1      21.292  17.955   3.546  0.00  0.00     0.146 A 
HETATM    3  C   UNK N   1      20.599  18.357   1.308  0.00  0.00     0.174 A 
HETATM    4  C   UNK N   1      20.758  20.133   2.900  0.00  0.00     0.224 A 
HETATM    5  C   UNK N   1      21.608  15.837   3.557  0.00  0.00     0.331 A 
HETATM    6  N   UNK N   1      21.165  19.263   3.872  0.00  0.00    -0.306 N 
ATOM      7  HN  UNK N   1      21.367  19.589   4.817  1.00  0.00     0.171 HD
HETATM    8  N   UNK N   1      20.476  19.679   1.633  0.00  0.00    -0.301 N 
ATOM      9  HN  UNK N   1      20.171  20.343   0.921  1.00  0.00     0.171 HD
HETATM   10  N   UNK N   1      21.220  16.144   2.283  0.00  0.00    -0.292 N 
HETATM   11  N   UNK N   1      21.647  16.945   4.353  0.00  0.00    -0.281 N 
HETATM   12  O   UNK N   1      21.865  14.709   3.938  0.00  0.00    -0.246 OA
ENDROOT
BRANCH  11  13
HETATM   13  C   UNK N   1      21.932  17.024   5.779  0.00  0.00     0.170 C 
BRANCH  13  14
HETATM   14  C   UNK N   1      20.679  17.499   6.517  0.00  0.00     0.168 C 
BRANCH  14  15
HETATM   15  C   UNK N   1      20.209  16.508   7.593  0.00  0.00     0.179 C 
BRANCH  15  16
HETATM   16  C   UNK N   1      20.778  15.085   7.413  0.00  0.00     0.173 C 
BRANCH  16  17
HETATM   17  C   UNK N   1      20.845  14.380   8.762  0.00  0.00     0.198 C 
BRANCH  17  18
HETATM   18  O   UNK N   1      19.575  14.306   9.334  0.00  0.00    -0.398 OA
HETATM   19  H   UNK N   1      19.010  13.531   9.194  0.00  0.00     0.209 HD
ENDBRANCH  17  18
ENDBRANCH  16  17
BRANCH  16  20
HETATM   20  O   UNK N   1      19.977  14.336   6.548  0.00  0.00    -0.391 OA
HETATM   21  H   UNK N   1      19.157  13.819   6.527  0.00  0.00     0.210 HD
ENDBRANCH  16  20
ENDBRANCH  15  16
BRANCH  15  22
HETATM   22  O   UNK N   1      20.610  16.999   8.840  0.00  0.00    -0.390 OA
HETATM   23  H   UNK N   1      20.461  16.863   9.789  0.00  0.00     0.210 HD
ENDBRANCH  15  22
ENDBRANCH  14  15
BRANCH  14  24
HETATM   24  O   UNK N   1      20.913  18.755   7.087  0.00  0.00    -0.391 OA
HETATM   25  H   UNK N   1      21.548  19.489   7.120  0.00  0.00     0.210 HD
ENDBRANCH  14  24
ENDBRANCH  13  14
ENDBRANCH  11  13
BRANCH  10  26
HETATM   26  C   UNK N   1      21.026  15.212   1.179  0.00  0.00     0.136 C 
BRANCH  26  27
HETATM   27  C   UNK N   1      19.542  14.944   0.940  0.00  0.00     0.047 C 
BRANCH  27  28
HETATM   28  C   UNK N   1      19.099  13.646   1.608  0.00  0.00     0.182 C 
BRANCH  28  29
HETATM   29  O   UNK N   1      18.765  13.890   2.947  0.00  0.00    -0.297 OA
BRANCH  29  30
HETATM   30  P   UNK N   1      18.566  12.342   3.713  0.00  0.00     0.390 P 
HETATM   31  O   UNK N   1      17.858  13.242   4.764  0.00  0.00    -0.632 OA
BRANCH  30  32
HETATM   32  O   UNK N   1      17.004  11.596   3.831  0.00  0.00    -0.307 OA
HETATM   33  H   UNK N   1      16.735  10.767   4.255  0.00  0.00     0.222 HD
ENDBRANCH  30  32
BRANCH  30  34
HETATM   34  O   UNK N   1      17.677  12.450   2.225  0.00  0.00    -0.307 OA
HETATM   35  H   UNK N   1      17.316  13.302   1.936  0.00  0.00     0.222 HD
ENDBRANCH  30  34
ENDBRANCH  29  30
ENDBRANCH  28  29
ENDBRANCH  27  28
ENDBRANCH  26  27
ENDBRANCH  10  26
BRANCH   3  36
HETATM   36  O   UNK N   1      20.303  17.930   0.070  0.00  0.00    -0.344 OA
HETATM   37  H   UNK N   1      20.440  18.404  -0.726  0.00  0.00     0.219 HD
ENDBRANCH   3  36
BRANCH   4  38
HETATM   38  O   UNK N   1      20.625  21.438   3.186  0.00  0.00    -0.332 OA
HETATM   39  H   UNK N   1      19.782  21.827   3.307  0.00  0.00     0.221 HD
ENDBRANCH   4  38
TORSDOF 18
ENDMDL
MODEL 4
REMARK VINA RESULT:      -6.4      9.423     10.828
REMARK  18 active torsions:
REMARK  status: ('A' for Active; 'I' for Inactive)
REMARK    1  A    between atoms: C_2  and  C_1 
REMARK    2  A    between atoms: C_3  and  C_1 
REMARK    3  A    between atoms: N_18  and  C_2 
REMARK    4  A    between atoms: O_30  and  C_3 
REMARK    5  A    between atoms: C_6  and  C_4 
REMARK    6  A    between atoms: N_19  and  C_4 
REMARK    7  A    between atoms: C_7  and  C_5 
REMARK    8  A    between atoms: O_20  and  C_5 
REMARK    9  A    between atoms: C_9  and  C_6 
REMARK   10  A    between atoms: C_6  and  O_21 
REMARK   11  A    between atoms: C_9  and  C_7 
REMARK   12  A    between atoms: C_7  and  O_22 
REMARK   13  A    between atoms: C_9  and  O_23 
REMARK   14  A    between atoms: O_24  and  C_11 
REMARK   15  A    between atoms: O_25  and  C_12 
REMARK   16  A    between atoms: P_31  and  O_27 
REMARK   17  A    between atoms: P_31  and  O_28 
REMARK   18  A    between atoms: P_31  and  O_30 
ROOT
HETATM    1  C   UNK N   1      31.558  17.301   6.920  0.00  0.00     0.135 A 
HETATM    2  C   UNK N   1      31.923  17.134   8.220  0.00  0.00     0.146 A 
HETATM    3  C   UNK N   1      30.215  17.461   6.600  0.00  0.00     0.174 A 
HETATM    4  C   UNK N   1      29.704  17.283   8.927  0.00  0.00     0.224 A 
HETATM    5  C   UNK N   1      33.691  17.050   7.015  0.00  0.00     0.331 A 
HETATM    6  N   UNK N   1      31.026  17.116   9.234  0.00  0.00    -0.306 N 
ATOM      7  HN  UNK N   1      31.328  16.982  10.199  1.00  0.00     0.171 HD
HETATM    8  N   UNK N   1      29.308  17.451   7.622  0.00  0.00    -0.301 N 
ATOM      9  HN  UNK N   1      28.317  17.571   7.412  1.00  0.00     0.171 HD
HETATM   10  N   UNK N   1      32.660  17.255   6.141  0.00  0.00    -0.292 N 
HETATM   11  N   UNK N   1      33.250  16.961   8.303  0.00  0.00    -0.281 N 
HETATM   12  O   UNK N   1      34.857  16.936   6.679  0.00  0.00    -0.246 OA
ENDROOT
BRANCH  11  13
HETATM   13  C   UNK N   1      34.020  16.669   9.504  0.00  0.00     0.170 C 
BRANCH  13  14
HETATM   14  C   UNK N   1      33.784  15.214   9.912  0.00  0.00     0.168 C 
BRANCH  14  15
HETATM   15  C   UNK N   1      35.033  14.554  10.516  0.00  0.00     0.179 C 
BRANCH  15  16
HETATM   16  C   UNK N   1      35.809  15.472  11.484  0.00  0.00     0.173 C 
BRANCH  16  17
HETATM   17  C   UNK N   1      36.084  14.732  12.788  0.00  0.00     0.198 C 
BRANCH  17  18
HETATM   18  O   UNK N   1      37.103  13.797  12.610  0.00  0.00    -0.398 OA
HETATM   19  H   UNK N   1      36.903  12.888  12.337  0.00  0.00     0.209 HD
ENDBRANCH  17  18
ENDBRANCH  16  17
BRANCH  16  20
HETATM   20  O   UNK N   1      37.024  15.872  10.924  0.00  0.00    -0.391 OA
HETATM   21  H   UNK N   1      37.619  16.636  10.865  0.00  0.00     0.210 HD
ENDBRANCH  16  20
ENDBRANCH  15  16
BRANCH  15  22
HETATM   22  O   UNK N   1      34.628  13.408  11.208  0.00  0.00    -0.390 OA
HETATM   23  H   UNK N   1      33.892  13.069  11.740  0.00  0.00     0.210 HD
ENDBRANCH  15  22
ENDBRANCH  14  15
BRANCH  14  24
HETATM   24  O   UNK N   1      32.716  15.141  10.812  0.00  0.00    -0.391 OA
HETATM   25  H   UNK N   1      31.822  14.783  10.932  0.00  0.00     0.210 HD
ENDBRANCH  14  24
ENDBRANCH  13  14
ENDBRANCH  11  13
BRANCH  10  26
HETATM   26  C   UNK N   1      32.751  17.355   4.689  0.00  0.00     0.136 C 
BRANCH  26  27
HETATM   27  C   UNK N   1      33.120  16.010   4.068  0.00  0.00     0.047 C 
BRANCH  27  28
HETATM   28  C   UNK N   1      31.875  15.214   3.691  0.00  0.00     0.182 C 
BRANCH  28  29
HETATM   29  O   UNK N   1      30.967  16.044   3.020  0.00  0.00    -0.297 OA
BRANCH  29  30
HETATM   30  P   UNK N   1      29.471  15.166   2.894  0.00  0.00     0.390 P 
HETATM   31  O   UNK N   1      29.846  14.824   4.363  0.00  0.00    -0.632 OA
BRANCH  30  32
HETATM   32  O   UNK N   1      28.056  15.680   3.755  0.00  0.00    -0.307 OA
HETATM   33  H   UNK N   1      27.410  15.167   4.265  0.00  0.00     0.222 HD
ENDBRANCH  30  32
BRANCH  30  34
HETATM   34  O   UNK N   1      29.228  16.882   2.785  0.00  0.00    -0.307 OA
HETATM   35  H   UNK N   1      29.970  17.464   2.556  0.00  0.00     0.222 HD
ENDBRANCH  30  34
ENDBRANCH  29  30
ENDBRANCH  28  29
ENDBRANCH  27  28
ENDBRANCH  26  27
ENDBRANCH  10  26
BRANCH   3  36
HETATM   36  O   UNK N   1      29.807  17.609   5.329  0.00  0.00    -0.344 OA
HETATM   37  H   UNK N   1      30.347  17.833   4.597  0.00  0.00     0.219 HD
ENDBRANCH   3  36
BRANCH   4  38
HETATM   38  O   UNK N   1      28.787  17.275   9.908  0.00  0.00    -0.332 OA
HETATM   39  H   UNK N   1      28.049  16.699   9.881  0.00  0.00     0.221 HD
ENDBRANCH   4  38
TORSDOF 18
ENDMDL
MODEL 5
REMARK VINA RESULT:      -6.3      3.536      5.618
REMARK  18 active torsions:
REMARK  status: ('A' for Active; 'I' for Inactive)
REMARK    1  A    between atoms: C_2  and  C_1 
REMARK    2  A    between atoms: C_3  and  C_1 
REMARK    3  A    between atoms: N_18  and  C_2 
REMARK    4  A    between atoms: O_30  and  C_3 
REMARK    5  A    between atoms: C_6  and  C_4 
REMARK    6  A    between atoms: N_19  and  C_4 
REMARK    7  A    between atoms: C_7  and  C_5 
REMARK    8  A    between atoms: O_20  and  C_5 
REMARK    9  A    between atoms: C_9  and  C_6 
REMARK   10  A    between atoms: C_6  and  O_21 
REMARK   11  A    between atoms: C_9  and  C_7 
REMARK   12  A    between atoms: C_7  and  O_22 
REMARK   13  A    between atoms: C_9  and  O_23 
REMARK   14  A    between atoms: O_24  and  C_11 
REMARK   15  A    between atoms: O_25  and  C_12 
REMARK   16  A    between atoms: P_31  and  O_27 
REMARK   17  A    between atoms: P_31  and  O_28 
REMARK   18  A    between atoms: P_31  and  O_30 
ROOT
HETATM    1  C   UNK N   1      21.963  19.489   3.221  0.00  0.00     0.135 A 
HETATM    2  C   UNK N   1      21.403  18.304   3.587  0.00  0.00     0.146 A 
HETATM    3  C   UNK N   1      21.200  20.424   2.532  0.00  0.00     0.174 A 
HETATM    4  C   UNK N   1      19.357  18.906   2.640  0.00  0.00     0.224 A 
HETATM    5  C   UNK N   1      23.448  18.299   4.223  0.00  0.00     0.331 A 
HETATM    6  N   UNK N   1      20.117  17.987   3.309  0.00  0.00    -0.306 N 
ATOM      7  HN  UNK N   1      19.725  17.087   3.590  1.00  0.00     0.171 HD
HETATM    8  N   UNK N   1      19.898  20.109   2.256  0.00  0.00    -0.301 N 
ATOM      9  HN  UNK N   1      19.317  20.782   1.755  1.00  0.00     0.171 HD
HETATM   10  N   UNK N   1      23.254  19.509   3.616  0.00  0.00    -0.292 N 
HETATM   11  N   UNK N   1      22.315  17.538   4.203  0.00  0.00    -0.281 N 
HETATM   12  O   UNK N   1      24.509  17.938   4.701  0.00  0.00    -0.246 OA
ENDROOT
BRANCH  11  13
HETATM   13  C   UNK N   1      22.137  16.171   4.671  0.00  0.00     0.170 C 
BRANCH  13  14
HETATM   14  C   UNK N   1      21.880  16.184   6.179  0.00  0.00     0.168 C 
BRANCH  14  15
HETATM   15  C   UNK N   1      20.555  15.508   6.564  0.00  0.00     0.179 C 
BRANCH  15  16
HETATM   16  C   UNK N   1      20.080  15.849   7.992  0.00  0.00     0.173 C 
BRANCH  16  17
HETATM   17  C   UNK N   1      20.378  14.684   8.928  0.00  0.00     0.198 C 
BRANCH  17  18
HETATM   18  O   UNK N   1      19.254  14.378   9.695  0.00  0.00    -0.398 OA
HETATM   19  H   UNK N   1      18.775  15.071  10.176  0.00  0.00     0.209 HD
ENDBRANCH  17  18
ENDBRANCH  16  17
BRANCH  16  20
HETATM   20  O   UNK N   1      20.724  16.992   8.470  0.00  0.00    -0.391 OA
HETATM   21  H   UNK N   1      21.343  17.286   9.158  0.00  0.00     0.210 HD
ENDBRANCH  16  20
ENDBRANCH  15  16
BRANCH  15  22
HETATM   22  O   UNK N   1      19.577  15.918   5.653  0.00  0.00    -0.390 OA
HETATM   23  H   UNK N   1      19.236  16.716   5.220  0.00  0.00     0.210 HD
ENDBRANCH  15  22
ENDBRANCH  14  15
BRANCH  14  24
HETATM   24  O   UNK N   1      22.946  15.572   6.847  0.00  0.00    -0.391 OA
HETATM   25  H   UNK N   1      23.205  15.159   7.686  0.00  0.00     0.210 HD
ENDBRANCH  14  24
ENDBRANCH  13  14
ENDBRANCH  11  13
BRANCH  10  26
HETATM   26  C   UNK N   1      24.249  20.555   3.414  0.00  0.00     0.136 C 
BRANCH  26  27
HETATM   27  C   UNK N   1      25.479  20.010   2.692  0.00  0.00     0.047 C 
BRANCH  27  28
HETATM   28  C   UNK N   1      26.759  20.337   3.456  0.00  0.00     0.182 C 
BRANCH  28  29
HETATM   29  O   UNK N   1      26.439  20.832   4.728  0.00  0.00    -0.297 OA
BRANCH  29  30
HETATM   30  P   UNK N   1      27.478  20.025   5.865  0.00  0.00     0.390 P 
HETATM   31  O   UNK N   1      27.822  21.502   6.206  0.00  0.00    -0.632 OA
BRANCH  30  32
HETATM   32  O   UNK N   1      27.158  20.085   7.569  0.00  0.00    -0.307 OA
HETATM   33  H   UNK N   1      26.316  20.120   8.049  0.00  0.00     0.222 HD
ENDBRANCH  30  32
BRANCH  30  34
HETATM   34  O   UNK N   1      25.799  19.766   6.223  0.00  0.00    -0.307 OA
HETATM   35  H   UNK N   1      25.324  19.025   5.814  0.00  0.00     0.222 HD
ENDBRANCH  30  34
ENDBRANCH  29  30
ENDBRANCH  28  29
ENDBRANCH  27  28
ENDBRANCH  26  27
ENDBRANCH  10  26
BRANCH   3  36
HETATM   36  O   UNK N   1      21.716  21.597   2.134  0.00  0.00    -0.344 OA
HETATM   37  H   UNK N   1      22.621  21.838   2.153  0.00  0.00     0.219 HD
ENDBRANCH   3  36
BRANCH   4  38
HETATM   38  O   UNK N   1      18.075  18.627   2.351  0.00  0.00    -0.332 OA
HETATM   39  H   UNK N   1      17.570  19.185   1.793  0.00  0.00     0.221 HD
ENDBRANCH   4  38
TORSDOF 18
ENDMDL
MODEL 6
REMARK VINA RESULT:      -6.3      7.865     10.208
REMARK  18 active torsions:
REMARK  status: ('A' for Active; 'I' for Inactive)
REMARK    1  A    between atoms: C_2  and  C_1 
REMARK    2  A    between atoms: C_3  and  C_1 
REMARK    3  A    between atoms: N_18  and  C_2 
REMARK    4  A    between atoms: O_30  and  C_3 
REMARK    5  A    between atoms: C_6  and  C_4 
REMARK    6  A    between atoms: N_19  and  C_4 
REMARK    7  A    between atoms: C_7  and  C_5 
REMARK    8  A    between atoms: O_20  and  C_5 
REMARK    9  A    between atoms: C_9  and  C_6 
REMARK   10  A    between atoms: C_6  and  O_21 
REMARK   11  A    between atoms: C_9  and  C_7 
REMARK   12  A    between atoms: C_7  and  O_22 
REMARK   13  A    between atoms: C_9  and  O_23 
REMARK   14  A    between atoms: O_24  and  C_11 
REMARK   15  A    between atoms: O_25  and  C_12 
REMARK   16  A    between atoms: P_31  and  O_27 
REMARK   17  A    between atoms: P_31  and  O_28 
REMARK   18  A    between atoms: P_31  and  O_30 
ROOT
HETATM    1  C   UNK N   1      30.663  17.453   7.146  0.00  0.00     0.135 A 
HETATM    2  C   UNK N   1      29.427  17.629   6.605  0.00  0.00     0.146 A 
HETATM    3  C   UNK N   1      30.825  17.534   8.524  0.00  0.00     0.174 A 
HETATM    4  C   UNK N   1      28.480  17.955   8.713  0.00  0.00     0.224 A 
HETATM    5  C   UNK N   1      30.814  17.296   5.007  0.00  0.00     0.331 A 
HETATM    6  N   UNK N   1      28.330  17.883   7.356  0.00  0.00    -0.306 N 
ATOM      7  HN  UNK N   1      27.417  18.018   6.921  1.00  0.00     0.171 HD
HETATM    8  N   UNK N   1      29.718  17.784   9.286  0.00  0.00    -0.301 N 
ATOM      9  HN  UNK N   1      29.811  17.843  10.300  1.00  0.00     0.171 HD
HETATM   10  N   UNK N   1      31.554  17.238   6.155  0.00  0.00    -0.292 N 
HETATM   11  N   UNK N   1      29.498  17.549   5.268  0.00  0.00    -0.281 N 
HETATM   12  O   UNK N   1      31.278  17.161   3.888  0.00  0.00    -0.246 OA
ENDROOT
BRANCH  11  13
HETATM   13  C   UNK N   1      28.414  17.763   4.320  0.00  0.00     0.170 C 
BRANCH  13  14
HETATM   14  C   UNK N   1      27.491  16.542   4.326  0.00  0.00     0.168 C 
BRANCH  14  15
HETATM   15  C   UNK N   1      26.042  16.893   4.696  0.00  0.00     0.179 C 
BRANCH  15  16
HETATM   16  C   UNK N   1      25.302  15.759   5.436  0.00  0.00     0.173 C 
BRANCH  16  17
HETATM   17  C   UNK N   1      26.242  15.094   6.435  0.00  0.00     0.198 C 
BRANCH  17  18
HETATM   18  O   UNK N   1      26.271  15.817   7.628  0.00  0.00    -0.398 OA
HETATM   19  H   UNK N   1      26.274  16.787   7.623  0.00  0.00     0.209 HD
ENDBRANCH  17  18
ENDBRANCH  16  17
BRANCH  16  20
HETATM   20  O   UNK N   1      24.189  16.254   6.119  0.00  0.00    -0.391 OA
HETATM   21  H   UNK N   1      23.644  17.051   6.208  0.00  0.00     0.210 HD
ENDBRANCH  16  20
ENDBRANCH  15  16
BRANCH  15  22
HETATM   22  O   UNK N   1      26.065  18.026   5.516  0.00  0.00    -0.390 OA
HETATM   23  H   UNK N   1      26.661  18.730   5.814  0.00  0.00     0.210 HD
ENDBRANCH  15  22
ENDBRANCH  14  15
BRANCH  14  24
HETATM   24  O   UNK N   1      27.532  15.911   3.079  0.00  0.00    -0.391 OA
HETATM   25  H   UNK N   1      27.161  15.175   2.566  0.00  0.00     0.210 HD
ENDBRANCH  14  24
ENDBRANCH  13  14
ENDBRANCH  11  13
BRANCH  10  26
HETATM   26  C   UNK N   1      32.993  17.030   6.257  0.00  0.00     0.136 C 
BRANCH  26  27
HETATM   27  C   UNK N   1      33.322  15.552   6.450  0.00  0.00     0.047 C 
BRANCH  27  28
HETATM   28  C   UNK N   1      34.435  15.362   7.477  0.00  0.00     0.182 C 
BRANCH  28  29
HETATM   29  O   UNK N   1      33.903  15.437   8.772  0.00  0.00    -0.297 OA
BRANCH  29  30
HETATM   30  P   UNK N   1      35.218  15.823   9.841  0.00  0.00     0.390 P 
HETATM   31  O   UNK N   1      35.077  17.186   9.107  0.00  0.00    -0.632 OA
BRANCH  30  32
HETATM   32  O   UNK N   1      35.003  16.925  11.164  0.00  0.00    -0.307 OA
HETATM   33  H   UNK N   1      35.484  17.735  11.391  0.00  0.00     0.222 HD
ENDBRANCH  30  32
BRANCH  30  34
HETATM   34  O   UNK N   1      33.745  15.522  10.708  0.00  0.00    -0.307 OA
HETATM   35  H   UNK N   1      33.057  14.960  10.316  0.00  0.00     0.222 HD
ENDBRANCH  30  34
ENDBRANCH  29  30
ENDBRANCH  28  29
ENDBRANCH  27  28
ENDBRANCH  26  27
ENDBRANCH  10  26
BRANCH   3  36
HETATM   36  O   UNK N   1      32.029  17.387   9.100  0.00  0.00    -0.344 OA
HETATM   37  H   UNK N   1      32.230  17.529  10.004  0.00  0.00     0.219 HD
ENDBRANCH   3  36
BRANCH   4  38
HETATM   38  O   UNK N   1      27.413  18.200   9.489  0.00  0.00    -0.332 OA
HETATM   39  H   UNK N   1      27.489  18.698  10.279  0.00  0.00     0.221 HD
ENDBRANCH   4  38
TORSDOF 18
ENDMDL
MODEL 7
REMARK VINA RESULT:      -6.2      8.074     10.893
REMARK  18 active torsions:
REMARK  status: ('A' for Active; 'I' for Inactive)
REMARK    1  A    between atoms: C_2  and  C_1 
REMARK    2  A    between atoms: C_3  and  C_1 
REMARK    3  A    between atoms: N_18  and  C_2 
REMARK    4  A    between atoms: O_30  and  C_3 
REMARK    5  A    between atoms: C_6  and  C_4 
REMARK    6  A    between atoms: N_19  and  C_4 
REMARK    7  A    between atoms: C_7  and  C_5 
REMARK    8  A    between atoms: O_20  and  C_5 
REMARK    9  A    between atoms: C_9  and  C_6 
REMARK   10  A    between atoms: C_6  and  O_21 
REMARK   11  A    between atoms: C_9  and  C_7 
REMARK   12  A    between atoms: C_7  and  O_22 
REMARK   13  A    between atoms: C_9  and  O_23 
REMARK   14  A    between atoms: O_24  and  C_11 
REMARK   15  A    between atoms: O_25  and  C_12 
REMARK   16  A    between atoms: P_31  and  O_27 
REMARK   17  A    between atoms: P_31  and  O_28 
REMARK   18  A    between atoms: P_31  and  O_30 
ROOT
HETATM    1  C   UNK N   1      30.710  17.359   7.224  0.00  0.00     0.135 A 
HETATM    2  C   UNK N   1      29.432  17.238   6.773  0.00  0.00     0.146 A 
HETATM    3  C   UNK N   1      30.941  17.602   8.573  0.00  0.00     0.174 A 
HETATM    4  C   UNK N   1      28.576  17.573   8.918  0.00  0.00     0.224 A 
HETATM    5  C   UNK N   1      30.752  17.030   5.100  0.00  0.00     0.331 A 
HETATM    6  N   UNK N   1      28.356  17.344   7.588  0.00  0.00    -0.306 N 
ATOM      7  HN  UNK N   1      27.409  17.255   7.220  1.00  0.00     0.171 HD
HETATM    8  N   UNK N   1      29.857  17.702   9.400  0.00  0.00    -0.301 N 
ATOM      9  HN  UNK N   1      30.001  17.875  10.395  1.00  0.00     0.171 HD
HETATM   10  N   UNK N   1      31.561  17.228   6.184  0.00  0.00    -0.292 N 
HETATM   11  N   UNK N   1      29.432  17.045   5.446  0.00  0.00    -0.281 N 
HETATM   12  O   UNK N   1      31.161  16.883   3.961  0.00  0.00    -0.246 OA
ENDROOT
BRANCH  11  13
HETATM   13  C   UNK N   1      28.269  16.952   4.575  0.00  0.00     0.170 C 
BRANCH  13  14
HETATM   14  C   UNK N   1      27.767  18.361   4.252  0.00  0.00     0.168 C 
BRANCH  14  15
HETATM   15  C   UNK N   1      26.709  18.860   5.248  0.00  0.00     0.179 C 
BRANCH  15  16
HETATM   16  C   UNK N   1      26.098  20.225   4.866  0.00  0.00     0.173 C 
BRANCH  16  17
HETATM   17  C   UNK N   1      26.533  21.285   5.870  0.00  0.00     0.198 C 
BRANCH  17  18
HETATM   18  O   UNK N   1      27.704  20.891   6.516  0.00  0.00    -0.398 OA
HETATM   19  H   UNK N   1      27.897  19.953   6.670  0.00  0.00     0.209 HD
ENDBRANCH  17  18
ENDBRANCH  16  17
BRANCH  16  20
HETATM   20  O   UNK N   1      26.507  20.613   3.589  0.00  0.00    -0.391 OA
HETATM   21  H   UNK N   1      26.577  20.284   2.679  0.00  0.00     0.210 HD
ENDBRANCH  16  20
ENDBRANCH  15  16
BRANCH  15  22
HETATM   22  O   UNK N   1      25.686  17.909   5.308  0.00  0.00    -0.390 OA
HETATM   23  H   UNK N   1      25.001  17.573   5.907  0.00  0.00     0.210 HD
ENDBRANCH  15  22
ENDBRANCH  14  15
BRANCH  14  24
HETATM   24  O   UNK N   1      28.847  19.249   4.209  0.00  0.00    -0.391 OA
HETATM   25  H   UNK N   1      29.405  19.824   4.757  0.00  0.00     0.210 HD
ENDBRANCH  14  24
ENDBRANCH  13  14
ENDBRANCH  11  13
BRANCH  10  26
HETATM   26  C   UNK N   1      33.016  17.316   6.185  0.00  0.00     0.136 C 
BRANCH  26  27
HETATM   27  C   UNK N   1      33.649  15.934   6.329  0.00  0.00     0.047 C 
BRANCH  27  28
HETATM   28  C   UNK N   1      34.687  15.915   7.447  0.00  0.00     0.182 C 
BRANCH  28  29
HETATM   29  O   UNK N   1      34.046  15.798   8.688  0.00  0.00    -0.297 OA
BRANCH  29  30
HETATM   30  P   UNK N   1      35.252  16.059   9.912  0.00  0.00     0.390 P 
HETATM   31  O   UNK N   1      35.127  17.508   9.363  0.00  0.00    -0.632 OA
BRANCH  30  32
HETATM   32  O   UNK N   1      34.889  16.959  11.350  0.00  0.00    -0.307 OA
HETATM   33  H   UNK N   1      34.351  16.721  12.121  0.00  0.00     0.222 HD
ENDBRANCH  30  32
BRANCH  30  34
HETATM   34  O   UNK N   1      33.722  15.607  10.596  0.00  0.00    -0.307 OA
HETATM   35  H   UNK N   1      32.968  15.418  10.015  0.00  0.00     0.222 HD
ENDBRANCH  30  34
ENDBRANCH  29  30
ENDBRANCH  28  29
ENDBRANCH  27  28
ENDBRANCH  26  27
ENDBRANCH  10  26
BRANCH   3  36
HETATM   36  O   UNK N   1      32.184  17.748   9.059  0.00  0.00    -0.344 OA
HETATM   37  H   UNK N   1      32.685  18.540   9.067  0.00  0.00     0.219 HD
ENDBRANCH   3  36
BRANCH   4  38
HETATM   38  O   UNK N   1      27.533  17.678   9.757  0.00  0.00    -0.332 OA
HETATM   39  H   UNK N   1      27.437  17.102  10.490  0.00  0.00     0.221 HD
ENDBRANCH   4  38
TORSDOF 18
ENDMDL
MODEL 8
REMARK VINA RESULT:      -6.2      2.753      7.881
REMARK  18 active torsions:
REMARK  status: ('A' for Active; 'I' for Inactive)
REMARK    1  A    between atoms: C_2  and  C_1 
REMARK    2  A    between atoms: C_3  and  C_1 
REMARK    3  A    between atoms: N_18  and  C_2 
REMARK    4  A    between atoms: O_30  and  C_3 
REMARK    5  A    between atoms: C_6  and  C_4 
REMARK    6  A    between atoms: N_19  and  C_4 
REMARK    7  A    between atoms: C_7  and  C_5 
REMARK    8  A    between atoms: O_20  and  C_5 
REMARK    9  A    between atoms: C_9  and  C_6 
REMARK   10  A    between atoms: C_6  and  O_21 
REMARK   11  A    between atoms: C_9  and  C_7 
REMARK   12  A    between atoms: C_7  and  O_22 
REMARK   13  A    between atoms: C_9  and  O_23 
REMARK   14  A    between atoms: O_24  and  C_11 
REMARK   15  A    between atoms: O_25  and  C_12 
REMARK   16  A    between atoms: P_31  and  O_27 
REMARK   17  A    between atoms: P_31  and  O_28 
REMARK   18  A    between atoms: P_31  and  O_30 
ROOT
HETATM    1  C   UNK N   1      20.650  15.226   7.194  0.00  0.00     0.135 A 
HETATM    2  C   UNK N   1      20.977  16.359   6.515  0.00  0.00     0.146 A 
HETATM    3  C   UNK N   1      20.059  15.325   8.448  0.00  0.00     0.174 A 
HETATM    4  C   UNK N   1      20.161  17.704   8.238  0.00  0.00     0.224 A 
HETATM    5  C   UNK N   1      21.569  14.676   5.330  0.00  0.00     0.331 A 
HETATM    6  N   UNK N   1      20.751  17.598   7.009  0.00  0.00    -0.306 N 
ATOM      7  HN  UNK N   1      21.013  18.430   6.480  1.00  0.00     0.171 HD
HETATM    8  N   UNK N   1      19.823  16.576   8.947  0.00  0.00    -0.301 N 
ATOM      9  HN  UNK N   1      19.386  16.674   9.864  1.00  0.00     0.171 HD
HETATM   10  N   UNK N   1      21.012  14.150   6.462  0.00  0.00    -0.292 N 
HETATM   11  N   UNK N   1      21.565  16.041   5.352  0.00  0.00    -0.281 N 
HETATM   12  O   UNK N   1      22.032  14.006   4.423  0.00  0.00    -0.246 OA
ENDROOT
BRANCH  11  13
HETATM   13  C   UNK N   1      22.135  16.962   4.379  0.00  0.00     0.170 C 
BRANCH  13  14
HETATM   14  C   UNK N   1      21.011  17.553   3.527  0.00  0.00     0.168 C 
BRANCH  14  15
HETATM   15  C   UNK N   1      21.042  19.088   3.479  0.00  0.00     0.179 C 
BRANCH  15  16
HETATM   16  C   UNK N   1      19.876  19.705   2.678  0.00  0.00     0.173 C 
BRANCH  16  17
HETATM   17  C   UNK N   1      20.416  20.408   1.439  0.00  0.00     0.198 C 
BRANCH  17  18
HETATM   18  O   UNK N   1      20.984  21.634   1.784  0.00  0.00    -0.398 OA
HETATM   19  H   UNK N   1      21.041  21.913   2.712  0.00  0.00     0.209 HD
ENDBRANCH  17  18
ENDBRANCH  16  17
BRANCH  16  20
HETATM   20  O   UNK N   1      18.969  18.720   2.282  0.00  0.00    -0.391 OA
HETATM   21  H   UNK N   1      18.782  18.105   1.556  0.00  0.00     0.210 HD
ENDBRANCH  16  20
ENDBRANCH  15  16
BRANCH  15  22
HETATM   22  O   UNK N   1      20.989  19.565   4.793  0.00  0.00    -0.390 OA
HETATM   23  H   UNK N   1      21.334  20.278   5.352  0.00  0.00     0.210 HD
ENDBRANCH  15  22
ENDBRANCH  14  15
BRANCH  14  24
HETATM   24  O   UNK N   1      21.072  17.028   2.231  0.00  0.00    -0.391 OA
HETATM   25  H   UNK N   1      21.602  17.024   1.418  0.00  0.00     0.210 HD
ENDBRANCH  14  24
ENDBRANCH  13  14
ENDBRANCH  11  13
BRANCH  10  26
HETATM   26  C   UNK N   1      20.887  12.738   6.800  0.00  0.00     0.136 C 
BRANCH  26  27
HETATM   27  C   UNK N   1      22.254  12.116   7.075  0.00  0.00     0.047 C 
BRANCH  27  28
HETATM   28  C   UNK N   1      22.702  12.377   8.510  0.00  0.00     0.182 C 
BRANCH  28  29
HETATM   29  O   UNK N   1      21.611  12.246   9.379  0.00  0.00    -0.297 OA
BRANCH  29  30
HETATM   30  P   UNK N   1      22.252  12.170  10.994  0.00  0.00     0.390 P 
HETATM   31  O   UNK N   1      23.075  11.026  10.337  0.00  0.00    -0.632 OA
BRANCH  30  32
HETATM   32  O   UNK N   1      23.881  12.658  11.335  0.00  0.00    -0.307 OA
HETATM   33  H   UNK N   1      24.325  12.817  12.181  0.00  0.00     0.222 HD
ENDBRANCH  30  32
BRANCH  30  34
HETATM   34  O   UNK N   1      22.667  13.657  10.200  0.00  0.00    -0.307 OA
HETATM   35  H   UNK N   1      23.559  14.025  10.295  0.00  0.00     0.222 HD
ENDBRANCH  30  34
ENDBRANCH  29  30
ENDBRANCH  28  29
ENDBRANCH  27  28
ENDBRANCH  26  27
ENDBRANCH  10  26
BRANCH   3  36
HETATM   36  O   UNK N   1      19.738  14.235   9.163  0.00  0.00    -0.344 OA
HETATM   37  H   UNK N   1      20.274  13.820   9.809  0.00  0.00     0.219 HD
ENDBRANCH   3  36
BRANCH   4  38
HETATM   38  O   UNK N   1      19.917  18.918   8.758  0.00  0.00    -0.332 OA
HETATM   39  H   UNK N   1      19.073  19.318   8.685  0.00  0.00     0.221 HD
ENDBRANCH   4  38
TORSDOF 18
ENDMDL
MODEL 9
REMARK VINA RESULT:      -6.2      9.219     10.749
REMARK  18 active torsions:
REMARK  status: ('A' for Active; 'I' for Inactive)
REMARK    1  A    between atoms: C_2  and  C_1 
REMARK    2  A    between atoms: C_3  and  C_1 
REMARK    3  A    between atoms: N_18  and  C_2 
REMARK    4  A    between atoms: O_30  and  C_3 
REMARK    5  A    between atoms: C_6  and  C_4 
REMARK    6  A    between atoms: N_19  and  C_4 
REMARK    7  A    between atoms: C_7  and  C_5 
REMARK    8  A    between atoms: O_20  and  C_5 
REMARK    9  A    between atoms: C_9  and  C_6 
REMARK   10  A    between atoms: C_6  and  O_21 
REMARK   11  A    between atoms: C_9  and  C_7 
REMARK   12  A    between atoms: C_7  and  O_22 
REMARK   13  A    between atoms: C_9  and  O_23 
REMARK   14  A    between atoms: O_24  and  C_11 
REMARK   15  A    between atoms: O_25  and  C_12 
REMARK   16  A    between atoms: P_31  and  O_27 
REMARK   17  A    between atoms: P_31  and  O_28 
REMARK   18  A    between atoms: P_31  and  O_30 
ROOT
HETATM    1  C   UNK N   1      30.003  17.382   6.379  0.00  0.00     0.135 A 
HETATM    2  C   UNK N   1      30.425  17.352   7.672  0.00  0.00     0.146 A 
HETATM    3  C   UNK N   1      28.662  17.619   6.101  0.00  0.00     0.174 A 
HETATM    4  C   UNK N   1      28.269  17.790   8.452  0.00  0.00     0.224 A 
HETATM    5  C   UNK N   1      32.110  16.953   6.411  0.00  0.00     0.331 A 
HETATM    6  N   UNK N   1      29.588  17.546   8.718  0.00  0.00    -0.306 N 
ATOM      7  HN  UNK N   1      29.932  17.512   9.678  1.00  0.00     0.171 HD
HETATM    8  N   UNK N   1      27.816  17.823   7.155  0.00  0.00    -0.301 N 
ATOM      9  HN  UNK N   1      26.828  18.004   6.976  1.00  0.00     0.171 HD
HETATM   10  N   UNK N   1      31.052  17.135   5.565  0.00  0.00    -0.292 N 
HETATM   11  N   UNK N   1      31.736  17.073   7.719  0.00  0.00    -0.281 N 
HETATM   12  O   UNK N   1      33.241  16.693   6.042  0.00  0.00    -0.246 OA
ENDROOT
BRANCH  11  13
HETATM   13  C   UNK N   1      32.545  16.871   8.912  0.00  0.00     0.170 C 
BRANCH  13  14
HETATM   14  C   UNK N   1      32.411  15.418   9.371  0.00  0.00     0.168 C 
BRANCH  14  15
HETATM   15  C   UNK N   1      33.737  14.827   9.875  0.00  0.00     0.179 C 
BRANCH  15  16
HETATM   16  C   UNK N   1      34.984  15.492   9.255  0.00  0.00     0.173 C 
BRANCH  16  17
HETATM   17  C   UNK N   1      36.224  15.111  10.055  0.00  0.00     0.198 C 
BRANCH  17  18
HETATM   18  O   UNK N   1      36.661  16.192  10.818  0.00  0.00    -0.398 OA
HETATM   19  H   UNK N   1      37.357  16.784  10.491  0.00  0.00     0.209 HD
ENDBRANCH  17  18
ENDBRANCH  16  17
BRANCH  16  20
HETATM   20  O   UNK N   1      35.156  15.088   7.930  0.00  0.00    -0.391 OA
HETATM   21  H   UNK N   1      35.765  15.179   7.180  0.00  0.00     0.210 HD
ENDBRANCH  16  20
ENDBRANCH  15  16
BRANCH  15  22
HETATM   22  O   UNK N   1      33.783  14.986  11.263  0.00  0.00    -0.390 OA
HETATM   23  H   UNK N   1      34.027  15.635  11.942  0.00  0.00     0.210 HD
ENDBRANCH  15  22
ENDBRANCH  14  15
BRANCH  14  24
HETATM   24  O   UNK N   1      31.432  15.324  10.366  0.00  0.00    -0.391 OA
HETATM   25  H   UNK N   1      30.819  15.848  10.907  0.00  0.00     0.210 HD
ENDBRANCH  14  24
ENDBRANCH  13  14
ENDBRANCH  11  13
BRANCH  10  26
HETATM   26  C   UNK N   1      31.069  17.038   4.110  0.00  0.00     0.136 C 
BRANCH  26  27
HETATM   27  C   UNK N   1      30.856  15.596   3.654  0.00  0.00     0.047 C 
BRANCH  27  28
HETATM   28  C   UNK N   1      32.170  14.950   3.228  0.00  0.00     0.182 C 
BRANCH  28  29
HETATM   29  O   UNK N   1      32.438  13.839   4.040  0.00  0.00    -0.297 OA
BRANCH  29  30
HETATM   30  P   UNK N   1      34.164  13.635   4.071  0.00  0.00     0.390 P 
HETATM   31  O   UNK N   1      34.079  14.977   3.292  0.00  0.00    -0.632 OA
BRANCH  30  32
HETATM   32  O   UNK N   1      35.172  14.672   5.030  0.00  0.00    -0.307 OA
HETATM   33  H   UNK N   1      35.576  14.526   5.898  0.00  0.00     0.222 HD
ENDBRANCH  30  32
BRANCH  30  34
HETATM   34  O   UNK N   1      33.512  13.891   5.659  0.00  0.00    -0.307 OA
HETATM   35  H   UNK N   1      32.645  13.525   5.893  0.00  0.00     0.222 HD
ENDBRANCH  30  34
ENDBRANCH  29  30
ENDBRANCH  28  29
ENDBRANCH  27  28
ENDBRANCH  26  27
ENDBRANCH  10  26
BRANCH   3  36
HETATM   36  O   UNK N   1      28.197  17.637   4.841  0.00  0.00    -0.344 OA
HETATM   37  H   UNK N   1      28.362  16.993   4.181  0.00  0.00     0.219 HD
ENDBRANCH   3  36
BRANCH   4  38
HETATM   38  O   UNK N   1      27.412  17.993   9.465  0.00  0.00    -0.332 OA
HETATM   39  H   UNK N   1      26.751  18.655   9.418  0.00  0.00     0.221 HD
ENDBRANCH   4  38
TORSDOF 18
ENDMDL
