REMARK  15 active torsions:
REMARK  status: ('A' for Active; 'I' for Inactive)
REMARK    1  A    between atoms: C_4  and  C_3 
REMARK    2  A    between atoms: C_5  and  C_3 
REMARK    3  A    between atoms: C_6  and  C_4 
REMARK    4  A    between atoms: C_8  and  C_5 
REMARK    5  A    between atoms: C_9  and  C_6 
REMARK    6  A    between atoms: C_10  and  C_7 
REMARK    7  A    between atoms: N_18  and  C_7 
REMARK    8  A    between atoms: C_15  and  C_8 
REMARK    9  A    between atoms: C_8  and  N_19 
REMARK   10  A    between atoms: C_9  and  O_24 
REMARK   11  A    between atoms: C_10  and  O_26 
REMARK   12  A    between atoms: C_11  and  N_21 
REMARK   13  A    between atoms: C_12  and  C_16 
REMARK   14  A    between atoms: O_29  and  C_15 
REMARK   15  A    between atoms: O_31  and  C_16 
ROOT
HETATM    1  C   UNK N   1       2.012   4.478  -0.818  0.00  0.00     0.111 C 
HETATM    2  N   UNK N   1       1.068   5.345  -0.955  0.00  0.00    -0.359 N 
ATOM      3  HN  UNK N   1       0.859   5.701  -1.888  1.00  0.00     0.162 HD
ENDROOT
BRANCH   1   4
HETATM    4  C   UNK N   1       2.303   3.857   0.523  0.00  0.00     0.083 C 
BRANCH   4   5
HETATM    5  C   UNK N   1       3.647   4.268   1.073  0.00  0.00     0.008 C 
BRANCH   5   6
HETATM    6  C   UNK N   1       4.603   3.105   0.967  0.00  0.00     0.003 C 
BRANCH   6   7
HETATM    7  C   UNK N   1       4.957   2.893  -0.496  0.00  0.00     0.036 C 
BRANCH   7   8
HETATM    8  C   UNK N   1       6.412   2.470  -0.680  0.00  0.00     0.181 C 
BRANCH   8   9
HETATM    9  C   UNK N   1       7.362   3.573  -0.266  0.00  0.00     0.163 C 
HETATM   10  O   UNK N   1       6.944   4.635   0.174  0.00  0.00    -0.648 OA
BRANCH   9  11
HETATM   11  O   UNK N   1       8.688   3.392  -0.396  0.00  0.00    -0.775 OA
HETATM   12  H   UNK N   1       9.042   2.529  -0.488  0.00  0.00     0.167 HD
ENDBRANCH   9  11
ENDBRANCH   8   9
BRANCH   8  13
HETATM   13  N   UNK N   1       6.693   1.259   0.073  0.00  0.00    -0.359 N 
HETATM   14  C   UNK N   1       6.029   0.159  -0.073  0.00  0.00     0.129 C 
ATOM     15  HN  UNK N   1       7.454   1.278   0.753  1.00  0.00     0.162 HD
BRANCH  14  16
HETATM   16  C   UNK N   1       6.381  -1.031   0.752  0.00  0.00     0.195 C 
BRANCH  16  17
HETATM   17  N   UNK N   1       6.668  -2.161  -0.113  0.00  0.00    -0.423 N 
HETATM   18  H   UNK N   1       6.081  -2.732  -0.721  0.00  0.00     0.150 HD
HETATM   19  H   UNK N   1       7.649  -2.438  -0.113  0.00  0.00     0.150 HD
ENDBRANCH  16  17
ENDBRANCH  14  16
BRANCH  14  20
HETATM   20  O   UNK N   1       5.001   0.078  -0.945  0.00  0.00    -0.348 OA
HETATM   21  H   UNK N   1       4.595   0.667  -1.550  0.00  0.00     0.219 HD
ENDBRANCH  14  20
ENDBRANCH   8  13
ENDBRANCH   7   8
ENDBRANCH   6   7
ENDBRANCH   5   6
ENDBRANCH   4   5
ENDBRANCH   1   4
BRANCH   1  22
HETATM   22  O   UNK N   1       2.716   4.096  -1.900  0.00  0.00    -0.350 OA
ATOM     23  HO  UNK N   1       2.533   4.488  -2.746  1.00  0.00     0.219 HD
ENDBRANCH   1  22
BRANCH   2  24
HETATM   24  C   UNK N   1       0.296   5.833   0.166  0.00  0.00     0.209 A 
HETATM   25  C   UNK N   1      -1.077   6.221  -0.225  0.00  0.00     0.247 A 
HETATM   26  N   UNK N   1      -1.695   5.284   0.419  0.00  0.00    -0.318 N 
HETATM   27  O   UNK N   1      -1.543   7.050  -0.995  0.00  0.00    -0.271 OA
HETATM   28  C   UNK N   1      -2.957   4.647   0.503  0.00  0.00     0.204 C 
HETATM   29  C   UNK N   1      -0.551   4.678   0.964  0.00  0.00     0.183 A 
HETATM   30  C   UNK N   1      -2.597   3.212   0.024  0.00  0.00     0.033 C 
HETATM   31  C   UNK N   1      -2.753   3.028  -1.478  0.00  0.00     0.029 C 
HETATM   32  C   UNK N   1      -3.439   2.174   0.744  0.00  0.00     0.029 C 
HETATM   33  S   UNK N   1      -0.784   2.954   0.379  0.00  0.00    -0.129 SA
BRANCH  28  34
HETATM   34  C   UNK N   1      -4.062   5.360  -0.241  0.00  0.00     0.165 C 
HETATM   35  O   UNK N   1      -5.046   5.752   0.364  0.00  0.00    -0.648 OA
BRANCH  34  36
HETATM   36  O   UNK N   1      -3.963   5.589  -1.566  0.00  0.00    -0.775 OA
HETATM   37  H   UNK N   1      -3.791   5.609  -2.487  0.00  0.00     0.167 HD
ENDBRANCH  34  36
ENDBRANCH  28  34
ENDBRANCH   2  24
TORSDOF 15
