MODEL 1
REMARK VINA RESULT:      -4.0      0.000      0.000
REMARK  2 active torsions:
REMARK  status: ('A' for Active; 'I' for Inactive)
REMARK       I    between atoms: N_1  and  C_2 
REMARK    1  A    between atoms: C_2  and  C_4 
REMARK    2  A    between atoms: C_4  and  O_5 
ROOT
HETATM    1  N   UNK N   1      20.330  19.031   1.173  0.00  0.00    -0.361 N 
HETATM    2  C   UNK N   1      20.885  20.257   1.236  0.00  0.00     0.312 C 
HETATM    3  O   UNK N   1      21.166  20.848   0.206  0.00  0.00    -0.261 OA
HETATM    4  H   UNK N   1      20.153  18.614   0.298  0.00  0.00     0.159 HD
HETATM    5  H   UNK N   1      20.101  18.550   2.002  0.00  0.00     0.159 HD
ENDROOT
BRANCH   2   6
HETATM    6  C   UNK N   1      21.152  20.884   2.541  0.00  0.00     0.236 C 
HETATM    7  O   UNK N   1      20.434  20.644   3.498  0.00  0.00    -0.643 OA
BRANCH   6   8
HETATM    8  O   UNK N   1      22.194  21.727   2.682  0.00  0.00    -0.769 OA
HETATM    9  H   UNK N   1      23.069  21.393   2.682  0.00  0.00     0.168 HD
ENDBRANCH   6   8
ENDBRANCH   2   6
TORSDOF 2
ENDMDL
MODEL 2
REMARK VINA RESULT:      -3.9     15.088     15.760
REMARK  2 active torsions:
REMARK  status: ('A' for Active; 'I' for Inactive)
REMARK       I    between atoms: N_1  and  C_2 
REMARK    1  A    between atoms: C_2  and  C_4 
REMARK    2  A    between atoms: C_4  and  O_5 
ROOT
HETATM    1  N   UNK N   1      33.602  16.489   9.350  0.00  0.00    -0.361 N 
HETATM    2  C   UNK N   1      34.657  17.327   9.364  0.00  0.00     0.312 C 
HETATM    3  O   UNK N   1      35.474  17.255  10.267  0.00  0.00    -0.261 OA
HETATM    4  H   UNK N   1      33.492  15.822  10.066  0.00  0.00     0.159 HD
HETATM    5  H   UNK N   1      32.939  16.542   8.622  0.00  0.00     0.159 HD
ENDROOT
BRANCH   2   6
HETATM    6  C   UNK N   1      34.825  18.325   8.295  0.00  0.00     0.236 C 
HETATM    7  O   UNK N   1      35.348  19.402   8.536  0.00  0.00    -0.643 OA
BRANCH   6   8
HETATM    8  O   UNK N   1      34.402  18.052   7.046  0.00  0.00    -0.769 OA
HETATM    9  H   UNK N   1      34.841  18.433   6.310  0.00  0.00     0.168 HD
ENDBRANCH   6   8
ENDBRANCH   2   6
TORSDOF 2
ENDMDL
MODEL 3
REMARK VINA RESULT:      -3.8      1.124      2.492
REMARK  2 active torsions:
REMARK  status: ('A' for Active; 'I' for Inactive)
REMARK       I    between atoms: N_1  and  C_2 
REMARK    1  A    between atoms: C_2  and  C_4 
REMARK    2  A    between atoms: C_4  and  O_5 
ROOT
HETATM    1  N   UNK N   1      19.149  19.126   2.452  0.00  0.00    -0.361 N 
HETATM    2  C   UNK N   1      20.151  20.013   2.613  0.00  0.00     0.312 C 
HETATM    3  O   UNK N   1      20.321  20.541   3.700  0.00  0.00    -0.261 OA
HETATM    4  H   UNK N   1      18.558  18.906   3.208  0.00  0.00     0.159 HD
HETATM    5  H   UNK N   1      19.007  18.696   1.576  0.00  0.00     0.159 HD
ENDROOT
BRANCH   2   6
HETATM    6  C   UNK N   1      21.037  20.345   1.486  0.00  0.00     0.236 C 
HETATM    7  O   UNK N   1      22.135  20.836   1.691  0.00  0.00    -0.643 OA
BRANCH   6   8
HETATM    8  O   UNK N   1      20.637  20.106   0.222  0.00  0.00    -0.769 OA
HETATM    9  H   UNK N   1      20.473  19.227  -0.058  0.00  0.00     0.168 HD
ENDBRANCH   6   8
ENDBRANCH   2   6
TORSDOF 2
ENDMDL
MODEL 4
REMARK VINA RESULT:      -3.6     12.874     13.546
REMARK  2 active torsions:
REMARK  status: ('A' for Active; 'I' for Inactive)
REMARK       I    between atoms: N_1  and  C_2 
REMARK    1  A    between atoms: C_2  and  C_4 
REMARK    2  A    between atoms: C_4  and  O_5 
ROOT
HETATM    1  N   UNK N   1      21.929  11.640  12.160  0.00  0.00    -0.361 N 
HETATM    2  C   UNK N   1      23.224  11.946  12.373  0.00  0.00     0.312 C 
HETATM    3  O   UNK N   1      23.632  12.084  13.514  0.00  0.00    -0.261 OA
HETATM    4  H   UNK N   1      21.316  11.529  12.923  0.00  0.00     0.159 HD
HETATM    5  H   UNK N   1      21.594  11.528  11.240  0.00  0.00     0.159 HD
ENDROOT
BRANCH   2   6
HETATM    6  C   UNK N   1      24.143  12.114  11.236  0.00  0.00     0.236 C 
HETATM    7  O   UNK N   1      23.803  11.775  10.114  0.00  0.00    -0.643 OA
BRANCH   6   8
HETATM    8  O   UNK N   1      25.367  12.643  11.432  0.00  0.00    -0.769 OA
HETATM    9  H   UNK N   1      25.922  12.820  10.698  0.00  0.00     0.168 HD
ENDBRANCH   6   8
ENDBRANCH   2   6
TORSDOF 2
ENDMDL
MODEL 5
REMARK VINA RESULT:      -3.6     14.137     14.693
REMARK  2 active torsions:
REMARK  status: ('A' for Active; 'I' for Inactive)
REMARK       I    between atoms: N_1  and  C_2 
REMARK    1  A    between atoms: C_2  and  C_4 
REMARK    2  A    between atoms: C_4  and  O_5 
ROOT
HETATM    1  N   UNK N   1      32.545  17.226   7.295  0.00  0.00    -0.361 N 
HETATM    2  C   UNK N   1      33.788  17.741   7.226  0.00  0.00     0.312 C 
HETATM    3  O   UNK N   1      34.330  17.869   6.140  0.00  0.00    -0.261 OA
HETATM    4  H   UNK N   1      32.077  16.954   6.473  0.00  0.00     0.159 HD
HETATM    5  H   UNK N   1      32.103  17.121   8.170  0.00  0.00     0.159 HD
ENDROOT
BRANCH   2   6
HETATM    6  C   UNK N   1      34.492  18.149   8.452  0.00  0.00     0.236 C 
HETATM    7  O   UNK N   1      35.235  19.118   8.442  0.00  0.00    -0.643 OA
BRANCH   6   8
HETATM    8  O   UNK N   1      34.318  17.452   9.592  0.00  0.00    -0.769 OA
HETATM    9  H   UNK N   1      35.043  17.003   9.981  0.00  0.00     0.168 HD
ENDBRANCH   6   8
ENDBRANCH   2   6
TORSDOF 2
ENDMDL
MODEL 6
REMARK VINA RESULT:      -3.6     17.047     17.633
REMARK  2 active torsions:
REMARK  status: ('A' for Active; 'I' for Inactive)
REMARK       I    between atoms: N_1  and  C_2 
REMARK    1  A    between atoms: C_2  and  C_4 
REMARK    2  A    between atoms: C_4  and  O_5 
ROOT
HETATM    1  N   UNK N   1      33.438  15.066  10.721  0.00  0.00    -0.361 N 
HETATM    2  C   UNK N   1      34.634  15.184  11.330  0.00  0.00     0.312 C 
HETATM    3  O   UNK N   1      34.937  14.409  12.222  0.00  0.00    -0.261 OA
HETATM    4  H   UNK N   1      32.812  14.358  10.996  0.00  0.00     0.159 HD
HETATM    5  H   UNK N   1      33.188  15.690   9.999  0.00  0.00     0.159 HD
ENDROOT
BRANCH   2   6
HETATM    6  C   UNK N   1      35.574  16.241  10.922  0.00  0.00     0.236 C 
HETATM    7  O   UNK N   1      35.155  17.326  10.551  0.00  0.00    -0.643 OA
BRANCH   6   8
HETATM    8  O   UNK N   1      36.901  16.013  10.957  0.00  0.00    -0.769 OA
HETATM    9  H   UNK N   1      37.346  15.723  10.185  0.00  0.00     0.168 HD
ENDBRANCH   6   8
ENDBRANCH   2   6
TORSDOF 2
ENDMDL
MODEL 7
REMARK VINA RESULT:      -3.6     13.998     14.608
REMARK  2 active torsions:
REMARK  status: ('A' for Active; 'I' for Inactive)
REMARK       I    between atoms: N_1  and  C_2 
REMARK    1  A    between atoms: C_2  and  C_4 
REMARK    2  A    between atoms: C_4  and  O_5 
ROOT
HETATM    1  N   UNK N   1      33.387  16.559   9.324  0.00  0.00    -0.361 N 
HETATM    2  C   UNK N   1      33.192  17.658   8.568  0.00  0.00     0.312 C 
HETATM    3  O   UNK N   1      32.082  18.159   8.506  0.00  0.00    -0.261 OA
HETATM    4  H   UNK N   1      32.636  16.163   9.823  0.00  0.00     0.159 HD
HETATM    5  H   UNK N   1      34.282  16.150   9.378  0.00  0.00     0.159 HD
ENDROOT
BRANCH   2   6
HETATM    6  C   UNK N   1      34.312  18.252   7.821  0.00  0.00     0.236 C 
HETATM    7  O   UNK N   1      34.541  17.903   6.674  0.00  0.00    -0.643 OA
BRANCH   6   8
HETATM    8  O   UNK N   1      35.090  19.186   8.403  0.00  0.00    -0.769 OA
HETATM    9  H   UNK N   1      35.596  18.967   9.161  0.00  0.00     0.168 HD
ENDBRANCH   6   8
ENDBRANCH   2   6
TORSDOF 2
ENDMDL
MODEL 8
REMARK VINA RESULT:      -3.5     12.718     13.369
REMARK  2 active torsions:
REMARK  status: ('A' for Active; 'I' for Inactive)
REMARK       I    between atoms: N_1  and  C_2 
REMARK    1  A    between atoms: C_2  and  C_4 
REMARK    2  A    between atoms: C_4  and  O_5 
ROOT
HETATM    1  N   UNK N   1      25.115  12.684  11.022  0.00  0.00    -0.361 N 
HETATM    2  C   UNK N   1      23.917  12.067  11.033  0.00  0.00     0.312 C 
HETATM    3  O   UNK N   1      23.461  11.615   9.995  0.00  0.00    -0.261 OA
HETATM    4  H   UNK N   1      25.619  12.769  10.181  0.00  0.00     0.159 HD
HETATM    5  H   UNK N   1      25.488  13.051  11.857  0.00  0.00     0.159 HD
ENDROOT
BRANCH   2   6
HETATM    6  C   UNK N   1      23.160  11.937  12.288  0.00  0.00     0.236 C 
HETATM    7  O   UNK N   1      23.725  12.063  13.363  0.00  0.00    -0.643 OA
BRANCH   6   8
HETATM    8  O   UNK N   1      21.839  11.679  12.254  0.00  0.00    -0.769 OA
HETATM    9  H   UNK N   1      21.405  11.570  11.430  0.00  0.00     0.168 HD
ENDBRANCH   6   8
ENDBRANCH   2   6
TORSDOF 2
ENDMDL
MODEL 9
REMARK VINA RESULT:      -3.3      1.691      2.681
REMARK  2 active torsions:
REMARK  status: ('A' for Active; 'I' for Inactive)
REMARK       I    between atoms: N_1  and  C_2 
REMARK    1  A    between atoms: C_2  and  C_4 
REMARK    2  A    between atoms: C_4  and  O_5 
ROOT
HETATM    1  N   UNK N   1      22.696  20.474   2.711  0.00  0.00    -0.361 N 
HETATM    2  C   UNK N   1      21.368  20.497   2.484  0.00  0.00     0.312 C 
HETATM    3  O   UNK N   1      20.626  21.033   3.290  0.00  0.00    -0.261 OA
HETATM    4  H   UNK N   1      23.065  20.890   3.524  0.00  0.00     0.159 HD
HETATM    5  H   UNK N   1      23.300  20.043   2.063  0.00  0.00     0.159 HD
ENDROOT
BRANCH   2   6
HETATM    6  C   UNK N   1      20.813  19.878   1.270  0.00  0.00     0.236 C 
HETATM    7  O   UNK N   1      20.459  18.709   1.281  0.00  0.00    -0.643 OA
BRANCH   6   8
HETATM    8  O   UNK N   1      20.692  20.601   0.140  0.00  0.00    -0.769 OA
HETATM    9  H   UNK N   1      21.288  20.462  -0.570  0.00  0.00     0.168 HD
ENDBRANCH   6   8
ENDBRANCH   2   6
TORSDOF 2
ENDMDL
