REMARK  6 active torsions:
REMARK  status: ('A' for Active; 'I' for Inactive)
REMARK    1  A    between atoms: O_1  and  C_2 
REMARK    2  A    between atoms: C_3  and  C_2 
REMARK    3  A    between atoms: C_5  and  S_6 
REMARK    4  A    between atoms: C_7  and  O_8 
REMARK    5  A    between atoms: C_9  and  O_10 
REMARK    6  A    between atoms: C_11  and  S_12 
ROOT
HETATM    1  C   UNK N   1       1.935   0.914  -0.169  0.00  0.00     0.162 C 
HETATM    2  O   UNK N   1       1.831  -0.402   0.321  0.00  0.00    -0.364 OA
HETATM    3  C   UNK N   1       0.745  -1.023  -0.326  0.00  0.00     0.211 C 
HETATM    4  C   UNK N   1      -0.555  -0.420   0.208  0.00  0.00     0.186 C 
HETATM    5  C   UNK N   1      -0.563   1.062  -0.148  0.00  0.00     0.166 C 
HETATM    6  C   UNK N   1       0.725   1.738   0.332  0.00  0.00     0.107 C 
ENDROOT
BRANCH   1   7
HETATM    7  C   UNK N   1       3.260   1.478   0.338  0.00  0.00     0.197 C 
BRANCH   7   8
HETATM    8  O   UNK N   1       3.599   2.658  -0.324  0.00  0.00    -0.398 OA
HETATM    9  H   UNK N   1       4.427   2.864  -0.785  0.00  0.00     0.209 HD
ENDBRANCH   7   8
ENDBRANCH   1   7
BRANCH   6  10
HETATM   10  S   UNK N   1       0.742   3.454  -0.289  0.00  0.00    -0.172 SA
HETATM   11  H   UNK N   1       1.856   4.082  -0.751  0.00  0.00     0.102 HD
ENDBRANCH   6  10
BRANCH   3  12
HETATM   12  S   UNK N   1       0.805  -2.807   0.020  0.00  0.00    -0.148 SA
HETATM   13  H   UNK N   1      -0.328  -3.513   0.278  0.00  0.00     0.104 HD
ENDBRANCH   3  12
BRANCH   5  14
HETATM   14  O   UNK N   1      -1.678   1.684   0.414  0.00  0.00    -0.392 OA
HETATM   15  H   UNK N   1      -1.691   2.571   0.805  0.00  0.00     0.210 HD
ENDBRANCH   5  14
BRANCH   4  16
HETATM   16  O   UNK N   1      -1.660  -1.045  -0.377  0.00  0.00    -0.390 OA
HETATM   17  H   UNK N   1      -2.419  -0.598  -0.783  0.00  0.00     0.210 HD
ENDBRANCH   4  16
TORSDOF 6
