MODEL 1
REMARK VINA RESULT:      -5.5      0.000      0.000
REMARK  12 active torsions:
REMARK  status: ('A' for Active; 'I' for Inactive)
REMARK    1  A    between atoms: C_2  and  C_1 
REMARK    2  A    between atoms: O_13  and  C_1 
REMARK    3  A    between atoms: C_3  and  C_2 
REMARK    4  A    between atoms: C_2  and  O_6 
REMARK    5  A    between atoms: C_4  and  C_3 
REMARK    6  A    between atoms: C_3  and  O_7 
REMARK    7  A    between atoms: N_5  and  C_4 
REMARK    8  A    between atoms: C_4  and  O_8 
REMARK    9  A    between atoms: O_9  and  N_5 
REMARK   10  A    between atoms: P_14  and  O_10 
REMARK   11  A    between atoms: P_14  and  O_11 
REMARK   12  A    between atoms: P_14  and  O_13 
ROOT
HETATM    1  C   UNK N   1      35.727  15.768  11.297  0.00  0.00     0.175 C 
ENDROOT
BRANCH   1   2
HETATM    2  C   UNK N   1      34.701  16.418  10.371  0.00  0.00     0.215 C 
BRANCH   2   3
HETATM    3  O   UNK N   1      35.197  17.546   9.711  0.00  0.00    -0.294 OA
BRANCH   3   4
HETATM    4  P   UNK N   1      34.056  17.798   8.419  0.00  0.00     0.390 P 
HETATM    5  O   UNK N   1      34.723  16.461   7.994  0.00  0.00    -0.632 OA
BRANCH   4   6
HETATM    6  O   UNK N   1      34.574  18.126   6.796  0.00  0.00    -0.307 OA
HETATM    7  H   UNK N   1      35.305  18.641   6.417  0.00  0.00     0.222 HD
ENDBRANCH   4   6
BRANCH   4   8
HETATM    8  O   UNK N   1      35.245  19.062   8.400  0.00  0.00    -0.307 OA
HETATM    9  H   UNK N   1      35.673  19.550   9.120  0.00  0.00     0.222 HD
ENDBRANCH   4   8
ENDBRANCH   3   4
ENDBRANCH   2   3
ENDBRANCH   1   2
BRANCH   1  10
HETATM   10  C   UNK N   1      35.521  14.244  11.448  0.00  0.00     0.199 C 
BRANCH  10  11
HETATM   11  C   UNK N   1      36.582  13.590  12.355  0.00  0.00     0.270 C 
BRANCH  11  12
HETATM   12  N   UNK N   1      36.798  14.409  13.548  0.00  0.00    -0.273 N 
HETATM   13  H   UNK N   1      37.429  15.208  13.618  0.00  0.00     0.190 HD
BRANCH  12  14
HETATM   14  O   UNK N   1      36.019  13.927  14.544  0.00  0.00    -0.292 OA
HETATM   15  H   UNK N   1      36.181  14.197  15.460  0.00  0.00     0.244 HD
ENDBRANCH  12  14
ENDBRANCH  11  12
BRANCH  11  16
HETATM   16  O   UNK N   1      37.789  13.430  11.666  0.00  0.00    -0.372 OA
HETATM   17  H   UNK N   1      38.096  14.111  11.048  0.00  0.00     0.212 HD
ENDBRANCH  11  16
ENDBRANCH  10  11
BRANCH  10  18
HETATM   18  O   UNK N   1      34.259  13.994  12.000  0.00  0.00    -0.388 OA
HETATM   19  H   UNK N   1      33.605  13.474  11.506  0.00  0.00     0.210 HD
ENDBRANCH  10  18
ENDBRANCH   1  10
BRANCH   1  20
HETATM   20  O   UNK N   1      37.017  16.050  10.841  0.00  0.00    -0.391 OA
HETATM   21  H   UNK N   1      37.658  16.493  11.419  0.00  0.00     0.210 HD
ENDBRANCH   1  20
TORSDOF 12
ENDMDL
MODEL 2
REMARK VINA RESULT:      -5.3      1.380      2.257
REMARK  12 active torsions:
REMARK  status: ('A' for Active; 'I' for Inactive)
REMARK    1  A    between atoms: C_2  and  C_1 
REMARK    2  A    between atoms: O_13  and  C_1 
REMARK    3  A    between atoms: C_3  and  C_2 
REMARK    4  A    between atoms: C_2  and  O_6 
REMARK    5  A    between atoms: C_4  and  C_3 
REMARK    6  A    between atoms: C_3  and  O_7 
REMARK    7  A    between atoms: N_5  and  C_4 
REMARK    8  A    between atoms: C_4  and  O_8 
REMARK    9  A    between atoms: O_9  and  N_5 
REMARK   10  A    between atoms: P_14  and  O_10 
REMARK   11  A    between atoms: P_14  and  O_11 
REMARK   12  A    between atoms: P_14  and  O_13 
ROOT
HETATM    1  C   UNK N   1      34.029  14.251  10.140  0.00  0.00     0.175 C 
ENDROOT
BRANCH   1   2
HETATM    2  C   UNK N   1      33.923  15.135   8.899  0.00  0.00     0.215 C 
BRANCH   2   3
HETATM    3  O   UNK N   1      34.957  16.073   8.806  0.00  0.00    -0.294 OA
BRANCH   3   4
HETATM    4  P   UNK N   1      34.118  17.580   8.568  0.00  0.00     0.390 P 
HETATM    5  O   UNK N   1      34.778  17.365   7.180  0.00  0.00    -0.632 OA
BRANCH   4   6
HETATM    6  O   UNK N   1      34.973  19.070   8.315  0.00  0.00    -0.307 OA
HETATM    7  H   UNK N   1      35.163  19.607   7.531  0.00  0.00     0.222 HD
ENDBRANCH   4   6
BRANCH   4   8
HETATM    8  O   UNK N   1      35.358  17.786   9.766  0.00  0.00    -0.307 OA
HETATM    9  H   UNK N   1      35.720  17.174  10.425  0.00  0.00     0.222 HD
ENDBRANCH   4   8
ENDBRANCH   3   4
ENDBRANCH   2   3
ENDBRANCH   1   2
BRANCH   1  10
HETATM   10  C   UNK N   1      35.471  13.763  10.409  0.00  0.00     0.199 C 
BRANCH  10  11
HETATM   11  C   UNK N   1      36.036  14.295  11.741  0.00  0.00     0.270 C 
BRANCH  11  12
HETATM   12  N   UNK N   1      36.251  15.740  11.656  0.00  0.00    -0.273 N 
HETATM   13  H   UNK N   1      35.751  16.450  12.191  0.00  0.00     0.190 HD
BRANCH  12  14
HETATM   14  O   UNK N   1      37.226  15.974  10.747  0.00  0.00    -0.292 OA
HETATM   15  H   UNK N   1      37.342  16.863  10.379  0.00  0.00     0.244 HD
ENDBRANCH  12  14
ENDBRANCH  11  12
BRANCH  11  16
HETATM   16  O   UNK N   1      37.240  13.655  12.057  0.00  0.00    -0.372 OA
HETATM   17  H   UNK N   1      37.980  13.666  11.430  0.00  0.00     0.212 HD
ENDBRANCH  11  16
ENDBRANCH  10  11
BRANCH  10  18
HETATM   18  O   UNK N   1      35.492  12.364  10.451  0.00  0.00    -0.388 OA
HETATM   19  H   UNK N   1      35.439  11.851   9.629  0.00  0.00     0.210 HD
ENDBRANCH  10  18
ENDBRANCH   1  10
BRANCH   1  20
HETATM   20  O   UNK N   1      33.523  14.934  11.248  0.00  0.00    -0.391 OA
HETATM   21  H   UNK N   1      33.824  15.834  11.451  0.00  0.00     0.210 HD
ENDBRANCH   1  20
TORSDOF 12
ENDMDL
MODEL 3
REMARK VINA RESULT:      -5.2      1.221      1.834
REMARK  12 active torsions:
REMARK  status: ('A' for Active; 'I' for Inactive)
REMARK    1  A    between atoms: C_2  and  C_1 
REMARK    2  A    between atoms: O_13  and  C_1 
REMARK    3  A    between atoms: C_3  and  C_2 
REMARK    4  A    between atoms: C_2  and  O_6 
REMARK    5  A    between atoms: C_4  and  C_3 
REMARK    6  A    between atoms: C_3  and  O_7 
REMARK    7  A    between atoms: N_5  and  C_4 
REMARK    8  A    between atoms: C_4  and  O_8 
REMARK    9  A    between atoms: O_9  and  N_5 
REMARK   10  A    between atoms: P_14  and  O_10 
REMARK   11  A    between atoms: P_14  and  O_11 
REMARK   12  A    between atoms: P_14  and  O_13 
ROOT
HETATM    1  C   UNK N   1      34.718  15.064  10.622  0.00  0.00     0.175 C 
ENDROOT
BRANCH   1   2
HETATM    2  C   UNK N   1      34.697  15.906   9.348  0.00  0.00     0.215 C 
BRANCH   2   3
HETATM    3  O   UNK N   1      34.596  17.278   9.601  0.00  0.00    -0.294 OA
BRANCH   3   4
HETATM    4  P   UNK N   1      33.670  17.873   8.252  0.00  0.00     0.390 P 
HETATM    5  O   UNK N   1      34.047  16.446   7.769  0.00  0.00    -0.632 OA
BRANCH   4   6
HETATM    6  O   UNK N   1      34.400  18.171   6.705  0.00  0.00    -0.307 OA
HETATM    7  H   UNK N   1      34.047  18.291   5.810  0.00  0.00     0.222 HD
ENDBRANCH   4   6
BRANCH   4   8
HETATM    8  O   UNK N   1      35.115  18.819   8.429  0.00  0.00    -0.307 OA
HETATM    9  H   UNK N   1      35.299  19.618   8.947  0.00  0.00     0.222 HD
ENDBRANCH   4   8
ENDBRANCH   3   4
ENDBRANCH   2   3
ENDBRANCH   1   2
BRANCH   1  10
HETATM   10  C   UNK N   1      35.803  15.519  11.625  0.00  0.00     0.199 C 
BRANCH  10  11
HETATM   11  C   UNK N   1      36.378  14.347  12.446  0.00  0.00     0.270 C 
BRANCH  11  12
HETATM   12  N   UNK N   1      35.383  13.281  12.566  0.00  0.00    -0.273 N 
HETATM   13  H   UNK N   1      35.235  12.523  11.899  0.00  0.00     0.190 HD
BRANCH  12  14
HETATM   14  O   UNK N   1      34.691  13.470  13.714  0.00  0.00    -0.292 OA
HETATM   15  H   UNK N   1      34.609  14.360  14.090  0.00  0.00     0.244 HD
ENDBRANCH  12  14
ENDBRANCH  11  12
BRANCH  11  16
HETATM   16  O   UNK N   1      36.765  14.779  13.719  0.00  0.00    -0.372 OA
HETATM   17  H   UNK N   1      37.436  15.472  13.819  0.00  0.00     0.212 HD
ENDBRANCH  11  16
ENDBRANCH  10  11
BRANCH  10  18
HETATM   18  O   UNK N   1      36.856  16.126  10.932  0.00  0.00    -0.388 OA
HETATM   19  H   UNK N   1      37.171  17.005  11.197  0.00  0.00     0.210 HD
ENDBRANCH  10  18
ENDBRANCH   1  10
BRANCH   1  20
HETATM   20  O   UNK N   1      33.455  15.082  11.218  0.00  0.00    -0.391 OA
HETATM   21  H   UNK N   1      33.021  14.254  11.479  0.00  0.00     0.210 HD
ENDBRANCH   1  20
TORSDOF 12
ENDMDL
MODEL 4
REMARK VINA RESULT:      -5.0     16.585     17.962
REMARK  12 active torsions:
REMARK  status: ('A' for Active; 'I' for Inactive)
REMARK    1  A    between atoms: C_2  and  C_1 
REMARK    2  A    between atoms: O_13  and  C_1 
REMARK    3  A    between atoms: C_3  and  C_2 
REMARK    4  A    between atoms: C_2  and  O_6 
REMARK    5  A    between atoms: C_4  and  C_3 
REMARK    6  A    between atoms: C_3  and  O_7 
REMARK    7  A    between atoms: N_5  and  C_4 
REMARK    8  A    between atoms: C_4  and  O_8 
REMARK    9  A    between atoms: O_9  and  N_5 
REMARK   10  A    between atoms: P_14  and  O_10 
REMARK   11  A    between atoms: P_14  and  O_11 
REMARK   12  A    between atoms: P_14  and  O_13 
ROOT
HETATM    1  C   UNK N   1      21.107  19.139   3.934  0.00  0.00     0.175 C 
ENDROOT
BRANCH   1   2
HETATM    2  C   UNK N   1      20.818  17.668   3.640  0.00  0.00     0.215 C 
BRANCH   2   3
HETATM    3  O   UNK N   1      21.008  17.332   2.296  0.00  0.00    -0.294 OA
BRANCH   3   4
HETATM    4  P   UNK N   1      20.695  15.619   2.257  0.00  0.00     0.390 P 
HETATM    5  O   UNK N   1      20.781  15.958   0.744  0.00  0.00    -0.632 OA
BRANCH   4   6
HETATM    6  O   UNK N   1      19.207  14.978   1.634  0.00  0.00    -0.307 OA
HETATM    7  H   UNK N   1      18.655  14.215   1.870  0.00  0.00     0.222 HD
ENDBRANCH   4   6
BRANCH   4   8
HETATM    8  O   UNK N   1      19.334  16.444   2.951  0.00  0.00    -0.307 OA
HETATM    9  H   UNK N   1      19.110  17.386   2.995  0.00  0.00     0.222 HD
ENDBRANCH   4   8
ENDBRANCH   3   4
ENDBRANCH   2   3
ENDBRANCH   1   2
BRANCH   1  10
HETATM   10  C   UNK N   1      20.139  20.099   3.206  0.00  0.00     0.199 C 
BRANCH  10  11
HETATM   11  C   UNK N   1      20.860  21.007   2.190  0.00  0.00     0.270 C 
BRANCH  11  12
HETATM   12  N   UNK N   1      21.283  20.226   1.027  0.00  0.00    -0.273 N 
HETATM   13  H   UNK N   1      22.014  19.515   1.019  0.00  0.00     0.190 HD
BRANCH  12  14
HETATM   14  O   UNK N   1      20.538  20.608  -0.037  0.00  0.00    -0.292 OA
HETATM   15  H   UNK N   1      20.012  21.421   0.006  0.00  0.00     0.244 HD
ENDBRANCH  12  14
ENDBRANCH  11  12
BRANCH  11  16
HETATM   16  O   UNK N   1      21.973  21.619   2.778  0.00  0.00    -0.372 OA
HETATM   17  H   UNK N   1      21.856  22.268   3.489  0.00  0.00     0.212 HD
ENDBRANCH  11  16
ENDBRANCH  10  11
BRANCH  10  18
HETATM   18  O   UNK N   1      19.172  19.356   2.519  0.00  0.00    -0.388 OA
HETATM   19  H   UNK N   1      19.294  19.147   1.579  0.00  0.00     0.210 HD
ENDBRANCH  10  18
ENDBRANCH   1  10
BRANCH   1  20
HETATM   20  O   UNK N   1      21.076  19.358   5.313  0.00  0.00    -0.391 OA
HETATM   21  H   UNK N   1      21.899  19.486   5.811  0.00  0.00     0.210 HD
ENDBRANCH   1  20
TORSDOF 12
ENDMDL
MODEL 5
REMARK VINA RESULT:      -4.8     12.510     13.671
REMARK  12 active torsions:
REMARK  status: ('A' for Active; 'I' for Inactive)
REMARK    1  A    between atoms: C_2  and  C_1 
REMARK    2  A    between atoms: O_13  and  C_1 
REMARK    3  A    between atoms: C_3  and  C_2 
REMARK    4  A    between atoms: C_2  and  O_6 
REMARK    5  A    between atoms: C_4  and  C_3 
REMARK    6  A    between atoms: C_3  and  O_7 
REMARK    7  A    between atoms: N_5  and  C_4 
REMARK    8  A    between atoms: C_4  and  O_8 
REMARK    9  A    between atoms: O_9  and  N_5 
REMARK   10  A    between atoms: P_14  and  O_10 
REMARK   11  A    between atoms: P_14  and  O_11 
REMARK   12  A    between atoms: P_14  and  O_13 
ROOT
HETATM    1  C   UNK N   1      44.482  22.015   1.805  0.00  0.00     0.175 C 
ENDROOT
BRANCH   1   2
HETATM    2  C   UNK N   1      43.461  22.644   0.858  0.00  0.00     0.215 C 
BRANCH   2   3
HETATM    3  O   UNK N   1      43.077  23.931   1.247  0.00  0.00    -0.294 OA
BRANCH   3   4
HETATM    4  P   UNK N   1      41.578  24.182   0.395  0.00  0.00     0.390 P 
HETATM    5  O   UNK N   1      42.338  25.503   0.093  0.00  0.00    -0.632 OA
BRANCH   4   6
HETATM    6  O   UNK N   1      40.443  25.399   0.888  0.00  0.00    -0.307 OA
HETATM    7  H   UNK N   1      39.489  25.519   0.754  0.00  0.00     0.222 HD
ENDBRANCH   4   6
BRANCH   4   8
HETATM    8  O   UNK N   1      41.269  24.077   2.100  0.00  0.00    -0.307 OA
HETATM    9  H   UNK N   1      40.510  23.728   2.594  0.00  0.00     0.222 HD
ENDBRANCH   4   8
ENDBRANCH   3   4
ENDBRANCH   2   3
ENDBRANCH   1   2
BRANCH   1  10
HETATM   10  C   UNK N   1      43.834  21.403   3.067  0.00  0.00     0.199 C 
BRANCH  10  11
HETATM   11  C   UNK N   1      44.462  21.935   4.371  0.00  0.00     0.270 C 
BRANCH  11  12
HETATM   12  N   UNK N   1      43.609  22.972   4.954  0.00  0.00    -0.273 N 
HETATM   13  H   UNK N   1      43.094  22.898   5.832  0.00  0.00     0.190 HD
BRANCH  12  14
HETATM   14  O   UNK N   1      43.618  24.045   4.130  0.00  0.00    -0.292 OA
HETATM   15  H   UNK N   1      43.841  24.922   4.479  0.00  0.00     0.244 HD
ENDBRANCH  12  14
ENDBRANCH  11  12
BRANCH  11  16
HETATM   16  O   UNK N   1      45.738  22.454   4.129  0.00  0.00    -0.372 OA
HETATM   17  H   UNK N   1      46.126  23.104   4.735  0.00  0.00     0.212 HD
ENDBRANCH  11  16
ENDBRANCH  10  11
BRANCH  10  18
HETATM   18  O   UNK N   1      42.467  21.704   3.085  0.00  0.00    -0.388 OA
HETATM   19  H   UNK N   1      41.870  21.296   2.438  0.00  0.00     0.210 HD
ENDBRANCH  10  18
ENDBRANCH   1  10
BRANCH   1  20
HETATM   20  O   UNK N   1      45.231  21.056   1.119  0.00  0.00    -0.391 OA
HETATM   21  H   UNK N   1      45.797  21.313   0.374  0.00  0.00     0.210 HD
ENDBRANCH   1  20
TORSDOF 12
ENDMDL
MODEL 6
REMARK VINA RESULT:      -4.8      2.981      5.952
REMARK  12 active torsions:
REMARK  status: ('A' for Active; 'I' for Inactive)
REMARK    1  A    between atoms: C_2  and  C_1 
REMARK    2  A    between atoms: O_13  and  C_1 
REMARK    3  A    between atoms: C_3  and  C_2 
REMARK    4  A    between atoms: C_2  and  O_6 
REMARK    5  A    between atoms: C_4  and  C_3 
REMARK    6  A    between atoms: C_3  and  O_7 
REMARK    7  A    between atoms: N_5  and  C_4 
REMARK    8  A    between atoms: C_4  and  O_8 
REMARK    9  A    between atoms: O_9  and  N_5 
REMARK   10  A    between atoms: P_14  and  O_10 
REMARK   11  A    between atoms: P_14  and  O_11 
REMARK   12  A    between atoms: P_14  and  O_13 
ROOT
HETATM    1  C   UNK N   1      35.142  14.953  11.737  0.00  0.00     0.175 C 
ENDROOT
BRANCH   1   2
HETATM    2  C   UNK N   1      35.712  13.865  12.645  0.00  0.00     0.215 C 
BRANCH   2   3
HETATM    3  O   UNK N   1      36.504  14.375  13.678  0.00  0.00    -0.294 OA
BRANCH   3   4
HETATM    4  P   UNK N   1      36.492  13.103  14.867  0.00  0.00     0.390 P 
HETATM    5  O   UNK N   1      34.996  13.517  14.833  0.00  0.00    -0.632 OA
BRANCH   4   6
HETATM    6  O   UNK N   1      36.143  13.419  16.538  0.00  0.00    -0.307 OA
HETATM    7  H   UNK N   1      36.216  14.207  17.099  0.00  0.00     0.222 HD
ENDBRANCH   4   6
BRANCH   4   8
HETATM    8  O   UNK N   1      37.442  14.434  15.449  0.00  0.00    -0.307 OA
HETATM    9  H   UNK N   1      37.294  15.392  15.410  0.00  0.00     0.222 HD
ENDBRANCH   4   8
ENDBRANCH   3   4
ENDBRANCH   2   3
ENDBRANCH   1   2
BRANCH   1  10
HETATM   10  C   UNK N   1      35.934  15.111  10.418  0.00  0.00     0.199 C 
BRANCH  10  11
HETATM   11  C   UNK N   1      35.166  15.930   9.362  0.00  0.00     0.270 C 
BRANCH  11  12
HETATM   12  N   UNK N   1      34.655  17.166   9.956  0.00  0.00    -0.273 N 
HETATM   13  H   UNK N   1      33.740  17.285  10.392  0.00  0.00     0.190 HD
BRANCH  12  14
HETATM   14  O   UNK N   1      35.602  18.124   9.829  0.00  0.00    -0.292 OA
HETATM   15  H   UNK N   1      35.976  18.324   8.957  0.00  0.00     0.244 HD
ENDBRANCH  12  14
ENDBRANCH  11  12
BRANCH  11  16
HETATM   16  O   UNK N   1      34.105  15.185   8.835  0.00  0.00    -0.372 OA
HETATM   17  H   UNK N   1      33.227  15.584   8.735  0.00  0.00     0.212 HD
ENDBRANCH  11  16
ENDBRANCH  10  11
BRANCH  10  18
HETATM   18  O   UNK N   1      37.148  15.758  10.676  0.00  0.00    -0.388 OA
HETATM   19  H   UNK N   1      37.223  16.718  10.557  0.00  0.00     0.210 HD
ENDBRANCH  10  18
ENDBRANCH   1  10
BRANCH   1  20
HETATM   20  O   UNK N   1      33.795  14.690  11.476  0.00  0.00    -0.391 OA
HETATM   21  H   UNK N   1      33.103  15.274  11.824  0.00  0.00     0.210 HD
ENDBRANCH   1  20
TORSDOF 12
ENDMDL
MODEL 7
REMARK VINA RESULT:      -4.7      3.318      5.515
REMARK  12 active torsions:
REMARK  status: ('A' for Active; 'I' for Inactive)
REMARK    1  A    between atoms: C_2  and  C_1 
REMARK    2  A    between atoms: O_13  and  C_1 
REMARK    3  A    between atoms: C_3  and  C_2 
REMARK    4  A    between atoms: C_2  and  O_6 
REMARK    5  A    between atoms: C_4  and  C_3 
REMARK    6  A    between atoms: C_3  and  O_7 
REMARK    7  A    between atoms: N_5  and  C_4 
REMARK    8  A    between atoms: C_4  and  O_8 
REMARK    9  A    between atoms: O_9  and  N_5 
REMARK   10  A    between atoms: P_14  and  O_10 
REMARK   11  A    between atoms: P_14  and  O_11 
REMARK   12  A    between atoms: P_14  and  O_13 
ROOT
HETATM    1  C   UNK N   1      34.536  16.021   7.120  0.00  0.00     0.175 C 
ENDROOT
BRANCH   1   2
HETATM    2  C   UNK N   1      35.210  15.868   8.482  0.00  0.00     0.215 C 
BRANCH   2   3
HETATM    3  O   UNK N   1      34.303  15.892   9.546  0.00  0.00    -0.294 OA
BRANCH   3   4
HETATM    4  P   UNK N   1      35.324  16.053  10.948  0.00  0.00     0.390 P 
HETATM    5  O   UNK N   1      35.572  17.403  10.221  0.00  0.00    -0.632 OA
BRANCH   4   6
HETATM    6  O   UNK N   1      37.054  16.105  10.815  0.00  0.00    -0.307 OA
HETATM    7  H   UNK N   1      37.674  16.715  10.386  0.00  0.00     0.222 HD
ENDBRANCH   4   6
BRANCH   4   8
HETATM    8  O   UNK N   1      35.900  14.753   9.954  0.00  0.00    -0.307 OA
HETATM    9  H   UNK N   1      35.701  13.804   9.960  0.00  0.00     0.222 HD
ENDBRANCH   4   8
ENDBRANCH   3   4
ENDBRANCH   2   3
ENDBRANCH   1   2
BRANCH   1  10
HETATM   10  C   UNK N   1      33.975  17.442   6.884  0.00  0.00     0.199 C 
BRANCH  10  11
HETATM   11  C   UNK N   1      32.477  17.551   7.230  0.00  0.00     0.270 C 
BRANCH  11  12
HETATM   12  N   UNK N   1      32.310  17.881   8.646  0.00  0.00    -0.273 N 
HETATM   13  H   UNK N   1      32.636  18.732   9.104  0.00  0.00     0.190 HD
BRANCH  12  14
HETATM   14  O   UNK N   1      31.649  16.863   9.247  0.00  0.00    -0.292 OA
HETATM   15  H   UNK N   1      31.814  15.948   8.971  0.00  0.00     0.244 HD
ENDBRANCH  12  14
ENDBRANCH  11  12
BRANCH  11  16
HETATM   16  O   UNK N   1      31.815  16.352   6.943  0.00  0.00    -0.372 OA
HETATM   17  H   UNK N   1      30.980  16.135   7.385  0.00  0.00     0.212 HD
ENDBRANCH  11  16
ENDBRANCH  10  11
BRANCH  10  18
HETATM   18  O   UNK N   1      34.675  18.360   7.676  0.00  0.00    -0.388 OA
HETATM   19  H   UNK N   1      34.892  18.143   8.596  0.00  0.00     0.210 HD
ENDBRANCH  10  18
ENDBRANCH   1  10
BRANCH   1  20
HETATM   20  O   UNK N   1      35.434  15.670   6.109  0.00  0.00    -0.391 OA
HETATM   21  H   UNK N   1      36.077  16.315   5.775  0.00  0.00     0.210 HD
ENDBRANCH   1  20
TORSDOF 12
ENDMDL
MODEL 8
REMARK VINA RESULT:      -4.7     12.962     14.359
REMARK  12 active torsions:
REMARK  status: ('A' for Active; 'I' for Inactive)
REMARK    1  A    between atoms: C_2  and  C_1 
REMARK    2  A    between atoms: O_13  and  C_1 
REMARK    3  A    between atoms: C_3  and  C_2 
REMARK    4  A    between atoms: C_2  and  O_6 
REMARK    5  A    between atoms: C_4  and  C_3 
REMARK    6  A    between atoms: C_3  and  O_7 
REMARK    7  A    between atoms: N_5  and  C_4 
REMARK    8  A    between atoms: C_4  and  O_8 
REMARK    9  A    between atoms: O_9  and  N_5 
REMARK   10  A    between atoms: P_14  and  O_10 
REMARK   11  A    between atoms: P_14  and  O_11 
REMARK   12  A    between atoms: P_14  and  O_13 
ROOT
HETATM    1  C   UNK N   1      44.481  21.956   1.771  0.00  0.00     0.175 C 
ENDROOT
BRANCH   1   2
HETATM    2  C   UNK N   1      43.698  23.050   1.047  0.00  0.00     0.215 C 
BRANCH   2   3
HETATM    3  O   UNK N   1      43.731  24.278   1.715  0.00  0.00    -0.294 OA
BRANCH   3   4
HETATM    4  P   UNK N   1      45.246  24.975   1.212  0.00  0.00     0.390 P 
HETATM    5  O   UNK N   1      45.225  25.326   2.724  0.00  0.00    -0.632 OA
BRANCH   4   6
HETATM    6  O   UNK N   1      45.505  26.691   1.212  0.00  0.00    -0.307 OA
HETATM    7  H   UNK N   1      46.281  27.252   1.053  0.00  0.00     0.222 HD
ENDBRANCH   4   6
BRANCH   4   8
HETATM    8  O   UNK N   1      43.937  25.792   0.417  0.00  0.00    -0.307 OA
HETATM    9  H   UNK N   1      43.905  26.302  -0.407  0.00  0.00     0.222 HD
ENDBRANCH   4   8
ENDBRANCH   3   4
ENDBRANCH   2   3
ENDBRANCH   1   2
BRANCH   1  10
HETATM   10  C   UNK N   1      43.778  21.465   3.057  0.00  0.00     0.199 C 
BRANCH  10  11
HETATM   11  C   UNK N   1      44.486  21.948   4.339  0.00  0.00     0.270 C 
BRANCH  11  12
HETATM   12  N   UNK N   1      43.606  22.838   5.096  0.00  0.00    -0.273 N 
HETATM   13  H   UNK N   1      43.114  22.601   5.958  0.00  0.00     0.190 HD
BRANCH  12  14
HETATM   14  O   UNK N   1      43.554  24.031   4.457  0.00  0.00    -0.292 OA
HETATM   15  H   UNK N   1      44.329  24.613   4.453  0.00  0.00     0.244 HD
ENDBRANCH  12  14
ENDBRANCH  11  12
BRANCH  11  16
HETATM   16  O   UNK N   1      45.676  22.614   4.025  0.00  0.00    -0.372 OA
HETATM   17  H   UNK N   1      46.143  23.129   4.701  0.00  0.00     0.212 HD
ENDBRANCH  11  16
ENDBRANCH  10  11
BRANCH  10  18
HETATM   18  O   UNK N   1      42.461  21.938   3.081  0.00  0.00    -0.388 OA
HETATM   19  H   UNK N   1      41.793  21.550   2.493  0.00  0.00     0.210 HD
ENDBRANCH  10  18
ENDBRANCH   1  10
BRANCH   1  20
HETATM   20  O   UNK N   1      44.716  20.891   0.898  0.00  0.00    -0.391 OA
HETATM   21  H   UNK N   1      44.962  20.018   1.242  0.00  0.00     0.210 HD
ENDBRANCH   1  20
TORSDOF 12
ENDMDL
MODEL 9
REMARK VINA RESULT:      -4.7     13.123     14.007
REMARK  12 active torsions:
REMARK  status: ('A' for Active; 'I' for Inactive)
REMARK    1  A    between atoms: C_2  and  C_1 
REMARK    2  A    between atoms: O_13  and  C_1 
REMARK    3  A    between atoms: C_3  and  C_2 
REMARK    4  A    between atoms: C_2  and  O_6 
REMARK    5  A    between atoms: C_4  and  C_3 
REMARK    6  A    between atoms: C_3  and  O_7 
REMARK    7  A    between atoms: N_5  and  C_4 
REMARK    8  A    between atoms: C_4  and  O_8 
REMARK    9  A    between atoms: O_9  and  N_5 
REMARK   10  A    between atoms: P_14  and  O_10 
REMARK   11  A    between atoms: P_14  and  O_11 
REMARK   12  A    between atoms: P_14  and  O_13 
ROOT
HETATM    1  C   UNK N   1      21.442  12.507  10.312  0.00  0.00     0.175 C 
ENDROOT
BRANCH   1   2
HETATM    2  C   UNK N   1      20.763  13.532   9.405  0.00  0.00     0.215 C 
BRANCH   2   3
HETATM    3  O   UNK N   1      21.255  14.829   9.584  0.00  0.00    -0.294 OA
BRANCH   3   4
HETATM    4  P   UNK N   1      20.482  15.735   8.313  0.00  0.00     0.390 P 
HETATM    5  O   UNK N   1      19.271  15.023   8.972  0.00  0.00    -0.632 OA
BRANCH   4   6
HETATM    6  O   UNK N   1      19.720  14.949   6.966  0.00  0.00    -0.307 OA
HETATM    7  H   UNK N   1      20.041  14.629   6.108  0.00  0.00     0.222 HD
ENDBRANCH   4   6
BRANCH   4   8
HETATM    8  O   UNK N   1      21.539  14.545   7.620  0.00  0.00    -0.307 OA
HETATM    9  H   UNK N   1      21.929  14.472   6.735  0.00  0.00     0.222 HD
ENDBRANCH   4   8
ENDBRANCH   3   4
ENDBRANCH   2   3
ENDBRANCH   1   2
BRANCH   1  10
HETATM   10  C   UNK N   1      22.867  12.930  10.736  0.00  0.00     0.199 C 
BRANCH  10  11
HETATM   11  C   UNK N   1      23.593  11.834  11.541  0.00  0.00     0.270 C 
BRANCH  11  12
HETATM   12  N   UNK N   1      22.982  11.692  12.863  0.00  0.00    -0.273 N 
HETATM   13  H   UNK N   1      22.124  11.181  13.073  0.00  0.00     0.190 HD
BRANCH  12  14
HETATM   14  O   UNK N   1      23.749  12.353  13.762  0.00  0.00    -0.292 OA
HETATM   15  H   UNK N   1      24.641  12.642  13.518  0.00  0.00     0.244 HD
ENDBRANCH  12  14
ENDBRANCH  11  12
BRANCH  11  16
HETATM   16  O   UNK N   1      24.952  12.141  11.679  0.00  0.00    -0.372 OA
HETATM   17  H   UNK N   1      25.515  12.231  10.896  0.00  0.00     0.212 HD
ENDBRANCH  11  16
ENDBRANCH  10  11
BRANCH  10  18
HETATM   18  O   UNK N   1      23.629  13.215   9.597  0.00  0.00    -0.388 OA
HETATM   19  H   UNK N   1      24.118  12.507   9.148  0.00  0.00     0.210 HD
ENDBRANCH  10  18
ENDBRANCH   1  10
BRANCH   1  20
HETATM   20  O   UNK N   1      20.642  12.268  11.432  0.00  0.00    -0.391 OA
HETATM   21  H   UNK N   1      19.703  12.048  11.330  0.00  0.00     0.210 HD
ENDBRANCH   1  20
TORSDOF 12
ENDMDL
