MODEL 1
REMARK VINA RESULT:      -4.5      0.000      0.000
REMARK  9 active torsions:
REMARK  status: ('A' for Active; 'I' for Inactive)
REMARK    1  A    between atoms: C_4  and  C_2 
REMARK    2  A    between atoms: O_7  and  C_2 
REMARK    3  A    between atoms: C_5  and  C_3 
REMARK    4  A    between atoms: C_3  and  O_8 
REMARK    5  A    between atoms: C_6  and  C_4 
REMARK    6  A    between atoms: C_4  and  O_9 
REMARK    7  A    between atoms: C_6  and  C_5 
REMARK    8  A    between atoms: C_5  and  O_10 
REMARK    9  A    between atoms: C_6  and  O_11 
ROOT
HETATM    1  C   UNK N   1      20.072  20.054   3.218  0.00  0.00     0.180 C 
ENDROOT
BRANCH   1   2
HETATM    2  C   UNK N   1      20.794  21.016   2.241  0.00  0.00     0.173 C 
BRANCH   2   3
HETATM    3  C   UNK N   1      21.170  20.335   0.926  0.00  0.00     0.198 C 
BRANCH   3   4
HETATM    4  O   UNK N   1      20.678  21.045  -0.169  0.00  0.00    -0.398 OA
HETATM    5  H   UNK N   1      21.270  21.608  -0.693  0.00  0.00     0.209 HD
ENDBRANCH   3   4
ENDBRANCH   2   3
BRANCH   2   6
HETATM    6  O   UNK N   1      21.976  21.485   2.815  0.00  0.00    -0.391 OA
HETATM    7  H   UNK N   1      22.012  22.378   3.193  0.00  0.00     0.210 HD
ENDBRANCH   2   6
ENDBRANCH   1   2
BRANCH   1   8
HETATM    8  C   UNK N   1      19.844  18.647   2.598  0.00  0.00     0.177 C 
BRANCH   8   9
HETATM    9  C   UNK N   1      20.480  17.515   3.430  0.00  0.00     0.145 C 
HETATM   10  C   UNK N   1      20.047  16.158   2.900  0.00  0.00     0.042 C 
BRANCH   9  11
HETATM   11  O   UNK N   1      21.874  17.580   3.382  0.00  0.00    -0.393 OA
HETATM   12  H   UNK N   1      22.341  17.400   2.551  0.00  0.00     0.210 HD
ENDBRANCH   9  11
ENDBRANCH   8   9
BRANCH   8  13
HETATM   13  O   UNK N   1      18.472  18.395   2.496  0.00  0.00    -0.390 OA
HETATM   14  H   UNK N   1      18.123  17.885   1.749  0.00  0.00     0.210 HD
ENDBRANCH   8  13
ENDBRANCH   1   8
BRANCH   1  15
HETATM   15  O   UNK N   1      20.833  19.930   4.385  0.00  0.00    -0.390 OA
HETATM   16  H   UNK N   1      21.067  20.715   4.903  0.00  0.00     0.210 HD
ENDBRANCH   1  15
TORSDOF 9
ENDMDL
MODEL 2
REMARK VINA RESULT:      -4.5     17.193     18.410
REMARK  9 active torsions:
REMARK  status: ('A' for Active; 'I' for Inactive)
REMARK    1  A    between atoms: C_4  and  C_2 
REMARK    2  A    between atoms: O_7  and  C_2 
REMARK    3  A    between atoms: C_5  and  C_3 
REMARK    4  A    between atoms: C_3  and  O_8 
REMARK    5  A    between atoms: C_6  and  C_4 
REMARK    6  A    between atoms: C_4  and  O_9 
REMARK    7  A    between atoms: C_6  and  C_5 
REMARK    8  A    between atoms: C_5  and  O_10 
REMARK    9  A    between atoms: C_6  and  O_11 
ROOT
HETATM    1  C   UNK N   1      35.507  15.081  11.939  0.00  0.00     0.180 C 
ENDROOT
BRANCH   1   2
HETATM    2  C   UNK N   1      34.535  14.959  10.737  0.00  0.00     0.173 C 
BRANCH   2   3
HETATM    3  C   UNK N   1      34.694  16.108   9.743  0.00  0.00     0.198 C 
BRANCH   3   4
HETATM    4  O   UNK N   1      34.880  17.324  10.402  0.00  0.00    -0.398 OA
HETATM    5  H   UNK N   1      34.116  17.846  10.691  0.00  0.00     0.209 HD
ENDBRANCH   3   4
ENDBRANCH   2   3
BRANCH   2   6
HETATM    6  O   UNK N   1      33.214  14.980  11.184  0.00  0.00    -0.391 OA
HETATM    7  H   UNK N   1      32.903  14.313  11.816  0.00  0.00     0.210 HD
ENDBRANCH   2   6
ENDBRANCH   1   2
BRANCH   1   8
HETATM    8  C   UNK N   1      35.657  13.740  12.711  0.00  0.00     0.177 C 
BRANCH   8   9
HETATM    9  C   UNK N   1      36.124  13.936  14.168  0.00  0.00     0.145 C 
HETATM   10  C   UNK N   1      36.885  12.713  14.652  0.00  0.00     0.042 C 
BRANCH   9  11
HETATM   11  O   UNK N   1      36.962  15.047  14.280  0.00  0.00    -0.393 OA
HETATM   12  H   UNK N   1      37.255  15.518  13.484  0.00  0.00     0.210 HD
ENDBRANCH   9  11
ENDBRANCH   8   9
BRANCH   8  13
HETATM   13  O   UNK N   1      34.429  13.070  12.734  0.00  0.00    -0.390 OA
HETATM   14  H   UNK N   1      33.966  12.924  13.573  0.00  0.00     0.210 HD
ENDBRANCH   8  13
ENDBRANCH   1   8
BRANCH   1  15
HETATM   15  O   UNK N   1      36.760  15.492  11.475  0.00  0.00    -0.390 OA
HETATM   16  H   UNK N   1      37.468  14.844  11.339  0.00  0.00     0.210 HD
ENDBRANCH   1  15
TORSDOF 9
ENDMDL
MODEL 3
REMARK VINA RESULT:      -4.4     17.282     18.438
REMARK  9 active torsions:
REMARK  status: ('A' for Active; 'I' for Inactive)
REMARK    1  A    between atoms: C_4  and  C_2 
REMARK    2  A    between atoms: O_7  and  C_2 
REMARK    3  A    between atoms: C_5  and  C_3 
REMARK    4  A    between atoms: C_3  and  O_8 
REMARK    5  A    between atoms: C_6  and  C_4 
REMARK    6  A    between atoms: C_4  and  O_9 
REMARK    7  A    between atoms: C_6  and  C_5 
REMARK    8  A    between atoms: C_5  and  O_10 
REMARK    9  A    between atoms: C_6  and  O_11 
ROOT
HETATM    1  C   UNK N   1      35.220  14.609  11.455  0.00  0.00     0.180 C 
ENDROOT
BRANCH   1   2
HETATM    2  C   UNK N   1      35.671  16.063  11.163  0.00  0.00     0.173 C 
BRANCH   2   3
HETATM    3  C   UNK N   1      34.922  16.678   9.981  0.00  0.00     0.198 C 
BRANCH   3   4
HETATM    4  O   UNK N   1      35.390  17.962   9.700  0.00  0.00    -0.398 OA
HETATM    5  H   UNK N   1      35.807  18.155   8.846  0.00  0.00     0.209 HD
ENDBRANCH   3   4
ENDBRANCH   2   3
BRANCH   2   6
HETATM    6  O   UNK N   1      37.030  16.091  10.849  0.00  0.00    -0.391 OA
HETATM    7  H   UNK N   1      37.536  15.264  10.807  0.00  0.00     0.210 HD
ENDBRANCH   2   6
ENDBRANCH   1   2
BRANCH   1   8
HETATM    8  C   UNK N   1      35.835  14.056  12.770  0.00  0.00     0.177 C 
BRANCH   8   9
HETATM    9  C   UNK N   1      36.843  12.914  12.528  0.00  0.00     0.145 C 
HETATM   10  C   UNK N   1      36.146  11.711  11.914  0.00  0.00     0.042 C 
BRANCH   9  11
HETATM   11  O   UNK N   1      37.861  13.320  11.663  0.00  0.00    -0.393 OA
HETATM   12  H   UNK N   1      37.937  14.252  11.405  0.00  0.00     0.210 HD
ENDBRANCH   9  11
ENDBRANCH   8   9
BRANCH   8  13
HETATM   13  O   UNK N   1      36.496  15.084  13.450  0.00  0.00    -0.390 OA
HETATM   14  H   UNK N   1      37.288  15.493  13.068  0.00  0.00     0.210 HD
ENDBRANCH   8  13
ENDBRANCH   1   8
BRANCH   1  15
HETATM   15  O   UNK N   1      33.824  14.571  11.542  0.00  0.00    -0.390 OA
HETATM   16  H   UNK N   1      33.343  15.283  11.992  0.00  0.00     0.210 HD
ENDBRANCH   1  15
TORSDOF 9
ENDMDL
MODEL 4
REMARK VINA RESULT:      -4.4     15.169     16.202
REMARK  9 active torsions:
REMARK  status: ('A' for Active; 'I' for Inactive)
REMARK    1  A    between atoms: C_4  and  C_2 
REMARK    2  A    between atoms: O_7  and  C_2 
REMARK    3  A    between atoms: C_5  and  C_3 
REMARK    4  A    between atoms: C_3  and  O_8 
REMARK    5  A    between atoms: C_6  and  C_4 
REMARK    6  A    between atoms: C_4  and  O_9 
REMARK    7  A    between atoms: C_6  and  C_5 
REMARK    8  A    between atoms: C_5  and  O_10 
REMARK    9  A    between atoms: C_6  and  O_11 
ROOT
HETATM    1  C   UNK N   1      34.278  16.945   9.908  0.00  0.00     0.180 C 
ENDROOT
BRANCH   1   2
HETATM    2  C   UNK N   1      33.419  16.756   8.632  0.00  0.00     0.173 C 
BRANCH   2   3
HETATM    3  C   UNK N   1      33.407  18.002   7.749  0.00  0.00     0.198 C 
BRANCH   3   4
HETATM    4  O   UNK N   1      34.477  17.996   6.853  0.00  0.00    -0.398 OA
HETATM    5  H   UNK N   1      35.353  18.304   7.134  0.00  0.00     0.209 HD
ENDBRANCH   3   4
ENDBRANCH   2   3
BRANCH   2   6
HETATM    6  O   UNK N   1      32.095  16.485   8.980  0.00  0.00    -0.391 OA
HETATM    7  H   UNK N   1      31.832  16.463   9.914  0.00  0.00     0.210 HD
ENDBRANCH   2   6
ENDBRANCH   1   2
BRANCH   1   8
HETATM    8  C   UNK N   1      34.705  15.589  10.536  0.00  0.00     0.177 C 
BRANCH   8   9
HETATM    9  C   UNK N   1      35.846  15.736  11.563  0.00  0.00     0.145 C 
HETATM   10  C   UNK N   1      35.949  14.489  12.426  0.00  0.00     0.042 C 
BRANCH   9  11
HETATM   11  O   UNK N   1      37.072  15.930  10.926  0.00  0.00    -0.393 OA
HETATM   12  H   UNK N   1      37.548  16.769  11.031  0.00  0.00     0.210 HD
ENDBRANCH   9  11
ENDBRANCH   8   9
BRANCH   8  13
HETATM   13  O   UNK N   1      33.610  15.003  11.181  0.00  0.00    -0.390 OA
HETATM   14  H   UNK N   1      33.155  14.246  10.783  0.00  0.00     0.210 HD
ENDBRANCH   8  13
ENDBRANCH   1   8
BRANCH   1  15
HETATM   15  O   UNK N   1      35.418  17.688   9.587  0.00  0.00    -0.390 OA
HETATM   16  H   UNK N   1      35.960  17.444   8.821  0.00  0.00     0.210 HD
ENDBRANCH   1  15
TORSDOF 9
ENDMDL
MODEL 5
REMARK VINA RESULT:      -4.3     14.909     15.913
REMARK  9 active torsions:
REMARK  status: ('A' for Active; 'I' for Inactive)
REMARK    1  A    between atoms: C_4  and  C_2 
REMARK    2  A    between atoms: O_7  and  C_2 
REMARK    3  A    between atoms: C_5  and  C_3 
REMARK    4  A    between atoms: C_3  and  O_8 
REMARK    5  A    between atoms: C_6  and  C_4 
REMARK    6  A    between atoms: C_4  and  O_9 
REMARK    7  A    between atoms: C_6  and  C_5 
REMARK    8  A    between atoms: C_5  and  O_10 
REMARK    9  A    between atoms: C_6  and  O_11 
ROOT
HETATM    1  C   UNK N   1      34.607  16.654   8.769  0.00  0.00     0.180 C 
ENDROOT
BRANCH   1   2
HETATM    2  C   UNK N   1      34.003  17.995   8.278  0.00  0.00     0.173 C 
BRANCH   2   3
HETATM    3  C   UNK N   1      33.491  17.910   6.841  0.00  0.00     0.198 C 
BRANCH   3   4
HETATM    4  O   UNK N   1      34.449  17.348   5.996  0.00  0.00    -0.398 OA
HETATM    5  H   UNK N   1      34.225  16.584   5.442  0.00  0.00     0.209 HD
ENDBRANCH   3   4
ENDBRANCH   2   3
BRANCH   2   6
HETATM    6  O   UNK N   1      34.972  18.998   8.312  0.00  0.00    -0.391 OA
HETATM    7  H   UNK N   1      35.793  18.900   7.804  0.00  0.00     0.210 HD
ENDBRANCH   2   6
ENDBRANCH   1   2
BRANCH   1   8
HETATM    8  C   UNK N   1      34.823  16.636  10.308  0.00  0.00     0.177 C 
BRANCH   8   9
HETATM    9  C   UNK N   1      34.826  15.210  10.897  0.00  0.00     0.145 C 
HETATM   10  C   UNK N   1      35.771  15.127  12.085  0.00  0.00     0.042 C 
BRANCH   9  11
HETATM   11  O   UNK N   1      33.550  14.843  11.326  0.00  0.00    -0.393 OA
HETATM   12  H   UNK N   1      32.765  15.220  10.897  0.00  0.00     0.210 HD
ENDBRANCH   9  11
ENDBRANCH   8   9
BRANCH   8  13
HETATM   13  O   UNK N   1      36.047  17.238  10.618  0.00  0.00    -0.390 OA
HETATM   14  H   UNK N   1      36.333  17.319  11.541  0.00  0.00     0.210 HD
ENDBRANCH   8  13
ENDBRANCH   1   8
BRANCH   1  15
HETATM   15  O   UNK N   1      33.752  15.607   8.409  0.00  0.00    -0.390 OA
HETATM   16  H   UNK N   1      33.856  14.731   8.809  0.00  0.00     0.210 HD
ENDBRANCH   1  15
TORSDOF 9
ENDMDL
MODEL 6
REMARK VINA RESULT:      -4.3     15.796     17.203
REMARK  9 active torsions:
REMARK  status: ('A' for Active; 'I' for Inactive)
REMARK    1  A    between atoms: C_4  and  C_2 
REMARK    2  A    between atoms: O_7  and  C_2 
REMARK    3  A    between atoms: C_5  and  C_3 
REMARK    4  A    between atoms: C_3  and  O_8 
REMARK    5  A    between atoms: C_6  and  C_4 
REMARK    6  A    between atoms: C_4  and  O_9 
REMARK    7  A    between atoms: C_6  and  C_5 
REMARK    8  A    between atoms: C_5  and  O_10 
REMARK    9  A    between atoms: C_6  and  O_11 
ROOT
HETATM    1  C   UNK N   1      34.578  15.740  10.712  0.00  0.00     0.180 C 
ENDROOT
BRANCH   1   2
HETATM    2  C   UNK N   1      35.915  15.129  11.202  0.00  0.00     0.173 C 
BRANCH   2   3
HETATM    3  C   UNK N   1      35.931  14.901  12.712  0.00  0.00     0.198 C 
BRANCH   3   4
HETATM    4  O   UNK N   1      35.112  13.829  13.069  0.00  0.00    -0.398 OA
HETATM    5  H   UNK N   1      34.173  13.829  12.826  0.00  0.00     0.209 HD
ENDBRANCH   3   4
ENDBRANCH   2   3
BRANCH   2   6
HETATM    6  O   UNK N   1      36.973  15.988  10.903  0.00  0.00    -0.391 OA
HETATM    7  H   UNK N   1      36.796  16.878  10.560  0.00  0.00     0.210 HD
ENDBRANCH   2   6
ENDBRANCH   1   2
BRANCH   1   8
HETATM    8  C   UNK N   1      34.484  15.784   9.161  0.00  0.00     0.177 C 
BRANCH   8   9
HETATM    9  C   UNK N   1      34.569  17.217   8.594  0.00  0.00     0.145 C 
HETATM   10  C   UNK N   1      33.176  17.789   8.386  0.00  0.00     0.042 C 
BRANCH   9  11
HETATM   11  O   UNK N   1      35.263  18.059   9.464  0.00  0.00    -0.393 OA
HETATM   12  H   UNK N   1      35.801  18.785   9.112  0.00  0.00     0.210 HD
ENDBRANCH   9  11
ENDBRANCH   8   9
BRANCH   8  13
HETATM   13  O   UNK N   1      35.526  15.034   8.605  0.00  0.00    -0.390 OA
HETATM   14  H   UNK N   1      35.438  14.074   8.504  0.00  0.00     0.210 HD
ENDBRANCH   8  13
ENDBRANCH   1   8
BRANCH   1  15
HETATM   15  O   UNK N   1      33.515  14.985  11.220  0.00  0.00    -0.390 OA
HETATM   16  H   UNK N   1      32.772  15.423  11.662  0.00  0.00     0.210 HD
ENDBRANCH   1  15
TORSDOF 9
ENDMDL
MODEL 7
REMARK VINA RESULT:      -4.2     16.278     17.344
REMARK  9 active torsions:
REMARK  status: ('A' for Active; 'I' for Inactive)
REMARK    1  A    between atoms: C_4  and  C_2 
REMARK    2  A    between atoms: O_7  and  C_2 
REMARK    3  A    between atoms: C_5  and  C_3 
REMARK    4  A    between atoms: C_3  and  O_8 
REMARK    5  A    between atoms: C_6  and  C_4 
REMARK    6  A    between atoms: C_4  and  O_9 
REMARK    7  A    between atoms: C_6  and  C_5 
REMARK    8  A    between atoms: C_5  and  O_10 
REMARK    9  A    between atoms: C_6  and  O_11 
ROOT
HETATM    1  C   UNK N   1      34.722  15.577  10.403  0.00  0.00     0.180 C 
ENDROOT
BRANCH   1   2
HETATM    2  C   UNK N   1      34.446  16.855   9.569  0.00  0.00     0.173 C 
BRANCH   2   3
HETATM    3  C   UNK N   1      34.553  16.603   8.067  0.00  0.00     0.198 C 
BRANCH   3   4
HETATM    4  O   UNK N   1      34.636  17.803   7.359  0.00  0.00    -0.398 OA
HETATM    5  H   UNK N   1      33.946  18.044   6.721  0.00  0.00     0.209 HD
ENDBRANCH   3   4
ENDBRANCH   2   3
BRANCH   2   6
HETATM    6  O   UNK N   1      35.373  17.847   9.889  0.00  0.00    -0.391 OA
HETATM    7  H   UNK N   1      36.269  17.602  10.171  0.00  0.00     0.210 HD
ENDBRANCH   2   6
ENDBRANCH   1   2
BRANCH   1   8
HETATM    8  C   UNK N   1      35.844  15.794  11.456  0.00  0.00     0.177 C 
BRANCH   8   9
HETATM    9  C   UNK N   1      35.945  14.637  12.472  0.00  0.00     0.145 C 
HETATM   10  C   UNK N   1      36.756  13.489  11.892  0.00  0.00     0.042 C 
BRANCH   9  11
HETATM   11  O   UNK N   1      36.561  15.057  13.651  0.00  0.00    -0.393 OA
HETATM   12  H   UNK N   1      36.059  15.081  14.481  0.00  0.00     0.210 HD
ENDBRANCH   9  11
ENDBRANCH   8   9
BRANCH   8  13
HETATM   13  O   UNK N   1      37.079  15.915  10.810  0.00  0.00    -0.390 OA
HETATM   14  H   UNK N   1      37.394  16.783  10.516  0.00  0.00     0.210 HD
ENDBRANCH   8  13
ENDBRANCH   1   8
BRANCH   1  15
HETATM   15  O   UNK N   1      33.545  15.190  11.051  0.00  0.00    -0.390 OA
HETATM   16  H   UNK N   1      32.699  15.198  10.576  0.00  0.00     0.210 HD
ENDBRANCH   1  15
TORSDOF 9
ENDMDL
MODEL 8
REMARK VINA RESULT:      -4.1      2.035      4.007
REMARK  9 active torsions:
REMARK  status: ('A' for Active; 'I' for Inactive)
REMARK    1  A    between atoms: C_4  and  C_2 
REMARK    2  A    between atoms: O_7  and  C_2 
REMARK    3  A    between atoms: C_5  and  C_3 
REMARK    4  A    between atoms: C_3  and  O_8 
REMARK    5  A    between atoms: C_6  and  C_4 
REMARK    6  A    between atoms: C_4  and  O_9 
REMARK    7  A    between atoms: C_6  and  C_5 
REMARK    8  A    between atoms: C_5  and  O_10 
REMARK    9  A    between atoms: C_6  and  O_11 
ROOT
HETATM    1  C   UNK N   1      20.388  17.517   2.308  0.00  0.00     0.180 C 
ENDROOT
BRANCH   1   2
HETATM    2  C   UNK N   1      19.756  16.980   0.999  0.00  0.00     0.173 C 
BRANCH   2   3
HETATM    3  C   UNK N   1      20.026  15.491   0.791  0.00  0.00     0.198 C 
BRANCH   3   4
HETATM    4  O   UNK N   1      19.029  14.710   1.376  0.00  0.00    -0.398 OA
HETATM    5  H   UNK N   1      19.154  14.342   2.265  0.00  0.00     0.209 HD
ENDBRANCH   3   4
ENDBRANCH   2   3
BRANCH   2   6
HETATM    6  O   UNK N   1      20.286  17.654  -0.102  0.00  0.00    -0.391 OA
HETATM    7  H   UNK N   1      20.263  18.623  -0.136  0.00  0.00     0.210 HD
ENDBRANCH   2   6
ENDBRANCH   1   2
BRANCH   1   8
HETATM    8  C   UNK N   1      19.636  18.762   2.856  0.00  0.00     0.177 C 
BRANCH   8   9
HETATM    9  C   UNK N   1      20.359  20.087   2.537  0.00  0.00     0.145 C 
HETATM   10  C   UNK N   1      21.833  19.989   2.898  0.00  0.00     0.042 C 
BRANCH   9  11
HETATM   11  O   UNK N   1      20.260  20.398   1.180  0.00  0.00    -0.393 OA
HETATM   12  H   UNK N   1      19.724  21.154   0.892  0.00  0.00     0.210 HD
ENDBRANCH   9  11
ENDBRANCH   8   9
BRANCH   8  13
HETATM   13  O   UNK N   1      18.354  18.821   2.300  0.00  0.00    -0.390 OA
HETATM   14  H   UNK N   1      18.148  19.471   1.612  0.00  0.00     0.210 HD
ENDBRANCH   8  13
ENDBRANCH   1   8
BRANCH   1  15
HETATM   15  O   UNK N   1      20.373  16.504   3.273  0.00  0.00    -0.390 OA
HETATM   16  H   UNK N   1      19.872  15.688   3.118  0.00  0.00     0.210 HD
ENDBRANCH   1  15
TORSDOF 9
ENDMDL
MODEL 9
REMARK VINA RESULT:      -4.0     23.516     24.522
REMARK  9 active torsions:
REMARK  status: ('A' for Active; 'I' for Inactive)
REMARK    1  A    between atoms: C_4  and  C_2 
REMARK    2  A    between atoms: O_7  and  C_2 
REMARK    3  A    between atoms: C_5  and  C_3 
REMARK    4  A    between atoms: C_3  and  O_8 
REMARK    5  A    between atoms: C_6  and  C_4 
REMARK    6  A    between atoms: C_4  and  O_9 
REMARK    7  A    between atoms: C_6  and  C_5 
REMARK    8  A    between atoms: C_5  and  O_10 
REMARK    9  A    between atoms: C_6  and  O_11 
ROOT
HETATM    1  C   UNK N   1      44.437  23.362   2.046  0.00  0.00     0.180 C 
ENDROOT
BRANCH   1   2
HETATM    2  C   UNK N   1      45.147  24.733   2.181  0.00  0.00     0.173 C 
BRANCH   2   3
HETATM    3  C   UNK N   1      45.390  25.398   0.827  0.00  0.00     0.198 C 
BRANCH   3   4
HETATM    4  O   UNK N   1      44.281  26.143   0.425  0.00  0.00    -0.398 OA
HETATM    5  H   UNK N   1      44.196  26.436  -0.496  0.00  0.00     0.209 HD
ENDBRANCH   3   4
ENDBRANCH   2   3
BRANCH   2   6
HETATM    6  O   UNK N   1      46.392  24.571   2.790  0.00  0.00    -0.391 OA
HETATM    7  H   UNK N   1      46.743  23.681   2.951  0.00  0.00     0.210 HD
ENDBRANCH   2   6
ENDBRANCH   1   2
BRANCH   1   8
HETATM    8  C   UNK N   1      43.736  22.931   3.365  0.00  0.00     0.177 C 
BRANCH   8   9
HETATM    9  C   UNK N   1      44.497  21.817   4.113  0.00  0.00     0.145 C 
HETATM   10  C   UNK N   1      44.448  20.519   3.325  0.00  0.00     0.042 C 
BRANCH   9  11
HETATM   11  O   UNK N   1      45.835  22.165   4.302  0.00  0.00    -0.393 OA
HETATM   12  H   UNK N   1      46.263  22.007   5.159  0.00  0.00     0.210 HD
ENDBRANCH   9  11
ENDBRANCH   8   9
BRANCH   8  13
HETATM   13  O   UNK N   1      43.624  24.033   4.220  0.00  0.00    -0.390 OA
HETATM   14  H   UNK N   1      44.269  24.168   4.931  0.00  0.00     0.210 HD
ENDBRANCH   8  13
ENDBRANCH   1   8
BRANCH   1  15
HETATM   15  O   UNK N   1      43.490  23.435   1.019  0.00  0.00    -0.390 OA
HETATM   16  H   UNK N   1      42.680  22.905   1.063  0.00  0.00     0.210 HD
ENDBRANCH   1  15
TORSDOF 9
ENDMDL
