MODEL 1
REMARK VINA RESULT:      -4.5      0.000      0.000
REMARK  3 active torsions:
REMARK  status: ('A' for Active; 'I' for Inactive)
REMARK    1  A    between atoms: O_1  and  C_2 
REMARK    2  A    between atoms: C_2  and  C_4 
REMARK    3  A    between atoms: C_4  and  O_5 
ROOT
HETATM    1  C   UNK N   1      17.926  26.588   8.663  0.00  0.00     0.243 C 
HETATM    2  O   UNK N   1      16.938  27.303   8.669  0.00  0.00    -0.642 OA
ENDROOT
BRANCH   1   3
HETATM    3  O   UNK N   1      18.266  25.925   7.541  0.00  0.00    -0.768 OA
HETATM    4  H   UNK N   1      18.826  25.175   7.591  0.00  0.00     0.168 HD
ENDBRANCH   1   3
BRANCH   1   5
HETATM    5  C   UNK N   1      18.744  26.448   9.875  0.00  0.00     0.243 C 
HETATM    6  O   UNK N   1      19.410  27.387  10.275  0.00  0.00    -0.642 OA
BRANCH   5   7
HETATM    7  O   UNK N   1      18.758  25.281  10.547  0.00  0.00    -0.768 OA
HETATM    8  H   UNK N   1      18.265  24.550  10.229  0.00  0.00     0.168 HD
ENDBRANCH   5   7
ENDBRANCH   1   5
TORSDOF 3
ENDMDL
MODEL 2
REMARK VINA RESULT:      -3.9      8.824     10.086
REMARK  3 active torsions:
REMARK  status: ('A' for Active; 'I' for Inactive)
REMARK    1  A    between atoms: O_1  and  C_2 
REMARK    2  A    between atoms: C_2  and  C_4 
REMARK    3  A    between atoms: C_4  and  O_5 
ROOT
HETATM    1  C   UNK N   1      21.196  20.902   2.589  0.00  0.00     0.243 C 
HETATM    2  O   UNK N   1      20.474  20.647   3.538  0.00  0.00    -0.642 OA
ENDROOT
BRANCH   1   3
HETATM    3  O   UNK N   1      22.232  21.749   2.744  0.00  0.00    -0.768 OA
HETATM    4  H   UNK N   1      22.754  21.992   2.005  0.00  0.00     0.168 HD
ENDBRANCH   1   3
BRANCH   1   5
HETATM    5  C   UNK N   1      20.940  20.288   1.280  0.00  0.00     0.243 C 
HETATM    6  O   UNK N   1      21.302  20.848   0.260  0.00  0.00    -0.642 OA
BRANCH   5   7
HETATM    7  O   UNK N   1      20.303  19.103   1.205  0.00  0.00    -0.768 OA
HETATM    8  H   UNK N   1      20.730  18.365   0.815  0.00  0.00     0.168 HD
ENDBRANCH   5   7
ENDBRANCH   1   5
TORSDOF 3
ENDMDL
MODEL 3
REMARK VINA RESULT:      -3.9      8.870      9.990
REMARK  3 active torsions:
REMARK  status: ('A' for Active; 'I' for Inactive)
REMARK    1  A    between atoms: O_1  and  C_2 
REMARK    2  A    between atoms: C_2  and  C_4 
REMARK    3  A    between atoms: C_4  and  O_5 
ROOT
HETATM    1  C   UNK N   1      20.890  20.258   1.215  0.00  0.00     0.243 C 
HETATM    2  O   UNK N   1      21.162  20.854   0.187  0.00  0.00    -0.642 OA
ENDROOT
BRANCH   1   3
HETATM    3  O   UNK N   1      20.350  19.025   1.152  0.00  0.00    -0.768 OA
HETATM    4  H   UNK N   1      20.303  18.576   0.330  0.00  0.00     0.168 HD
ENDBRANCH   1   3
BRANCH   1   5
HETATM    5  C   UNK N   1      21.150  20.879   2.520  0.00  0.00     0.243 C 
HETATM    6  O   UNK N   1      20.420  20.644   3.467  0.00  0.00    -0.642 OA
BRANCH   5   7
HETATM    7  O   UNK N   1      22.199  21.711   2.673  0.00  0.00    -0.768 OA
HETATM    8  H   UNK N   1      22.113  22.619   2.457  0.00  0.00     0.168 HD
ENDBRANCH   5   7
ENDBRANCH   1   5
TORSDOF 3
ENDMDL
MODEL 4
REMARK VINA RESULT:      -3.7     18.245     18.661
REMARK  3 active torsions:
REMARK  status: ('A' for Active; 'I' for Inactive)
REMARK    1  A    between atoms: O_1  and  C_2 
REMARK    2  A    between atoms: C_2  and  C_4 
REMARK    3  A    between atoms: C_4  and  O_5 
ROOT
HETATM    1  C   UNK N   1      34.599  17.344   9.356  0.00  0.00     0.243 C 
HETATM    2  O   UNK N   1      35.443  17.191  10.223  0.00  0.00    -0.642 OA
ENDROOT
BRANCH   1   3
HETATM    3  O   UNK N   1      33.470  16.609   9.383  0.00  0.00    -0.768 OA
HETATM    4  H   UNK N   1      33.301  16.037  10.107  0.00  0.00     0.168 HD
ENDBRANCH   1   3
BRANCH   1   5
HETATM    5  C   UNK N   1      34.809  18.327   8.286  0.00  0.00     0.243 C 
HETATM    6  O   UNK N   1      35.344  19.394   8.531  0.00  0.00    -0.642 OA
BRANCH   5   7
HETATM    7  O   UNK N   1      34.410  18.050   7.029  0.00  0.00    -0.768 OA
HETATM    8  H   UNK N   1      34.968  18.254   6.304  0.00  0.00     0.168 HD
ENDBRANCH   5   7
ENDBRANCH   1   5
TORSDOF 3
ENDMDL
MODEL 5
REMARK VINA RESULT:      -3.7     18.131     18.382
REMARK  3 active torsions:
REMARK  status: ('A' for Active; 'I' for Inactive)
REMARK    1  A    between atoms: O_1  and  C_2 
REMARK    2  A    between atoms: C_2  and  C_4 
REMARK    3  A    between atoms: C_4  and  O_5 
ROOT
HETATM    1  C   UNK N   1      34.650  18.275   8.141  0.00  0.00     0.243 C 
HETATM    2  O   UNK N   1      35.286  19.235   8.542  0.00  0.00    -0.642 OA
ENDROOT
BRANCH   1   3
HETATM    3  O   UNK N   1      34.396  18.144   6.824  0.00  0.00    -0.768 OA
HETATM    4  H   UNK N   1      34.938  18.581   6.196  0.00  0.00     0.168 HD
ENDBRANCH   1   3
BRANCH   1   5
HETATM    5  C   UNK N   1      34.161  17.264   9.087  0.00  0.00     0.243 C 
HETATM    6  O   UNK N   1      33.259  16.509   8.765  0.00  0.00    -0.642 OA
BRANCH   5   7
HETATM    7  O   UNK N   1      34.708  17.169  10.314  0.00  0.00    -0.768 OA
HETATM    8  H   UNK N   1      35.579  17.482  10.464  0.00  0.00     0.168 HD
ENDBRANCH   5   7
ENDBRANCH   1   5
TORSDOF 3
ENDMDL
MODEL 6
REMARK VINA RESULT:      -3.7      8.877     10.004
REMARK  3 active torsions:
REMARK  status: ('A' for Active; 'I' for Inactive)
REMARK    1  A    between atoms: O_1  and  C_2 
REMARK    2  A    between atoms: C_2  and  C_4 
REMARK    3  A    between atoms: C_4  and  O_5 
ROOT
HETATM    1  C   UNK N   1      21.036  20.353   1.484  0.00  0.00     0.243 C 
HETATM    2  O   UNK N   1      22.152  20.798   1.697  0.00  0.00    -0.642 OA
ENDROOT
BRANCH   1   3
HETATM    3  O   UNK N   1      20.628  20.146   0.217  0.00  0.00    -0.768 OA
HETATM    4  H   UNK N   1      19.856  19.641   0.050  0.00  0.00     0.168 HD
ENDBRANCH   1   3
BRANCH   1   5
HETATM    5  C   UNK N   1      20.138  20.044   2.605  0.00  0.00     0.243 C 
HETATM    6  O   UNK N   1      20.331  20.544   3.699  0.00  0.00    -0.642 OA
BRANCH   5   7
HETATM    7  O   UNK N   1      19.099  19.206   2.423  0.00  0.00    -0.768 OA
HETATM    8  H   UNK N   1      19.105  18.599   1.710  0.00  0.00     0.168 HD
ENDBRANCH   5   7
ENDBRANCH   1   5
TORSDOF 3
ENDMDL
MODEL 7
REMARK VINA RESULT:      -3.6     19.416     20.192
REMARK  3 active torsions:
REMARK  status: ('A' for Active; 'I' for Inactive)
REMARK    1  A    between atoms: O_1  and  C_2 
REMARK    2  A    between atoms: C_2  and  C_4 
REMARK    3  A    between atoms: C_4  and  O_5 
ROOT
HETATM    1  C   UNK N   1      34.696  15.155  11.522  0.00  0.00     0.243 C 
HETATM    2  O   UNK N   1      35.113  14.377  12.363  0.00  0.00    -0.642 OA
ENDROOT
BRANCH   1   3
HETATM    3  O   UNK N   1      33.423  15.057  11.091  0.00  0.00    -0.768 OA
HETATM    4  H   UNK N   1      33.068  15.715  10.526  0.00  0.00     0.168 HD
ENDBRANCH   1   3
BRANCH   1   5
HETATM    5  C   UNK N   1      35.576  16.197  10.978  0.00  0.00     0.243 C 
HETATM    6  O   UNK N   1      35.104  17.234  10.546  0.00  0.00    -0.642 OA
BRANCH   5   7
HETATM    7  O   UNK N   1      36.910  16.008  10.956  0.00  0.00    -0.768 OA
HETATM    8  H   UNK N   1      37.279  15.331  10.423  0.00  0.00     0.168 HD
ENDBRANCH   5   7
ENDBRANCH   1   5
TORSDOF 3
ENDMDL
MODEL 8
REMARK VINA RESULT:      -3.6     19.416     20.176
REMARK  3 active torsions:
REMARK  status: ('A' for Active; 'I' for Inactive)
REMARK    1  A    between atoms: O_1  and  C_2 
REMARK    2  A    between atoms: C_2  and  C_4 
REMARK    3  A    between atoms: C_4  and  O_5 
ROOT
HETATM    1  C   UNK N   1      35.575  16.189  10.970  0.00  0.00     0.243 C 
HETATM    2  O   UNK N   1      35.102  17.219  10.519  0.00  0.00    -0.642 OA
ENDROOT
BRANCH   1   3
HETATM    3  O   UNK N   1      36.909  16.005  10.963  0.00  0.00    -0.768 OA
HETATM    4  H   UNK N   1      37.470  16.661  10.596  0.00  0.00     0.168 HD
ENDBRANCH   1   3
BRANCH   1   5
HETATM    5  C   UNK N   1      34.694  15.151  11.520  0.00  0.00     0.243 C 
HETATM    6  O   UNK N   1      35.111  14.377  12.363  0.00  0.00    -0.642 OA
BRANCH   5   7
HETATM    7  O   UNK N   1      33.420  15.052  11.092  0.00  0.00    -0.768 OA
HETATM    8  H   UNK N   1      32.972  14.231  11.137  0.00  0.00     0.168 HD
ENDBRANCH   5   7
ENDBRANCH   1   5
TORSDOF 3
ENDMDL
MODEL 9
REMARK VINA RESULT:      -3.5     17.424     18.019
REMARK  3 active torsions:
REMARK  status: ('A' for Active; 'I' for Inactive)
REMARK    1  A    between atoms: O_1  and  C_2 
REMARK    2  A    between atoms: C_2  and  C_4 
REMARK    3  A    between atoms: C_4  and  O_5 
ROOT
HETATM    1  C   UNK N   1      33.765  17.815   7.276  0.00  0.00     0.243 C 
HETATM    2  O   UNK N   1      34.307  17.851   6.184  0.00  0.00    -0.642 OA
ENDROOT
BRANCH   1   3
HETATM    3  O   UNK N   1      32.476  17.435   7.371  0.00  0.00    -0.768 OA
HETATM    4  H   UNK N   1      32.017  17.138   6.609  0.00  0.00     0.168 HD
ENDBRANCH   1   3
BRANCH   1   5
HETATM    5  C   UNK N   1      34.512  18.185   8.484  0.00  0.00     0.243 C 
HETATM    6  O   UNK N   1      35.270  19.140   8.468  0.00  0.00    -0.642 OA
BRANCH   5   7
HETATM    7  O   UNK N   1      34.361  17.469   9.615  0.00  0.00    -0.768 OA
HETATM    8  H   UNK N   1      35.028  17.486  10.274  0.00  0.00     0.168 HD
ENDBRANCH   5   7
ENDBRANCH   1   5
TORSDOF 3
ENDMDL
