MODEL 1
REMARK VINA RESULT:      -5.3      0.000      0.000
REMARK  8 active torsions:
REMARK  status: ('A' for Active; 'I' for Inactive)
REMARK    1  A    between atoms: C_1  and  C_2 
REMARK    2  A    between atoms: C_2  and  C_3 
REMARK    3  A    between atoms: C_3  and  C_4 
REMARK    4  A    between atoms: C_3  and  N_10 
REMARK    5  A    between atoms: C_4  and  O_5 
REMARK    6  A    between atoms: O_5  and  P_6 
REMARK    7  A    between atoms: P_6  and  O_7 
REMARK    8  A    between atoms: P_6  and  O_8 
ROOT
HETATM    1  C   UNK N   1      35.895  15.625  11.249  0.00  0.00     0.104 C 
ENDROOT
BRANCH   1   2
HETATM    2  C   UNK N   1      34.909  16.100  10.192  0.00  0.00     0.205 C 
BRANCH   2   3
HETATM    3  O   UNK N   1      35.216  17.401   9.775  0.00  0.00    -0.295 OA
BRANCH   3   4
HETATM    4  P   UNK N   1      34.075  17.751   8.507  0.00  0.00     0.390 P 
HETATM    5  O   UNK N   1      34.706  16.425   8.004  0.00  0.00    -0.632 OA
BRANCH   4   6
HETATM    6  O   UNK N   1      35.293  18.989   8.556  0.00  0.00    -0.307 OA
HETATM    7  H   UNK N   1      36.256  18.893   8.630  0.00  0.00     0.222 HD
ENDBRANCH   4   6
BRANCH   4   8
HETATM    8  O   UNK N   1      34.614  18.178   6.913  0.00  0.00    -0.307 OA
HETATM    9  H   UNK N   1      35.043  19.023   6.709  0.00  0.00     0.222 HD
ENDBRANCH   4   8
ENDBRANCH   3   4
ENDBRANCH   2   3
ENDBRANCH   1   2
BRANCH   1  10
HETATM   10  C   UNK N   1      35.292  14.426  11.970  0.00  0.00     0.085 C 
BRANCH  10  11
HETATM   11  C   UNK N   1      35.853  14.227  13.344  0.00  0.00     0.027 A 
HETATM   12  C   UNK N   1      35.499  13.246  14.240  0.00  0.00     0.114 A 
HETATM   13  N   UNK N   1      36.204  13.448  15.368  0.00  0.00    -0.360 N 
HETATM   14  C   UNK N   1      36.961  14.543  15.142  0.00  0.00     0.180 A 
HETATM   15  H   UNK N   1      36.175  12.908  16.191  0.00  0.00     0.166 HD
HETATM   16  N   UNK N   1      36.762  15.041  13.904  0.00  0.00    -0.355 N 
ATOM     17  HN  UNK N   1      37.205  15.858  13.485  1.00  0.00     0.166 HD
ENDBRANCH  10  11
ENDBRANCH   1  10
BRANCH   1  18
HETATM   18  N   UNK N   1      37.139  15.233  10.606  0.00  0.00    -0.424 N 
HETATM   19  H   UNK N   1      37.173  15.045   9.605  0.00  0.00     0.150 HD
HETATM   20  H   UNK N   1      37.988  15.145  11.164  0.00  0.00     0.150 HD
ENDBRANCH   1  18
TORSDOF 8
ENDMDL
MODEL 2
REMARK VINA RESULT:      -5.2      5.237      7.538
REMARK  8 active torsions:
REMARK  status: ('A' for Active; 'I' for Inactive)
REMARK    1  A    between atoms: C_1  and  C_2 
REMARK    2  A    between atoms: C_2  and  C_3 
REMARK    3  A    between atoms: C_3  and  C_4 
REMARK    4  A    between atoms: C_3  and  N_10 
REMARK    5  A    between atoms: C_4  and  O_5 
REMARK    6  A    between atoms: O_5  and  P_6 
REMARK    7  A    between atoms: P_6  and  O_7 
REMARK    8  A    between atoms: P_6  and  O_8 
ROOT
HETATM    1  C   UNK N   1      31.540  16.901   8.180  0.00  0.00     0.104 C 
ENDROOT
BRANCH   1   2
HETATM    2  C   UNK N   1      32.744  16.106   8.660  0.00  0.00     0.205 C 
BRANCH   2   3
HETATM    3  O   UNK N   1      33.918  16.562   8.048  0.00  0.00    -0.295 OA
BRANCH   3   4
HETATM    4  P   UNK N   1      33.879  18.294   8.229  0.00  0.00     0.390 P 
HETATM    5  O   UNK N   1      34.609  18.138   6.868  0.00  0.00    -0.632 OA
BRANCH   4   6
HETATM    6  O   UNK N   1      34.850  17.595   9.490  0.00  0.00    -0.307 OA
HETATM    7  H   UNK N   1      35.796  17.717   9.667  0.00  0.00     0.222 HD
ENDBRANCH   4   6
BRANCH   4   8
HETATM    8  O   UNK N   1      35.339  19.198   8.485  0.00  0.00    -0.307 OA
HETATM    9  H   UNK N   1      35.814  19.206   9.330  0.00  0.00     0.222 HD
ENDBRANCH   4   8
ENDBRANCH   3   4
ENDBRANCH   2   3
ENDBRANCH   1   2
BRANCH   1  10
HETATM   10  C   UNK N   1      30.947  16.197   6.966  0.00  0.00     0.085 C 
BRANCH  10  11
HETATM   11  C   UNK N   1      31.353  16.824   5.668  0.00  0.00     0.027 A 
HETATM   12  C   UNK N   1      30.536  17.497   4.792  0.00  0.00     0.114 A 
HETATM   13  N   UNK N   1      31.283  17.861   3.733  0.00  0.00    -0.360 N 
HETATM   14  C   UNK N   1      32.527  17.398   3.980  0.00  0.00     0.180 A 
HETATM   15  H   UNK N   1      30.984  18.362   2.940  0.00  0.00     0.166 HD
HETATM   16  N   UNK N   1      32.596  16.756   5.164  0.00  0.00    -0.355 N 
ATOM     17  HN  UNK N   1      33.413  16.314   5.584  1.00  0.00     0.166 HD
ENDBRANCH  10  11
ENDBRANCH   1  10
BRANCH   1  18
HETATM   18  N   UNK N   1      30.547  16.962   9.241  0.00  0.00    -0.424 N 
HETATM   19  H   UNK N   1      29.562  17.110   9.026  0.00  0.00     0.150 HD
HETATM   20  H   UNK N   1      30.841  16.855  10.212  0.00  0.00     0.150 HD
ENDBRANCH   1  18
TORSDOF 8
ENDMDL
MODEL 3
REMARK VINA RESULT:      -5.2      2.343      3.237
REMARK  8 active torsions:
REMARK  status: ('A' for Active; 'I' for Inactive)
REMARK    1  A    between atoms: C_1  and  C_2 
REMARK    2  A    between atoms: C_2  and  C_3 
REMARK    3  A    between atoms: C_3  and  C_4 
REMARK    4  A    between atoms: C_3  and  N_10 
REMARK    5  A    between atoms: C_4  and  O_5 
REMARK    6  A    between atoms: O_5  and  P_6 
REMARK    7  A    between atoms: P_6  and  O_7 
REMARK    8  A    between atoms: P_6  and  O_8 
ROOT
HETATM    1  C   UNK N   1      33.752  14.227   9.203  0.00  0.00     0.104 C 
ENDROOT
BRANCH   1   2
HETATM    2  C   UNK N   1      33.375  15.677   8.941  0.00  0.00     0.205 C 
BRANCH   2   3
HETATM    3  O   UNK N   1      34.351  16.312   8.161  0.00  0.00    -0.295 OA
BRANCH   3   4
HETATM    4  P   UNK N   1      34.010  18.013   8.306  0.00  0.00     0.390 P 
HETATM    5  O   UNK N   1      34.669  17.944   6.902  0.00  0.00    -0.632 OA
BRANCH   4   6
HETATM    6  O   UNK N   1      35.168  17.544   9.513  0.00  0.00    -0.307 OA
HETATM    7  H   UNK N   1      35.120  16.814  10.151  0.00  0.00     0.222 HD
ENDBRANCH   4   6
BRANCH   4   8
HETATM    8  O   UNK N   1      35.294  19.173   8.442  0.00  0.00    -0.307 OA
HETATM    9  H   UNK N   1      35.935  19.169   9.170  0.00  0.00     0.222 HD
ENDBRANCH   4   8
ENDBRANCH   3   4
ENDBRANCH   2   3
ENDBRANCH   1   2
BRANCH   1  10
HETATM   10  C   UNK N   1      34.408  14.137  10.574  0.00  0.00     0.085 C 
BRANCH  10  11
HETATM   11  C   UNK N   1      35.902  14.054  10.505  0.00  0.00     0.027 A 
HETATM   12  C   UNK N   1      36.728  13.397  11.385  0.00  0.00     0.114 A 
HETATM   13  N   UNK N   1      37.997  13.606  10.989  0.00  0.00    -0.360 N 
HETATM   14  C   UNK N   1      37.919  14.387   9.890  0.00  0.00     0.180 A 
HETATM   15  H   UNK N   1      38.816  13.261  11.413  0.00  0.00     0.166 HD
HETATM   16  N   UNK N   1      36.641  14.677   9.573  0.00  0.00    -0.355 N 
ATOM     17  HN  UNK N   1      36.308  15.246   8.795  1.00  0.00     0.166 HD
ENDBRANCH  10  11
ENDBRANCH   1  10
BRANCH   1  18
HETATM   18  N   UNK N   1      32.552  13.405   9.181  0.00  0.00    -0.424 N 
HETATM   19  H   UNK N   1      32.465  12.626   8.530  0.00  0.00     0.150 HD
HETATM   20  H   UNK N   1      31.790  13.611   9.826  0.00  0.00     0.150 HD
ENDBRANCH   1  18
TORSDOF 8
ENDMDL
MODEL 4
REMARK VINA RESULT:      -4.9      6.165      7.077
REMARK  8 active torsions:
REMARK  status: ('A' for Active; 'I' for Inactive)
REMARK    1  A    between atoms: C_1  and  C_2 
REMARK    2  A    between atoms: C_2  and  C_3 
REMARK    3  A    between atoms: C_3  and  C_4 
REMARK    4  A    between atoms: C_3  and  N_10 
REMARK    5  A    between atoms: C_4  and  O_5 
REMARK    6  A    between atoms: O_5  and  P_6 
REMARK    7  A    between atoms: P_6  and  O_7 
REMARK    8  A    between atoms: P_6  and  O_8 
ROOT
HETATM    1  C   UNK N   1      31.357  15.784   7.102  0.00  0.00     0.104 C 
ENDROOT
BRANCH   1   2
HETATM    2  C   UNK N   1      32.745  16.323   6.794  0.00  0.00     0.205 C 
BRANCH   2   3
HETATM    3  O   UNK N   1      33.468  16.540   7.974  0.00  0.00    -0.295 OA
BRANCH   3   4
HETATM    4  P   UNK N   1      33.658  18.268   8.076  0.00  0.00     0.390 P 
HETATM    5  O   UNK N   1      34.529  17.930   6.837  0.00  0.00    -0.632 OA
BRANCH   4   6
HETATM    6  O   UNK N   1      34.343  17.520   9.487  0.00  0.00    -0.307 OA
HETATM    7  H   UNK N   1      34.531  16.582   9.647  0.00  0.00     0.222 HD
ENDBRANCH   4   6
BRANCH   4   8
HETATM    8  O   UNK N   1      35.187  18.975   8.494  0.00  0.00    -0.307 OA
HETATM    9  H   UNK N   1      36.010  18.465   8.540  0.00  0.00     0.222 HD
ENDBRANCH   4   8
ENDBRANCH   3   4
ENDBRANCH   2   3
ENDBRANCH   1   2
BRANCH   1  10
HETATM   10  C   UNK N   1      30.326  16.800   6.628  0.00  0.00     0.085 C 
BRANCH  10  11
HETATM   11  C   UNK N   1      29.535  17.399   7.749  0.00  0.00     0.027 A 
HETATM   12  C   UNK N   1      28.276  17.944   7.665  0.00  0.00     0.114 A 
HETATM   13  N   UNK N   1      27.949  18.409   8.885  0.00  0.00    -0.360 N 
HETATM   14  C   UNK N   1      29.009  18.148   9.678  0.00  0.00     0.180 A 
HETATM   15  H   UNK N   1      27.107  18.850   9.146  0.00  0.00     0.166 HD
HETATM   16  N   UNK N   1      29.999  17.529   9.003  0.00  0.00    -0.355 N 
ATOM     17  HN  UNK N   1      30.902  17.225   9.365  1.00  0.00     0.166 HD
ENDBRANCH  10  11
ENDBRANCH   1  10
BRANCH   1  18
HETATM   18  N   UNK N   1      31.161  14.525   6.400  0.00  0.00    -0.424 N 
HETATM   19  H   UNK N   1      31.757  14.269   5.613  0.00  0.00     0.150 HD
HETATM   20  H   UNK N   1      30.419  13.893   6.698  0.00  0.00     0.150 HD
ENDBRANCH   1  18
TORSDOF 8
ENDMDL
MODEL 5
REMARK VINA RESULT:      -4.9      1.678      2.379
REMARK  8 active torsions:
REMARK  status: ('A' for Active; 'I' for Inactive)
REMARK    1  A    between atoms: C_1  and  C_2 
REMARK    2  A    between atoms: C_2  and  C_3 
REMARK    3  A    between atoms: C_3  and  C_4 
REMARK    4  A    between atoms: C_3  and  N_10 
REMARK    5  A    between atoms: C_4  and  O_5 
REMARK    6  A    between atoms: O_5  and  P_6 
REMARK    7  A    between atoms: P_6  and  O_7 
REMARK    8  A    between atoms: P_6  and  O_8 
ROOT
HETATM    1  C   UNK N   1      33.911  14.662   9.613  0.00  0.00     0.104 C 
ENDROOT
BRANCH   1   2
HETATM    2  C   UNK N   1      34.830  15.794   9.179  0.00  0.00     0.205 C 
BRANCH   2   3
HETATM    3  O   UNK N   1      34.438  16.302   7.934  0.00  0.00    -0.295 OA
BRANCH   3   4
HETATM    4  P   UNK N   1      34.016  17.964   8.238  0.00  0.00     0.390 P 
HETATM    5  O   UNK N   1      34.688  18.062   6.842  0.00  0.00    -0.632 OA
BRANCH   4   6
HETATM    6  O   UNK N   1      35.187  17.435   9.408  0.00  0.00    -0.307 OA
HETATM    7  H   UNK N   1      36.143  17.597   9.427  0.00  0.00     0.222 HD
ENDBRANCH   4   6
BRANCH   4   8
HETATM    8  O   UNK N   1      35.243  19.164   8.500  0.00  0.00    -0.307 OA
HETATM    9  H   UNK N   1      35.120  19.928   9.083  0.00  0.00     0.222 HD
ENDBRANCH   4   8
ENDBRANCH   3   4
ENDBRANCH   2   3
ENDBRANCH   1   2
BRANCH   1  10
HETATM   10  C   UNK N   1      34.768  13.495  10.084  0.00  0.00     0.085 C 
BRANCH  10  11
HETATM   11  C   UNK N   1      35.322  13.693  11.461  0.00  0.00     0.027 A 
HETATM   12  C   UNK N   1      36.449  14.403  11.798  0.00  0.00     0.114 A 
HETATM   13  N   UNK N   1      36.619  14.296  13.128  0.00  0.00    -0.360 N 
HETATM   14  C   UNK N   1      35.606  13.522  13.571  0.00  0.00     0.180 A 
HETATM   15  H   UNK N   1      37.337  14.699  13.669  0.00  0.00     0.166 HD
HETATM   16  N   UNK N   1      34.794  13.137  12.564  0.00  0.00    -0.355 N 
ATOM     17  HN  UNK N   1      33.962  12.552  12.627  1.00  0.00     0.166 HD
ENDBRANCH  10  11
ENDBRANCH   1  10
BRANCH   1  18
HETATM   18  N   UNK N   1      33.066  15.119  10.706  0.00  0.00    -0.424 N 
HETATM   19  H   UNK N   1      33.346  15.910  11.285  0.00  0.00     0.150 HD
HETATM   20  H   UNK N   1      32.185  14.643  10.893  0.00  0.00     0.150 HD
ENDBRANCH   1  18
TORSDOF 8
ENDMDL
MODEL 6
REMARK VINA RESULT:      -4.9      3.223      4.392
REMARK  8 active torsions:
REMARK  status: ('A' for Active; 'I' for Inactive)
REMARK    1  A    between atoms: C_1  and  C_2 
REMARK    2  A    between atoms: C_2  and  C_3 
REMARK    3  A    between atoms: C_3  and  C_4 
REMARK    4  A    between atoms: C_3  and  N_10 
REMARK    5  A    between atoms: C_4  and  O_5 
REMARK    6  A    between atoms: O_5  and  P_6 
REMARK    7  A    between atoms: P_6  and  O_7 
REMARK    8  A    between atoms: P_6  and  O_8 
ROOT
HETATM    1  C   UNK N   1      35.979  13.687  14.664  0.00  0.00     0.104 C 
ENDROOT
BRANCH   1   2
HETATM    2  C   UNK N   1      35.568  13.794  13.204  0.00  0.00     0.205 C 
BRANCH   2   3
HETATM    3  O   UNK N   1      36.179  14.898  12.595  0.00  0.00    -0.295 OA
BRANCH   3   4
HETATM    4  P   UNK N   1      36.345  14.455  10.919  0.00  0.00     0.390 P 
HETATM    5  O   UNK N   1      37.393  13.528  11.593  0.00  0.00    -0.632 OA
BRANCH   4   6
HETATM    6  O   UNK N   1      36.815  16.113  11.135  0.00  0.00    -0.307 OA
HETATM    7  H   UNK N   1      36.819  16.644  11.948  0.00  0.00     0.222 HD
ENDBRANCH   4   6
BRANCH   4   8
HETATM    8  O   UNK N   1      37.792  14.827  10.037  0.00  0.00    -0.307 OA
HETATM    9  H   UNK N   1      38.411  14.149   9.725  0.00  0.00     0.222 HD
ENDBRANCH   4   8
ENDBRANCH   3   4
ENDBRANCH   2   3
ENDBRANCH   1   2
BRANCH   1  10
HETATM   10  C   UNK N   1      35.003  12.760  15.377  0.00  0.00     0.085 C 
BRANCH  10  11
HETATM   11  C   UNK N   1      35.112  12.829  16.869  0.00  0.00     0.027 A 
HETATM   12  C   UNK N   1      35.192  13.969  17.633  0.00  0.00     0.114 A 
HETATM   13  N   UNK N   1      35.322  13.592  18.918  0.00  0.00    -0.360 N 
HETATM   14  C   UNK N   1      35.327  12.242  18.910  0.00  0.00     0.180 A 
HETATM   15  H   UNK N   1      35.398  14.180  19.704  0.00  0.00     0.166 HD
HETATM   16  N   UNK N   1      35.201  11.749  17.661  0.00  0.00    -0.355 N 
ATOM     17  HN  UNK N   1      35.178  10.769  17.379  1.00  0.00     0.166 HD
ENDBRANCH  10  11
ENDBRANCH   1  10
BRANCH   1  18
HETATM   18  N   UNK N   1      37.323  13.137  14.747  0.00  0.00    -0.424 N 
HETATM   19  H   UNK N   1      37.515  12.312  15.316  0.00  0.00     0.150 HD
HETATM   20  H   UNK N   1      38.082  13.581  14.231  0.00  0.00     0.150 HD
ENDBRANCH   1  18
TORSDOF 8
ENDMDL
MODEL 7
REMARK VINA RESULT:      -4.8     16.648     18.017
REMARK  8 active torsions:
REMARK  status: ('A' for Active; 'I' for Inactive)
REMARK    1  A    between atoms: C_1  and  C_2 
REMARK    2  A    between atoms: C_2  and  C_3 
REMARK    3  A    between atoms: C_3  and  C_4 
REMARK    4  A    between atoms: C_3  and  N_10 
REMARK    5  A    between atoms: C_4  and  O_5 
REMARK    6  A    between atoms: O_5  and  P_6 
REMARK    7  A    between atoms: P_6  and  O_7 
REMARK    8  A    between atoms: P_6  and  O_8 
ROOT
HETATM    1  C   UNK N   1      20.894  18.120   3.890  0.00  0.00     0.104 C 
ENDROOT
BRANCH   1   2
HETATM    2  C   UNK N   1      21.733  19.376   3.715  0.00  0.00     0.205 C 
BRANCH   2   3
HETATM    3  O   UNK N   1      21.899  19.677   2.357  0.00  0.00    -0.295 OA
BRANCH   3   4
HETATM    4  P   UNK N   1      20.518  20.652   1.938  0.00  0.00     0.390 P 
HETATM    5  O   UNK N   1      20.983  20.152   0.543  0.00  0.00    -0.632 OA
BRANCH   4   6
HETATM    6  O   UNK N   1      21.753  21.656   2.634  0.00  0.00    -0.307 OA
HETATM    7  H   UNK N   1      22.323  21.477   3.398  0.00  0.00     0.222 HD
ENDBRANCH   4   6
BRANCH   4   8
HETATM    8  O   UNK N   1      20.706  22.135   1.056  0.00  0.00    -0.307 OA
HETATM    9  H   UNK N   1      21.462  22.729   1.175  0.00  0.00     0.222 HD
ENDBRANCH   4   8
ENDBRANCH   3   4
ENDBRANCH   2   3
ENDBRANCH   1   2
BRANCH   1  10
HETATM   10  C   UNK N   1      21.485  17.017   3.021  0.00  0.00     0.085 C 
BRANCH  10  11
HETATM   11  C   UNK N   1      20.541  16.536   1.962  0.00  0.00     0.027 A 
HETATM   12  C   UNK N   1      19.891  15.326   1.932  0.00  0.00     0.114 A 
HETATM   13  N   UNK N   1      19.177  15.273   0.793  0.00  0.00    -0.360 N 
HETATM   14  C   UNK N   1      19.412  16.439   0.153  0.00  0.00     0.180 A 
HETATM   15  H   UNK N   1      18.601  14.535   0.487  0.00  0.00     0.166 HD
HETATM   16  N   UNK N   1      20.249  17.232   0.852  0.00  0.00    -0.355 N 
ATOM     17  HN  UNK N   1      20.586  18.159   0.594  1.00  0.00     0.166 HD
ENDBRANCH  10  11
ENDBRANCH   1  10
BRANCH   1  18
HETATM   18  N   UNK N   1      20.925  17.710   5.285  0.00  0.00    -0.424 N 
HETATM   19  H   UNK N   1      20.314  18.150   5.972  0.00  0.00     0.150 HD
HETATM   20  H   UNK N   1      21.566  16.974   5.580  0.00  0.00     0.150 HD
ENDBRANCH   1  18
TORSDOF 8
ENDMDL
MODEL 8
REMARK VINA RESULT:      -4.8     14.469     14.939
REMARK  8 active torsions:
REMARK  status: ('A' for Active; 'I' for Inactive)
REMARK    1  A    between atoms: C_1  and  C_2 
REMARK    2  A    between atoms: C_2  and  C_3 
REMARK    3  A    between atoms: C_3  and  C_4 
REMARK    4  A    between atoms: C_3  and  N_10 
REMARK    5  A    between atoms: C_4  and  O_5 
REMARK    6  A    between atoms: O_5  and  P_6 
REMARK    7  A    between atoms: P_6  and  O_7 
REMARK    8  A    between atoms: P_6  and  O_8 
ROOT
HETATM    1  C   UNK N   1      21.726  13.354   8.352  0.00  0.00     0.104 C 
ENDROOT
BRANCH   1   2
HETATM    2  C   UNK N   1      21.276  14.806   8.312  0.00  0.00     0.205 C 
BRANCH   2   3
HETATM    3  O   UNK N   1      19.990  14.914   7.768  0.00  0.00    -0.295 OA
BRANCH   3   4
HETATM    4  P   UNK N   1      19.355  16.406   8.401  0.00  0.00     0.390 P 
HETATM    5  O   UNK N   1      18.808  15.375   9.424  0.00  0.00    -0.632 OA
BRANCH   4   6
HETATM    6  O   UNK N   1      18.663  16.092   6.838  0.00  0.00    -0.307 OA
HETATM    7  H   UNK N   1      17.998  15.432   6.589  0.00  0.00     0.222 HD
ENDBRANCH   4   6
BRANCH   4   8
HETATM    8  O   UNK N   1      17.650  16.731   8.381  0.00  0.00    -0.307 OA
HETATM    9  H   UNK N   1      17.188  17.084   7.605  0.00  0.00     0.222 HD
ENDBRANCH   4   8
ENDBRANCH   3   4
ENDBRANCH   2   3
ENDBRANCH   1   2
BRANCH   1  10
HETATM   10  C   UNK N   1      21.196  12.717   9.630  0.00  0.00     0.085 C 
BRANCH  10  11
HETATM   11  C   UNK N   1      22.267  12.460  10.644  0.00  0.00     0.027 A 
HETATM   12  C   UNK N   1      23.619  12.632  10.470  0.00  0.00     0.114 A 
HETATM   13  N   UNK N   1      24.231  12.246  11.605  0.00  0.00    -0.360 N 
HETATM   14  C   UNK N   1      23.248  11.841  12.437  0.00  0.00     0.180 A 
HETATM   15  H   UNK N   1      25.198  12.257  11.792  0.00  0.00     0.166 HD
HETATM   16  N   UNK N   1      22.031  11.961  11.869  0.00  0.00    -0.355 N 
ATOM     17  HN  UNK N   1      21.127  11.726  12.279  1.00  0.00     0.166 HD
ENDBRANCH  10  11
ENDBRANCH   1  10
BRANCH   1  18
HETATM   18  N   UNK N   1      21.188  12.650   7.198  0.00  0.00    -0.424 N 
HETATM   19  H   UNK N   1      20.339  12.091   7.277  0.00  0.00     0.150 HD
HETATM   20  H   UNK N   1      21.665  12.718   6.300  0.00  0.00     0.150 HD
ENDBRANCH   1  18
TORSDOF 8
ENDMDL
MODEL 9
REMARK VINA RESULT:      -4.8      5.028      6.795
REMARK  8 active torsions:
REMARK  status: ('A' for Active; 'I' for Inactive)
REMARK    1  A    between atoms: C_1  and  C_2 
REMARK    2  A    between atoms: C_2  and  C_3 
REMARK    3  A    between atoms: C_3  and  C_4 
REMARK    4  A    between atoms: C_3  and  N_10 
REMARK    5  A    between atoms: C_4  and  O_5 
REMARK    6  A    between atoms: O_5  and  P_6 
REMARK    7  A    between atoms: P_6  and  O_7 
REMARK    8  A    between atoms: P_6  and  O_8 
ROOT
HETATM    1  C   UNK N   1      32.348  16.226   8.117  0.00  0.00     0.104 C 
ENDROOT
BRANCH   1   2
HETATM    2  C   UNK N   1      33.337  15.765   9.176  0.00  0.00     0.205 C 
BRANCH   2   3
HETATM    3  O   UNK N   1      34.496  16.551   9.148  0.00  0.00    -0.295 OA
BRANCH   3   4
HETATM    4  P   UNK N   1      35.283  16.250  10.672  0.00  0.00     0.390 P 
HETATM    5  O   UNK N   1      35.784  17.681  10.338  0.00  0.00    -0.632 OA
BRANCH   4   6
HETATM    6  O   UNK N   1      35.876  15.136   9.477  0.00  0.00    -0.307 OA
HETATM    7  H   UNK N   1      36.705  14.631   9.475  0.00  0.00     0.222 HD
ENDBRANCH   4   6
BRANCH   4   8
HETATM    8  O   UNK N   1      37.007  16.071  10.767  0.00  0.00    -0.307 OA
HETATM    9  H   UNK N   1      37.582  16.715  11.209  0.00  0.00     0.222 HD
ENDBRANCH   4   8
ENDBRANCH   3   4
ENDBRANCH   2   3
ENDBRANCH   1   2
BRANCH   1  10
HETATM   10  C   UNK N   1      31.990  17.681   8.387  0.00  0.00     0.085 C 
BRANCH  10  11
HETATM   11  C   UNK N   1      30.518  17.902   8.548  0.00  0.00     0.027 A 
HETATM   12  C   UNK N   1      29.902  18.647   9.525  0.00  0.00     0.114 A 
HETATM   13  N   UNK N   1      28.573  18.552   9.337  0.00  0.00    -0.360 N 
HETATM   14  C   UNK N   1      28.407  17.751   8.263  0.00  0.00     0.180 A 
HETATM   15  H   UNK N   1      27.865  18.979   9.872  0.00  0.00     0.166 HD
HETATM   16  N   UNK N   1      29.588  17.337   7.760  0.00  0.00    -0.355 N 
ATOM     17  HN  UNK N   1      29.743  16.728   6.957  1.00  0.00     0.166 HD
ENDBRANCH  10  11
ENDBRANCH   1  10
BRANCH   1  18
HETATM   18  N   UNK N   1      32.960  16.111   6.802  0.00  0.00    -0.424 N 
HETATM   19  H   UNK N   1      33.965  16.232   6.682  0.00  0.00     0.150 HD
HETATM   20  H   UNK N   1      32.377  15.906   5.991  0.00  0.00     0.150 HD
ENDBRANCH   1  18
TORSDOF 8
ENDMDL
