REMARK  4 active torsions:
REMARK  status: ('A' for Active; 'I' for Inactive)
REMARK    1  A    between atoms: N_2  and  C_3 
REMARK    2  A    between atoms: C_9  and  N_2 
REMARK    3  A    between atoms: C_3  and  C_4 
REMARK    4  A    between atoms: C_4  and  C_5 
ROOT
HETATM    1  C   UNK N   1      -1.316  -2.311  -0.000  0.00  0.00     0.270 C 
HETATM    2  N   UNK N   1       0.030  -1.751   0.000  0.00  0.00    -0.070 N 
HETATM    3  H   UNK N   1       0.992  -1.412  -0.000  0.00  0.00     0.279 HD
ENDROOT
BRANCH   2   4
HETATM    4  C   UNK N   1       1.065  -2.785  -0.000  0.00  0.00     0.238 C 
BRANCH   4   5
HETATM    5  C   UNK N   1       2.524  -2.366   0.000  0.00  0.00     0.055 C 
BRANCH   5   6
HETATM    6  C   UNK N   1       3.475  -3.550   0.000  0.00  0.00    -0.023 C 
HETATM    7  C   UNK N   1       3.180  -4.869  -0.000  0.00  0.00    -0.091 C 
HETATM    8  C   UNK N   1       4.298  -5.849  -0.000  0.00  0.00     0.042 C 
HETATM    9  C   UNK N   1       1.788  -5.425   0.000  0.00  0.00     0.042 C 
ENDBRANCH   5   6
ENDBRANCH   4   5
ENDBRANCH   2   4
BRANCH   2  10
HETATM   10  C   UNK N   1       0.189  -0.295  -0.000  0.00  0.00     0.191 A 
HETATM   11  C   UNK N   1      -1.087   0.549   0.000  0.00  0.00     0.037 A 
HETATM   12  C   UNK N   1      -0.893   2.060  -0.000  0.00  0.00     0.035 A 
HETATM   13  C   UNK N   1       0.512   2.590  -0.000  0.00  0.00    -0.087 A 
HETATM   14  C   UNK N   1       0.697   4.065  -0.000  0.00  0.00     0.043 C 
HETATM   15  C   UNK N   1       1.604   1.813   0.000  0.00  0.00    -0.022 A 
HETATM   16  C   UNK N   1       1.582   0.320   0.000  0.00  0.00     0.060 A 
ENDBRANCH   2  10
TORSDOF 4
