REMARK  6 active torsions:
REMARK  status: ('A' for Active; 'I' for Inactive)
REMARK    1  A    between atoms: N_1  and  C_2 
REMARK    2  A    between atoms: C_2  and  C_3 
REMARK    3  A    between atoms: C_3  and  C_4 
REMARK    4  A    between atoms: C_4  and  N_5 
REMARK    5  A    between atoms: C_4  and  C_6 
REMARK    6  A    between atoms: C_6  and  O_7 
ROOT
HETATM    1  C   UNK N   1       2.299   1.379  -0.000  0.00  0.00     0.174 C 
ENDROOT
BRANCH   1   2
HETATM    2  C   UNK N   1       0.771   1.331   0.000  0.00  0.00     0.054 C 
BRANCH   2   3
HETATM    3  C   UNK N   1       0.185  -0.065  -0.000  0.00  0.00     0.113 C 
BRANCH   3   4
HETATM    4  N   UNK N   1      -1.263   0.030   0.000  0.00  0.00    -0.430 N 
HETATM    5  H   UNK N   1      -1.715   0.944   0.000  0.00  0.00     0.149 HD
HETATM    6  H   UNK N   1      -1.830  -0.819   0.000  0.00  0.00     0.149 HD
ENDBRANCH   3   4
ENDBRANCH   2   3
ENDBRANCH   1   2
BRANCH   1   7
HETATM    7  N   UNK N   1       2.877   2.710   0.000  0.00  0.00    -0.418 N 
HETATM    8  H   UNK N   1       3.891   2.826   0.000  0.00  0.00     0.150 HD
HETATM    9  H   UNK N   1       2.270   3.530   0.000  0.00  0.00     0.150 HD
ENDBRANCH   1   7
BRANCH   1  10
HETATM   10  C   UNK N   1       3.272   0.227   0.000  0.00  0.00     0.163 C 
HETATM   11  O   UNK N   1       2.880  -0.927   0.000  0.00  0.00    -0.648 OA
BRANCH  10  12
HETATM   12  O   UNK N   1       4.596   0.478   0.000  0.00  0.00    -0.775 OA
HETATM   13  H   UNK N   1       5.207  -0.232   0.000  0.00  0.00     0.167 HD
ENDBRANCH  10  12
ENDBRANCH   1  10
TORSDOF 6
