MODEL 1
REMARK VINA RESULT:      -6.6      0.000      0.000
REMARK  11 active torsions:
REMARK  status: ('A' for Active; 'I' for Inactive)
REMARK    1  A    between atoms: N_2  and  C_3 
REMARK    2  A    between atoms: N_2  and  C_28 
REMARK    3  A    between atoms: C_3  and  C_4 
REMARK    4  A    between atoms: C_4  and  C_5 
REMARK    5  A    between atoms: C_5  and  C_6 
REMARK    6  A    between atoms: C_6  and  C_7 
REMARK    7  A    between atoms: C_7  and  C_8 
REMARK    8  A    between atoms: C_8  and  O_9 
REMARK    9  A    between atoms: O_9  and  C_10 
REMARK   10  A    between atoms: C_20  and  C_21 
REMARK   11  A    between atoms: C_28  and  C_29 
ROOT
HETATM    1  C   UNK N   1      35.237  15.237   9.044  0.00  0.00     0.070 A 
HETATM    2  C   UNK N   1      34.422  15.465  10.188  0.00  0.00     0.038 A 
HETATM    3  C   UNK N   1      34.786  14.946  11.445  0.00  0.00     0.019 A 
HETATM    4  C   UNK N   1      35.962  14.206  11.522  0.00  0.00     0.021 A 
HETATM    5  C   UNK N   1      36.743  13.982  10.425  0.00  0.00     0.065 A 
HETATM    6  C   UNK N   1      36.417  14.479   9.166  0.00  0.00     0.068 A 
HETATM    7  N   UNK N   1      37.813  13.257  10.787  0.00  0.00    -0.295 N 
HETATM    8  C   UNK N   1      38.895  12.810   9.926  0.00  0.00     0.178 C 
HETATM    9  N   UNK N   1      37.750  13.009  12.090  0.00  0.00    -0.297 N 
ATOM     10  HN  UNK N   1      38.432  12.480  12.633  1.00  0.00     0.187 HD
HETATM   11  C   UNK N   1      36.619  13.582  12.573  0.00  0.00     0.071 A 
ENDROOT
BRANCH   1  12
HETATM   12  O   UNK N   1      34.905  15.729   7.827  0.00  0.00    -0.351 OA
BRANCH  12  13
HETATM   13  C   UNK N   1      33.616  15.746   7.344  0.00  0.00     0.175 C 
BRANCH  13  14
HETATM   14  C   UNK N   1      33.172  17.182   7.133  0.00  0.00     0.027 C 
BRANCH  14  15
HETATM   15  C   UNK N   1      31.665  17.234   6.946  0.00  0.00     0.002 C 
BRANCH  15  16
HETATM   16  C   UNK N   1      31.287  17.101   5.477  0.00  0.00     0.002 C 
BRANCH  16  17
HETATM   17  C   UNK N   1      29.837  17.488   5.239  0.00  0.00     0.030 C 
BRANCH  17  18
HETATM   18  C   UNK N   1      28.880  16.692   6.138  0.00  0.00     0.272 C 
BRANCH  18  19
HETATM   19  N   UNK N   1      27.909  17.499   6.896  0.00  0.00     0.087 N 
HETATM   20  C   UNK N   1      27.962  18.922   6.570  0.00  0.00     0.310 C 
BRANCH  19  21
HETATM   21  C   UNK N   1      28.105  17.317   8.327  0.00  0.00     0.298 C 
BRANCH  21  22
HETATM   22  C   UNK N   1      28.653  18.579   8.917  0.00  0.00    -0.007 C 
HETATM   23  C   UNK N   1      29.687  18.540   9.751  0.00  0.00     0.008 C 
ENDBRANCH  21  22
ENDBRANCH  19  21
ENDBRANCH  18  19
ENDBRANCH  17  18
ENDBRANCH  16  17
ENDBRANCH  15  16
ENDBRANCH  14  15
ENDBRANCH  13  14
ENDBRANCH  12  13
ENDBRANCH   1  12
BRANCH  11  24
HETATM   24  C   UNK N   1      36.227  13.550  13.996  0.00  0.00    -0.007 A 
HETATM   25  C   UNK N   1      36.869  14.364  14.939  0.00  0.00     0.015 A 
HETATM   26  C   UNK N   1      36.520  14.289  16.291  0.00  0.00     0.020 A 
HETATM   27  C   UNK N   1      35.530  13.396  16.708  0.00  0.00     0.011 A 
HETATM   28 Br   UNK N   1      35.076  13.270  18.554  0.00  0.00    -0.051 Br
HETATM   29  C   UNK N   1      34.880  12.586  15.773  0.00  0.00     0.020 A 
HETATM   30  C   UNK N   1      35.227  12.663  14.421  0.00  0.00     0.015 A 
ENDBRANCH  11  24
TORSDOF 11
ENDMDL
MODEL 2
REMARK VINA RESULT:      -6.4      6.370     11.794
REMARK  11 active torsions:
REMARK  status: ('A' for Active; 'I' for Inactive)
REMARK    1  A    between atoms: N_2  and  C_3 
REMARK    2  A    between atoms: N_2  and  C_28 
REMARK    3  A    between atoms: C_3  and  C_4 
REMARK    4  A    between atoms: C_4  and  C_5 
REMARK    5  A    between atoms: C_5  and  C_6 
REMARK    6  A    between atoms: C_6  and  C_7 
REMARK    7  A    between atoms: C_7  and  C_8 
REMARK    8  A    between atoms: C_8  and  O_9 
REMARK    9  A    between atoms: O_9  and  C_10 
REMARK   10  A    between atoms: C_20  and  C_21 
REMARK   11  A    between atoms: C_28  and  C_29 
ROOT
HETATM    1  C   UNK N   1      29.139  15.982   4.399  0.00  0.00     0.070 A 
HETATM    2  C   UNK N   1      28.135  15.993   3.391  0.00  0.00     0.038 A 
HETATM    3  C   UNK N   1      27.036  16.868   3.482  0.00  0.00     0.019 A 
HETATM    4  C   UNK N   1      26.971  17.711   4.587  0.00  0.00     0.021 A 
HETATM    5  C   UNK N   1      27.931  17.699   5.557  0.00  0.00     0.065 A 
HETATM    6  C   UNK N   1      29.032  16.849   5.503  0.00  0.00     0.068 A 
HETATM    7  N   UNK N   1      27.626  18.614   6.490  0.00  0.00    -0.295 N 
HETATM    8  C   UNK N   1      28.390  18.928   7.686  0.00  0.00     0.178 C 
HETATM    9  N   UNK N   1      26.497  19.224   6.149  0.00  0.00    -0.297 N 
ATOM     10  HN  UNK N   1      26.033  19.965   6.675  1.00  0.00     0.187 HD
HETATM   11  C   UNK N   1      26.068  18.690   4.978  0.00  0.00     0.071 A 
ENDROOT
BRANCH   1  12
HETATM   12  O   UNK N   1      30.204  15.149   4.330  0.00  0.00    -0.351 OA
BRANCH  12  13
HETATM   13  C   UNK N   1      30.912  14.920   3.171  0.00  0.00     0.175 C 
BRANCH  13  14
HETATM   14  C   UNK N   1      32.354  15.352   3.363  0.00  0.00     0.027 C 
BRANCH  14  15
HETATM   15  C   UNK N   1      32.502  16.826   3.025  0.00  0.00     0.002 C 
BRANCH  15  16
HETATM   16  C   UNK N   1      32.678  17.664   4.284  0.00  0.00     0.002 C 
BRANCH  16  17
HETATM   17  C   UNK N   1      33.687  17.037   5.231  0.00  0.00     0.030 C 
BRANCH  17  18
HETATM   18  C   UNK N   1      33.450  17.469   6.685  0.00  0.00     0.272 C 
BRANCH  18  19
HETATM   19  N   UNK N   1      32.115  17.165   7.224  0.00  0.00     0.087 N 
HETATM   20  C   UNK N   1      31.841  17.828   8.497  0.00  0.00     0.310 C 
BRANCH  19  21
HETATM   21  C   UNK N   1      31.943  15.727   7.374  0.00  0.00     0.298 C 
BRANCH  21  22
HETATM   22  C   UNK N   1      32.656  15.269   8.609  0.00  0.00    -0.007 C 
HETATM   23  C   UNK N   1      32.923  13.981   8.795  0.00  0.00     0.008 C 
ENDBRANCH  21  22
ENDBRANCH  19  21
ENDBRANCH  18  19
ENDBRANCH  17  18
ENDBRANCH  16  17
ENDBRANCH  15  16
ENDBRANCH  14  15
ENDBRANCH  13  14
ENDBRANCH  12  13
ENDBRANCH   1  12
BRANCH  11  24
HETATM   24  C   UNK N   1      24.857  19.143   4.265  0.00  0.00    -0.007 A 
HETATM   25  C   UNK N   1      24.893  20.267   3.427  0.00  0.00     0.015 A 
HETATM   26  C   UNK N   1      23.728  20.712   2.795  0.00  0.00     0.020 A 
HETATM   27  C   UNK N   1      22.521  20.040   3.000  0.00  0.00     0.011 A 
HETATM   28 Br   UNK N   1      20.927  20.667   2.165  0.00  0.00    -0.051 Br
HETATM   29  C   UNK N   1      22.479  18.916   3.828  0.00  0.00     0.020 A 
HETATM   30  C   UNK N   1      23.644  18.468   4.458  0.00  0.00     0.015 A 
ENDBRANCH  11  24
TORSDOF 11
ENDMDL
MODEL 3
REMARK VINA RESULT:      -6.3     16.467     19.359
REMARK  11 active torsions:
REMARK  status: ('A' for Active; 'I' for Inactive)
REMARK    1  A    between atoms: N_2  and  C_3 
REMARK    2  A    between atoms: N_2  and  C_28 
REMARK    3  A    between atoms: C_3  and  C_4 
REMARK    4  A    between atoms: C_4  and  C_5 
REMARK    5  A    between atoms: C_5  and  C_6 
REMARK    6  A    between atoms: C_6  and  C_7 
REMARK    7  A    between atoms: C_7  and  C_8 
REMARK    8  A    between atoms: C_8  and  O_9 
REMARK    9  A    between atoms: O_9  and  C_10 
REMARK   10  A    between atoms: C_20  and  C_21 
REMARK   11  A    between atoms: C_28  and  C_29 
ROOT
HETATM    1  C   UNK N   1      27.186  26.115  -3.745  0.00  0.00     0.070 A 
HETATM    2  C   UNK N   1      27.381  24.707  -3.669  0.00  0.00     0.038 A 
HETATM    3  C   UNK N   1      28.667  24.151  -3.808  0.00  0.00     0.019 A 
HETATM    4  C   UNK N   1      29.729  25.025  -4.024  0.00  0.00     0.021 A 
HETATM    5  C   UNK N   1      29.543  26.375  -4.101  0.00  0.00     0.065 A 
HETATM    6  C   UNK N   1      28.287  26.962  -3.968  0.00  0.00     0.068 A 
HETATM    7  N   UNK N   1      30.728  26.972  -4.299  0.00  0.00    -0.295 N 
HETATM    8  C   UNK N   1      30.976  28.398  -4.428  0.00  0.00     0.178 C 
HETATM    9  N   UNK N   1      31.679  26.046  -4.346  0.00  0.00    -0.297 N 
ATOM     10  HN  UNK N   1      32.675  26.216  -4.484  1.00  0.00     0.187 HD
HETATM   11  C   UNK N   1      31.094  24.833  -4.178  0.00  0.00     0.071 A 
ENDROOT
BRANCH   1  12
HETATM   12  O   UNK N   1      25.958  26.669  -3.612  0.00  0.00    -0.351 OA
BRANCH  12  13
HETATM   13  C   UNK N   1      25.494  27.683  -4.419  0.00  0.00     0.175 C 
BRANCH  13  14
HETATM   14  C   UNK N   1      24.693  27.093  -5.566  0.00  0.00     0.027 C 
BRANCH  14  15
HETATM   15  C   UNK N   1      25.609  26.812  -6.745  0.00  0.00     0.002 C 
BRANCH  15  16
HETATM   16  C   UNK N   1      25.726  25.317  -7.006  0.00  0.00     0.002 C 
BRANCH  16  17
HETATM   17  C   UNK N   1      26.122  25.033  -8.445  0.00  0.00     0.030 C 
BRANCH  17  18
HETATM   18  C   UNK N   1      27.155  23.901  -8.540  0.00  0.00     0.272 C 
BRANCH  18  19
HETATM   19  N   UNK N   1      28.055  23.769  -7.383  0.00  0.00     0.087 N 
HETATM   20  C   UNK N   1      29.389  24.312  -7.624  0.00  0.00     0.310 C 
BRANCH  19  21
HETATM   21  C   UNK N   1      28.161  22.374  -6.979  0.00  0.00     0.298 C 
BRANCH  21  22
HETATM   22  C   UNK N   1      29.597  22.040  -6.720  0.00  0.00    -0.007 C 
HETATM   23  C   UNK N   1      29.928  20.902  -6.121  0.00  0.00     0.008 C 
ENDBRANCH  21  22
ENDBRANCH  19  21
ENDBRANCH  18  19
ENDBRANCH  17  18
ENDBRANCH  16  17
ENDBRANCH  15  16
ENDBRANCH  14  15
ENDBRANCH  13  14
ENDBRANCH  12  13
ENDBRANCH   1  12
BRANCH  11  24
HETATM   24  C   UNK N   1      31.841  23.561  -4.136  0.00  0.00    -0.007 A 
HETATM   25  C   UNK N   1      32.786  23.247  -5.124  0.00  0.00     0.015 A 
HETATM   26  C   UNK N   1      33.452  22.018  -5.098  0.00  0.00     0.020 A 
HETATM   27  C   UNK N   1      33.175  21.095  -4.087  0.00  0.00     0.011 A 
HETATM   28 Br   UNK N   1      34.060  19.407  -4.070  0.00  0.00    -0.051 Br
HETATM   29  C   UNK N   1      32.241  21.403  -3.095  0.00  0.00     0.020 A 
HETATM   30  C   UNK N   1      31.576  22.633  -3.120  0.00  0.00     0.015 A 
ENDBRANCH  11  24
TORSDOF 11
ENDMDL
MODEL 4
REMARK VINA RESULT:      -6.2      5.065     11.772
REMARK  11 active torsions:
REMARK  status: ('A' for Active; 'I' for Inactive)
REMARK    1  A    between atoms: N_2  and  C_3 
REMARK    2  A    between atoms: N_2  and  C_28 
REMARK    3  A    between atoms: C_3  and  C_4 
REMARK    4  A    between atoms: C_4  and  C_5 
REMARK    5  A    between atoms: C_5  and  C_6 
REMARK    6  A    between atoms: C_6  and  C_7 
REMARK    7  A    between atoms: C_7  and  C_8 
REMARK    8  A    between atoms: C_8  and  O_9 
REMARK    9  A    between atoms: O_9  and  C_10 
REMARK   10  A    between atoms: C_20  and  C_21 
REMARK   11  A    between atoms: C_28  and  C_29 
ROOT
HETATM    1  C   UNK N   1      30.019  16.753   4.464  0.00  0.00     0.070 A 
HETATM    2  C   UNK N   1      29.088  16.782   3.388  0.00  0.00     0.038 A 
HETATM    3  C   UNK N   1      27.850  17.436   3.526  0.00  0.00     0.019 A 
HETATM    4  C   UNK N   1      27.574  18.045   4.747  0.00  0.00     0.021 A 
HETATM    5  C   UNK N   1      28.463  18.015   5.782  0.00  0.00     0.065 A 
HETATM    6  C   UNK N   1      29.698  17.378   5.683  0.00  0.00     0.068 A 
HETATM    7  N   UNK N   1      27.950  18.686   6.824  0.00  0.00    -0.295 N 
HETATM    8  C   UNK N   1      28.576  18.900   8.118  0.00  0.00     0.178 C 
HETATM    9  N   UNK N   1      26.753  19.156   6.492  0.00  0.00    -0.297 N 
ATOM     10  HN  UNK N   1      26.137  19.705   7.091  1.00  0.00     0.187 HD
HETATM   11  C   UNK N   1      26.493  18.778   5.215  0.00  0.00     0.071 A 
ENDROOT
BRANCH   1  12
HETATM   12  O   UNK N   1      31.216  16.130   4.350  0.00  0.00    -0.351 OA
BRANCH  12  13
HETATM   13  C   UNK N   1      32.144  16.083   5.366  0.00  0.00     0.175 C 
BRANCH  13  14
HETATM   14  C   UNK N   1      33.239  17.100   5.101  0.00  0.00     0.027 C 
BRANCH  14  15
HETATM   15  C   UNK N   1      33.937  17.459   6.402  0.00  0.00     0.002 C 
BRANCH  15  16
HETATM   16  C   UNK N   1      32.930  17.705   7.516  0.00  0.00     0.002 C 
BRANCH  16  17
HETATM   17  C   UNK N   1      33.441  17.187   8.850  0.00  0.00     0.030 C 
BRANCH  17  18
HETATM   18  C   UNK N   1      33.411  15.654   8.917  0.00  0.00     0.272 C 
BRANCH  18  19
HETATM   19  N   UNK N   1      34.576  15.027   9.562  0.00  0.00     0.087 N 
HETATM   20  C   UNK N   1      34.482  13.572   9.635  0.00  0.00     0.310 C 
BRANCH  19  21
HETATM   21  C   UNK N   1      34.770  15.572  10.899  0.00  0.00     0.298 C 
BRANCH  21  22
HETATM   22  C   UNK N   1      36.005  14.978  11.501  0.00  0.00    -0.007 C 
HETATM   23  C   UNK N   1      36.029  14.627  12.782  0.00  0.00     0.008 C 
ENDBRANCH  21  22
ENDBRANCH  19  21
ENDBRANCH  18  19
ENDBRANCH  17  18
ENDBRANCH  16  17
ENDBRANCH  15  16
ENDBRANCH  14  15
ENDBRANCH  13  14
ENDBRANCH  12  13
ENDBRANCH   1  12
BRANCH  11  24
HETATM   24  C   UNK N   1      25.265  19.149   4.484  0.00  0.00    -0.007 A 
HETATM   25  C   UNK N   1      25.250  20.245   3.610  0.00  0.00     0.015 A 
HETATM   26  C   UNK N   1      24.068  20.614   2.961  0.00  0.00     0.020 A 
HETATM   27  C   UNK N   1      22.893  19.892   3.185  0.00  0.00     0.011 A 
HETATM   28 Br   UNK N   1      21.275  20.413   2.325  0.00  0.00    -0.051 Br
HETATM   29  C   UNK N   1      22.902  18.794   4.048  0.00  0.00     0.020 A 
HETATM   30  C   UNK N   1      24.084  18.423   4.696  0.00  0.00     0.015 A 
ENDBRANCH  11  24
TORSDOF 11
ENDMDL
MODEL 5
REMARK VINA RESULT:      -6.1      2.003      2.461
REMARK  11 active torsions:
REMARK  status: ('A' for Active; 'I' for Inactive)
REMARK    1  A    between atoms: N_2  and  C_3 
REMARK    2  A    between atoms: N_2  and  C_28 
REMARK    3  A    between atoms: C_3  and  C_4 
REMARK    4  A    between atoms: C_4  and  C_5 
REMARK    5  A    between atoms: C_5  and  C_6 
REMARK    6  A    between atoms: C_6  and  C_7 
REMARK    7  A    between atoms: C_7  and  C_8 
REMARK    8  A    between atoms: C_8  and  O_9 
REMARK    9  A    between atoms: O_9  and  C_10 
REMARK   10  A    between atoms: C_20  and  C_21 
REMARK   11  A    between atoms: C_28  and  C_29 
ROOT
HETATM    1  C   UNK N   1      34.953  15.053   9.524  0.00  0.00     0.070 A 
HETATM    2  C   UNK N   1      34.926  15.306  10.924  0.00  0.00     0.038 A 
HETATM    3  C   UNK N   1      34.956  14.244  11.847  0.00  0.00     0.019 A 
HETATM    4  C   UNK N   1      35.010  12.948  11.340  0.00  0.00     0.021 A 
HETATM    5  C   UNK N   1      35.032  12.704   9.997  0.00  0.00     0.065 A 
HETATM    6  C   UNK N   1      35.004  13.728   9.054  0.00  0.00     0.068 A 
HETATM    7  N   UNK N   1      35.098  11.379   9.792  0.00  0.00    -0.295 N 
HETATM    8  C   UNK N   1      35.149  10.697   8.510  0.00  0.00     0.178 C 
HETATM    9  N   UNK N   1      35.125  10.758  10.965  0.00  0.00    -0.297 N 
ATOM     10  HN  UNK N   1      35.176   9.749  11.109  1.00  0.00     0.187 HD
HETATM   11  C   UNK N   1      35.073  11.700  11.941  0.00  0.00     0.071 A 
ENDROOT
BRANCH   1  12
HETATM   12  O   UNK N   1      34.927  16.061   8.621  0.00  0.00    -0.351 OA
BRANCH  12  13
HETATM   13  C   UNK N   1      34.467  17.326   8.912  0.00  0.00     0.175 C 
BRANCH  13  14
HETATM   14  C   UNK N   1      34.071  18.030   7.626  0.00  0.00     0.027 C 
BRANCH  14  15
HETATM   15  C   UNK N   1      33.769  17.004   6.547  0.00  0.00     0.002 C 
BRANCH  15  16
HETATM   16  C   UNK N   1      33.218  17.669   5.293  0.00  0.00     0.002 C 
BRANCH  16  17
HETATM   17  C   UNK N   1      31.908  17.035   4.858  0.00  0.00     0.030 C 
BRANCH  17  18
HETATM   18  C   UNK N   1      31.107  16.501   6.054  0.00  0.00     0.272 C 
BRANCH  18  19
HETATM   19  N   UNK N   1      29.667  16.806   6.036  0.00  0.00     0.087 N 
HETATM   20  C   UNK N   1      29.309  17.843   5.072  0.00  0.00     0.310 C 
BRANCH  19  21
HETATM   21  C   UNK N   1      29.214  17.197   7.365  0.00  0.00     0.298 C 
BRANCH  21  22
HETATM   22  C   UNK N   1      30.402  17.516   8.219  0.00  0.00    -0.007 C 
HETATM   23  C   UNK N   1      30.384  18.566   9.032  0.00  0.00     0.008 C 
ENDBRANCH  21  22
ENDBRANCH  19  21
ENDBRANCH  18  19
ENDBRANCH  17  18
ENDBRANCH  16  17
ENDBRANCH  15  16
ENDBRANCH  14  15
ENDBRANCH  13  14
ENDBRANCH  12  13
ENDBRANCH   1  12
BRANCH  11  24
HETATM   24  C   UNK N   1      35.120  11.390  13.383  0.00  0.00    -0.007 A 
HETATM   25  C   UNK N   1      34.019  10.813  14.033  0.00  0.00     0.015 A 
HETATM   26  C   UNK N   1      34.060  10.568  15.408  0.00  0.00     0.020 A 
HETATM   27  C   UNK N   1      35.200  10.901  16.143  0.00  0.00     0.011 A 
HETATM   28 Br   UNK N   1      35.244  10.597  18.024  0.00  0.00    -0.051 Br
HETATM   29  C   UNK N   1      36.304  11.468  15.503  0.00  0.00     0.020 A 
HETATM   30  C   UNK N   1      36.264  11.712  14.126  0.00  0.00     0.015 A 
ENDBRANCH  11  24
TORSDOF 11
ENDMDL
MODEL 6
REMARK VINA RESULT:      -6.1      3.843      9.348
REMARK  11 active torsions:
REMARK  status: ('A' for Active; 'I' for Inactive)
REMARK    1  A    between atoms: N_2  and  C_3 
REMARK    2  A    between atoms: N_2  and  C_28 
REMARK    3  A    between atoms: C_3  and  C_4 
REMARK    4  A    between atoms: C_4  and  C_5 
REMARK    5  A    between atoms: C_5  and  C_6 
REMARK    6  A    between atoms: C_6  and  C_7 
REMARK    7  A    between atoms: C_7  and  C_8 
REMARK    8  A    between atoms: C_8  and  O_9 
REMARK    9  A    between atoms: O_9  and  C_10 
REMARK   10  A    between atoms: C_20  and  C_21 
REMARK   11  A    between atoms: C_28  and  C_29 
ROOT
HETATM    1  C   UNK N   1      34.835  12.651   9.197  0.00  0.00     0.070 A 
HETATM    2  C   UNK N   1      33.766  12.525   8.266  0.00  0.00     0.038 A 
HETATM    3  C   UNK N   1      32.996  13.646   7.902  0.00  0.00     0.019 A 
HETATM    4  C   UNK N   1      33.316  14.868   8.486  0.00  0.00     0.021 A 
HETATM    5  C   UNK N   1      34.338  14.990   9.382  0.00  0.00     0.065 A 
HETATM    6  C   UNK N   1      35.123  13.905   9.767  0.00  0.00     0.068 A 
HETATM    7  N   UNK N   1      34.433  16.270   9.772  0.00  0.00    -0.295 N 
HETATM    8  C   UNK N   1      35.393  16.828  10.709  0.00  0.00     0.178 C 
HETATM    9  N   UNK N   1      33.503  16.984   9.147  0.00  0.00    -0.297 N 
ATOM     10  HN  UNK N   1      33.347  17.987   9.252  1.00  0.00     0.187 HD
HETATM   11  C   UNK N   1      32.798  16.147   8.345  0.00  0.00     0.071 A 
ENDROOT
BRANCH   1  12
HETATM   12  O   UNK N   1      35.589  11.586   9.559  0.00  0.00    -0.351 OA
BRANCH  12  13
HETATM   13  C   UNK N   1      36.790  11.700  10.223  0.00  0.00     0.175 C 
BRANCH  13  14
HETATM   14  C   UNK N   1      36.615  11.262  11.666  0.00  0.00     0.027 C 
BRANCH  14  15
HETATM   15  C   UNK N   1      37.131  12.344  12.600  0.00  0.00     0.002 C 
BRANCH  15  16
HETATM   16  C   UNK N   1      36.034  13.340  12.947  0.00  0.00     0.002 C 
BRANCH  16  17
HETATM   17  C   UNK N   1      36.387  14.146  14.186  0.00  0.00     0.030 C 
BRANCH  17  18
HETATM   18  C   UNK N   1      36.648  13.242  15.400  0.00  0.00     0.272 C 
BRANCH  18  19
HETATM   19  N   UNK N   1      35.461  12.571  15.953  0.00  0.00     0.087 N 
HETATM   20  C   UNK N   1      35.099  13.045  17.286  0.00  0.00     0.310 C 
BRANCH  19  21
HETATM   21  C   UNK N   1      35.661  11.129  15.984  0.00  0.00     0.298 C 
BRANCH  21  22
HETATM   22  C   UNK N   1      34.398  10.444  15.565  0.00  0.00    -0.007 C 
HETATM   23  C   UNK N   1      33.744  10.841  14.479  0.00  0.00     0.008 C 
ENDBRANCH  21  22
ENDBRANCH  19  21
ENDBRANCH  18  19
ENDBRANCH  17  18
ENDBRANCH  16  17
ENDBRANCH  15  16
ENDBRANCH  14  15
ENDBRANCH  13  14
ENDBRANCH  12  13
ENDBRANCH   1  12
BRANCH  11  24
HETATM   24  C   UNK N   1      31.700  16.589   7.463  0.00  0.00    -0.007 A 
HETATM   25  C   UNK N   1      31.871  16.643   6.072  0.00  0.00     0.015 A 
HETATM   26  C   UNK N   1      30.838  17.108   5.252  0.00  0.00     0.020 A 
HETATM   27  C   UNK N   1      29.631  17.525   5.818  0.00  0.00     0.011 A 
HETATM   28 Br   UNK N   1      28.236  18.190   4.703  0.00  0.00    -0.051 Br
HETATM   29  C   UNK N   1      29.451  17.468   7.202  0.00  0.00     0.020 A 
HETATM   30  C   UNK N   1      30.482  17.001   8.022  0.00  0.00     0.015 A 
ENDBRANCH  11  24
TORSDOF 11
ENDMDL
MODEL 7
REMARK VINA RESULT:      -6.1      2.679      4.263
REMARK  11 active torsions:
REMARK  status: ('A' for Active; 'I' for Inactive)
REMARK    1  A    between atoms: N_2  and  C_3 
REMARK    2  A    between atoms: N_2  and  C_28 
REMARK    3  A    between atoms: C_3  and  C_4 
REMARK    4  A    between atoms: C_4  and  C_5 
REMARK    5  A    between atoms: C_5  and  C_6 
REMARK    6  A    between atoms: C_6  and  C_7 
REMARK    7  A    between atoms: C_7  and  C_8 
REMARK    8  A    between atoms: C_8  and  O_9 
REMARK    9  A    between atoms: O_9  and  C_10 
REMARK   10  A    between atoms: C_20  and  C_21 
REMARK   11  A    between atoms: C_28  and  C_29 
ROOT
HETATM    1  C   UNK N   1      35.991  14.273  13.042  0.00  0.00     0.070 A 
HETATM    2  C   UNK N   1      36.540  14.495  14.337  0.00  0.00     0.038 A 
HETATM    3  C   UNK N   1      36.395  13.532  15.353  0.00  0.00     0.019 A 
HETATM    4  C   UNK N   1      35.696  12.368  15.046  0.00  0.00     0.021 A 
HETATM    5  C   UNK N   1      35.165  12.156  13.807  0.00  0.00     0.065 A 
HETATM    6  C   UNK N   1      35.288  13.083  12.775  0.00  0.00     0.068 A 
HETATM    7  N   UNK N   1      34.562  10.957  13.785  0.00  0.00    -0.295 N 
HETATM    8  C   UNK N   1      33.880  10.343  12.658  0.00  0.00     0.178 C 
HETATM    9  N   UNK N   1      34.693  10.383  14.976  0.00  0.00    -0.297 N 
ATOM     10  HN  UNK N   1      34.333   9.467  15.242  1.00  0.00     0.187 HD
HETATM   11  C   UNK N   1      35.389  11.229  15.776  0.00  0.00     0.071 A 
ENDROOT
BRANCH   1  12
HETATM   12  O   UNK N   1      36.121  15.186  12.051  0.00  0.00    -0.351 OA
BRANCH  12  13
HETATM   13  C   UNK N   1      35.128  15.457  11.137  0.00  0.00     0.175 C 
BRANCH  13  14
HETATM   14  C   UNK N   1      35.620  15.129   9.739  0.00  0.00     0.027 C 
BRANCH  14  15
HETATM   15  C   UNK N   1      34.765  15.847   8.708  0.00  0.00     0.002 C 
BRANCH  15  16
HETATM   16  C   UNK N   1      34.113  17.088   9.302  0.00  0.00     0.002 C 
BRANCH  16  17
HETATM   17  C   UNK N   1      33.386  17.895   8.240  0.00  0.00     0.030 C 
BRANCH  17  18
HETATM   18  C   UNK N   1      32.572  16.996   7.297  0.00  0.00     0.272 C 
BRANCH  18  19
HETATM   19  N   UNK N   1      31.173  16.770   7.693  0.00  0.00     0.087 N 
HETATM   20  C   UNK N   1      30.302  16.440   6.568  0.00  0.00     0.310 C 
BRANCH  19  21
HETATM   21  C   UNK N   1      30.649  17.935   8.392  0.00  0.00     0.298 C 
BRANCH  21  22
HETATM   22  C   UNK N   1      29.624  17.494   9.391  0.00  0.00    -0.007 C 
HETATM   23  C   UNK N   1      28.375  17.940   9.319  0.00  0.00     0.008 C 
ENDBRANCH  21  22
ENDBRANCH  19  21
ENDBRANCH  18  19
ENDBRANCH  17  18
ENDBRANCH  16  17
ENDBRANCH  15  16
ENDBRANCH  14  15
ENDBRANCH  13  14
ENDBRANCH  12  13
ENDBRANCH   1  12
BRANCH  11  24
HETATM   24  C   UNK N   1      35.764  10.918  17.170  0.00  0.00    -0.007 A 
HETATM   25  C   UNK N   1      36.528   9.782  17.474  0.00  0.00     0.015 A 
HETATM   26  C   UNK N   1      36.836   9.473  18.802  0.00  0.00     0.020 A 
HETATM   27  C   UNK N   1      36.377  10.295  19.834  0.00  0.00     0.011 A 
HETATM   28 Br   UNK N   1      36.768   9.857  21.646  0.00  0.00    -0.051 Br
HETATM   29  C   UNK N   1      35.621  11.432  19.539  0.00  0.00     0.020 A 
HETATM   30  C   UNK N   1      35.316  11.742  18.211  0.00  0.00     0.015 A 
ENDBRANCH  11  24
TORSDOF 11
ENDMDL
MODEL 8
REMARK VINA RESULT:      -6.1     16.735     20.061
REMARK  11 active torsions:
REMARK  status: ('A' for Active; 'I' for Inactive)
REMARK    1  A    between atoms: N_2  and  C_3 
REMARK    2  A    between atoms: N_2  and  C_28 
REMARK    3  A    between atoms: C_3  and  C_4 
REMARK    4  A    between atoms: C_4  and  C_5 
REMARK    5  A    between atoms: C_5  and  C_6 
REMARK    6  A    between atoms: C_6  and  C_7 
REMARK    7  A    between atoms: C_7  and  C_8 
REMARK    8  A    between atoms: C_8  and  O_9 
REMARK    9  A    between atoms: O_9  and  C_10 
REMARK   10  A    between atoms: C_20  and  C_21 
REMARK   11  A    between atoms: C_28  and  C_29 
ROOT
HETATM    1  C   UNK N   1      29.070  25.837  -5.389  0.00  0.00     0.070 A 
HETATM    2  C   UNK N   1      29.311  25.294  -6.682  0.00  0.00     0.038 A 
HETATM    3  C   UNK N   1      29.669  23.942  -6.839  0.00  0.00     0.019 A 
HETATM    4  C   UNK N   1      29.781  23.166  -5.688  0.00  0.00     0.021 A 
HETATM    5  C   UNK N   1      29.554  23.685  -4.447  0.00  0.00     0.065 A 
HETATM    6  C   UNK N   1      29.197  25.017  -4.252  0.00  0.00     0.068 A 
HETATM    7  N   UNK N   1      29.717  22.720  -3.529  0.00  0.00    -0.295 N 
HETATM    8  C   UNK N   1      29.561  22.850  -2.090  0.00  0.00     0.178 C 
HETATM    9  N   UNK N   1      30.037  21.586  -4.142  0.00  0.00    -0.297 N 
ATOM     10  HN  UNK N   1      30.218  20.690  -3.689  1.00  0.00     0.187 HD
HETATM   11  C   UNK N   1      30.084  21.829  -5.476  0.00  0.00     0.071 A 
ENDROOT
BRANCH   1  12
HETATM   12  O   UNK N   1      28.723  27.134  -5.218  0.00  0.00    -0.351 OA
BRANCH  12  13
HETATM   13  C   UNK N   1      27.563  27.530  -4.590  0.00  0.00     0.175 C 
BRANCH  13  14
HETATM   14  C   UNK N   1      26.498  27.824  -5.631  0.00  0.00     0.027 C 
BRANCH  14  15
HETATM   15  C   UNK N   1      25.345  26.845  -5.482  0.00  0.00     0.002 C 
BRANCH  15  16
HETATM   16  C   UNK N   1      25.532  25.634  -6.386  0.00  0.00     0.002 C 
BRANCH  16  17
HETATM   17  C   UNK N   1      25.686  24.356  -5.578  0.00  0.00     0.030 C 
BRANCH  17  18
HETATM   18  C   UNK N   1      26.134  23.178  -6.455  0.00  0.00     0.272 C 
BRANCH  18  19
HETATM   19  N   UNK N   1      25.150  22.722  -7.450  0.00  0.00     0.087 N 
HETATM   20  C   UNK N   1      24.751  21.329  -7.271  0.00  0.00     0.310 C 
BRANCH  19  21
HETATM   21  C   UNK N   1      25.666  22.913  -8.799  0.00  0.00     0.298 C 
BRANCH  21  22
HETATM   22  C   UNK N   1      26.907  22.094  -8.976  0.00  0.00    -0.007 C 
HETATM   23  C   UNK N   1      27.918  22.551  -9.706  0.00  0.00     0.008 C 
ENDBRANCH  21  22
ENDBRANCH  19  21
ENDBRANCH  18  19
ENDBRANCH  17  18
ENDBRANCH  16  17
ENDBRANCH  15  16
ENDBRANCH  14  15
ENDBRANCH  13  14
ENDBRANCH  12  13
ENDBRANCH   1  12
BRANCH  11  24
HETATM   24  C   UNK N   1      30.374  20.793  -6.488  0.00  0.00    -0.007 A 
HETATM   25  C   UNK N   1      31.694  20.493  -6.854  0.00  0.00     0.015 A 
HETATM   26  C   UNK N   1      31.953  19.544  -7.846  0.00  0.00     0.020 A 
HETATM   27  C   UNK N   1      30.893  18.892  -8.482  0.00  0.00     0.011 A 
HETATM   28 Br   UNK N   1      31.244  17.621  -9.858  0.00  0.00    -0.051 Br
HETATM   29  C   UNK N   1      29.576  19.179  -8.118  0.00  0.00     0.020 A 
HETATM   30  C   UNK N   1      29.317  20.127  -7.123  0.00  0.00     0.015 A 
ENDBRANCH  11  24
TORSDOF 11
ENDMDL
MODEL 9
REMARK VINA RESULT:      -6.1      1.440      2.509
REMARK  11 active torsions:
REMARK  status: ('A' for Active; 'I' for Inactive)
REMARK    1  A    between atoms: N_2  and  C_3 
REMARK    2  A    between atoms: N_2  and  C_28 
REMARK    3  A    between atoms: C_3  and  C_4 
REMARK    4  A    between atoms: C_4  and  C_5 
REMARK    5  A    between atoms: C_5  and  C_6 
REMARK    6  A    between atoms: C_6  and  C_7 
REMARK    7  A    between atoms: C_7  and  C_8 
REMARK    8  A    between atoms: C_8  and  O_9 
REMARK    9  A    between atoms: O_9  and  C_10 
REMARK   10  A    between atoms: C_20  and  C_21 
REMARK   11  A    between atoms: C_28  and  C_29 
ROOT
HETATM    1  C   UNK N   1      34.366  15.293   8.901  0.00  0.00     0.070 A 
HETATM    2  C   UNK N   1      33.628  15.281  10.118  0.00  0.00     0.038 A 
HETATM    3  C   UNK N   1      34.208  14.793  11.304  0.00  0.00     0.019 A 
HETATM    4  C   UNK N   1      35.517  14.325  11.239  0.00  0.00     0.021 A 
HETATM    5  C   UNK N   1      36.224  14.331  10.072  0.00  0.00     0.065 A 
HETATM    6  C   UNK N   1      35.686  14.806   8.879  0.00  0.00     0.068 A 
HETATM    7  N   UNK N   1      37.453  13.840  10.299  0.00  0.00    -0.295 N 
HETATM    8  C   UNK N   1      38.522  13.683   9.328  0.00  0.00     0.178 C 
HETATM    9  N   UNK N   1      37.563  13.521  11.583  0.00  0.00    -0.297 N 
ATOM     10  HN  UNK N   1      38.389  13.128  12.034  1.00  0.00     0.187 HD
HETATM   11  C   UNK N   1      36.385  13.809  12.191  0.00  0.00     0.071 A 
ENDROOT
BRANCH   1  12
HETATM   12  O   UNK N   1      33.828  15.759   7.750  0.00  0.00    -0.351 OA
BRANCH  12  13
HETATM   13  C   UNK N   1      32.475  15.760   7.493  0.00  0.00     0.175 C 
BRANCH  13  14
HETATM   14  C   UNK N   1      31.931  17.170   7.642  0.00  0.00     0.027 C 
BRANCH  14  15
HETATM   15  C   UNK N   1      30.811  17.186   8.668  0.00  0.00     0.002 C 
BRANCH  15  16
HETATM   16  C   UNK N   1      29.770  18.244   8.329  0.00  0.00     0.002 C 
BRANCH  16  17
HETATM   17  C   UNK N   1      28.648  17.668   7.481  0.00  0.00     0.030 C 
BRANCH  17  18
HETATM   18  C   UNK N   1      28.536  18.379   6.125  0.00  0.00     0.272 C 
BRANCH  18  19
HETATM   19  N   UNK N   1      27.239  18.237   5.444  0.00  0.00     0.087 N 
HETATM   20  C   UNK N   1      26.723  16.871   5.464  0.00  0.00     0.310 C 
BRANCH  19  21
HETATM   21  C   UNK N   1      27.334  18.703   4.067  0.00  0.00     0.298 C 
BRANCH  21  22
HETATM   22  C   UNK N   1      26.854  20.119   3.990  0.00  0.00    -0.007 C 
HETATM   23  C   UNK N   1      25.995  20.489   3.046  0.00  0.00     0.008 C 
ENDBRANCH  21  22
ENDBRANCH  19  21
ENDBRANCH  18  19
ENDBRANCH  17  18
ENDBRANCH  16  17
ENDBRANCH  15  16
ENDBRANCH  14  15
ENDBRANCH  13  14
ENDBRANCH  12  13
ENDBRANCH   1  12
BRANCH  11  24
HETATM   24  C   UNK N   1      36.140  13.622  13.634  0.00  0.00    -0.007 A 
HETATM   25  C   UNK N   1      35.251  12.638  14.093  0.00  0.00     0.015 A 
HETATM   26  C   UNK N   1      34.993  12.503  15.460  0.00  0.00     0.020 A 
HETATM   27  C   UNK N   1      35.617  13.353  16.376  0.00  0.00     0.011 A 
HETATM   28 Br   UNK N   1      35.240  13.190  18.237  0.00  0.00    -0.051 Br
HETATM   29  C   UNK N   1      36.509  14.330  15.928  0.00  0.00     0.020 A 
HETATM   30  C   UNK N   1      36.770  14.464  14.561  0.00  0.00     0.015 A 
ENDBRANCH  11  24
TORSDOF 11
ENDMDL
