MODEL 1
REMARK VINA RESULT:      -4.2      0.000      0.000
REMARK  2 active torsions:
REMARK  status: ('A' for Active; 'I' for Inactive)
REMARK    1  A    between atoms: C_4  and  C_3 
REMARK    2  A    between atoms: O_9  and  C_5 
ROOT
HETATM    1  C   UNK N   1      20.428  18.594   3.354  0.00  0.00     0.040 A 
HETATM    2  C   UNK N   1      20.684  20.102   3.412  0.00  0.00     0.086 A 
HETATM    3  C   UNK N   1      20.263  18.191   1.869  0.00  0.00     0.145 A 
HETATM    4  C   UNK N   1      20.645  20.434   1.986  0.00  0.00     0.111 A 
HETATM    5  N   UNK N   1      20.431  19.460   1.209  0.00  0.00    -0.364 N 
ATOM      6  HN  UNK N   1      20.382  19.564   0.196  1.00  0.00     0.162 HD
ENDROOT
BRANCH   3   7
HETATM    7  C   UNK N   1      20.015  17.112   0.840  0.00  0.00     0.256 C 
HETATM    8  O   UNK N   1      20.355  17.211  -0.332  0.00  0.00    -0.305 OA
ENDBRANCH   3   7
BRANCH   4   9
HETATM    9  O   UNK N   1      20.824  21.686   1.514  0.00  0.00    -0.350 OA
HETATM   10  H   UNK N   1      21.082  22.374   2.094  0.00  0.00     0.219 HD
ENDBRANCH   4   9
TORSDOF 2
ENDMDL
MODEL 2
REMARK VINA RESULT:      -4.1     15.827     16.346
REMARK  2 active torsions:
REMARK  status: ('A' for Active; 'I' for Inactive)
REMARK    1  A    between atoms: C_4  and  C_3 
REMARK    2  A    between atoms: O_9  and  C_5 
ROOT
HETATM    1  C   UNK N   1      34.949  15.498   7.974  0.00  0.00     0.040 A 
HETATM    2  C   UNK N   1      34.533  14.494   9.053  0.00  0.00     0.086 A 
HETATM    3  C   UNK N   1      34.511  16.908   8.436  0.00  0.00     0.145 A 
HETATM    4  C   UNK N   1      33.905  15.392  10.024  0.00  0.00     0.111 A 
HETATM    5  N   UNK N   1      33.897  16.615   9.706  0.00  0.00    -0.364 N 
ATOM      6  HN  UNK N   1      33.489  17.336  10.300  1.00  0.00     0.162 HD
ENDROOT
BRANCH   3   7
HETATM    7  C   UNK N   1      34.440  18.395   8.169  0.00  0.00     0.256 C 
HETATM    8  O   UNK N   1      35.303  19.185   8.532  0.00  0.00    -0.305 OA
ENDBRANCH   3   7
BRANCH   4   9
HETATM    9  O   UNK N   1      33.366  14.962  11.186  0.00  0.00    -0.350 OA
HETATM   10  H   UNK N   1      33.576  14.111  11.514  0.00  0.00     0.219 HD
ENDBRANCH   4   9
TORSDOF 2
ENDMDL
MODEL 3
REMARK VINA RESULT:      -4.1     10.502     11.251
REMARK  2 active torsions:
REMARK  status: ('A' for Active; 'I' for Inactive)
REMARK    1  A    between atoms: C_4  and  C_3 
REMARK    2  A    between atoms: O_9  and  C_5 
ROOT
HETATM    1  C   UNK N   1      21.545  12.169  11.386  0.00  0.00     0.040 A 
HETATM    2  C   UNK N   1      22.871  11.760  12.034  0.00  0.00     0.086 A 
HETATM    3  C   UNK N   1      21.861  13.102  10.193  0.00  0.00     0.145 A 
HETATM    4  C   UNK N   1      23.818  12.477  11.178  0.00  0.00     0.111 A 
HETATM    5  N   UNK N   1      23.300  13.156  10.246  0.00  0.00    -0.364 N 
ATOM      6  HN  UNK N   1      23.856  13.698   9.585  1.00  0.00     0.162 HD
ENDROOT
BRANCH   3   7
HETATM    7  C   UNK N   1      21.364  13.948   9.043  0.00  0.00     0.256 C 
HETATM    8  O   UNK N   1      20.210  13.912   8.633  0.00  0.00    -0.305 OA
ENDBRANCH   3   7
BRANCH   4   9
HETATM    9  O   UNK N   1      25.156  12.430  11.356  0.00  0.00    -0.350 OA
HETATM   10  H   UNK N   1      25.675  13.196  11.215  0.00  0.00     0.219 HD
ENDBRANCH   4   9
TORSDOF 2
ENDMDL
MODEL 4
REMARK VINA RESULT:      -4.1     10.145     10.960
REMARK  2 active torsions:
REMARK  status: ('A' for Active; 'I' for Inactive)
REMARK    1  A    between atoms: C_4  and  C_3 
REMARK    2  A    between atoms: O_9  and  C_5 
ROOT
HETATM    1  C   UNK N   1      25.413  25.852  -5.594  0.00  0.00     0.040 A 
HETATM    2  C   UNK N   1      24.953  27.291  -5.348  0.00  0.00     0.086 A 
HETATM    3  C   UNK N   1      26.277  25.411  -4.388  0.00  0.00     0.145 A 
HETATM    4  C   UNK N   1      25.577  27.552  -4.050  0.00  0.00     0.111 A 
HETATM    5  N   UNK N   1      26.247  26.595  -3.568  0.00  0.00    -0.364 N 
ATOM      6  HN  UNK N   1      26.728  26.656  -2.671  1.00  0.00     0.162 HD
ENDROOT
BRANCH   3   7
HETATM    7  C   UNK N   1      27.105  24.344  -3.709  0.00  0.00     0.256 C 
HETATM    8  O   UNK N   1      26.839  23.891  -2.602  0.00  0.00    -0.305 OA
ENDBRANCH   3   7
BRANCH   4   9
HETATM    9  O   UNK N   1      25.457  28.728  -3.396  0.00  0.00    -0.350 OA
HETATM   10  H   UNK N   1      26.221  29.173  -3.087  0.00  0.00     0.219 HD
ENDBRANCH   4   9
TORSDOF 2
ENDMDL
MODEL 5
REMARK VINA RESULT:      -4.1      1.925      2.159
REMARK  2 active torsions:
REMARK  status: ('A' for Active; 'I' for Inactive)
REMARK    1  A    between atoms: C_4  and  C_3 
REMARK    2  A    between atoms: O_9  and  C_5 
ROOT
HETATM    1  C   UNK N   1      20.906  19.938   3.507  0.00  0.00     0.040 A 
HETATM    2  C   UNK N   1      21.132  20.910   2.346  0.00  0.00     0.086 A 
HETATM    3  C   UNK N   1      20.324  18.626   2.928  0.00  0.00     0.145 A 
HETATM    4  C   UNK N   1      20.672  20.094   1.221  0.00  0.00     0.111 A 
HETATM    5  N   UNK N   1      20.263  18.936   1.523  0.00  0.00    -0.364 N 
ATOM      6  HN  UNK N   1      19.918  18.276   0.827  1.00  0.00     0.162 HD
ENDROOT
BRANCH   3   7
HETATM    7  C   UNK N   1      19.811  17.223   3.161  0.00  0.00     0.256 C 
HETATM    8  O   UNK N   1      19.150  16.904   4.141  0.00  0.00    -0.305 OA
ENDBRANCH   3   7
BRANCH   4   9
HETATM    9  O   UNK N   1      20.675  20.529  -0.057  0.00  0.00    -0.350 OA
HETATM   10  H   UNK N   1      21.204  20.097  -0.698  0.00  0.00     0.219 HD
ENDBRANCH   4   9
TORSDOF 2
ENDMDL
MODEL 6
REMARK VINA RESULT:      -4.0      2.278      3.433
REMARK  2 active torsions:
REMARK  status: ('A' for Active; 'I' for Inactive)
REMARK    1  A    between atoms: C_4  and  C_3 
REMARK    2  A    between atoms: O_9  and  C_5 
ROOT
HETATM    1  C   UNK N   1      21.183  19.653   3.379  0.00  0.00     0.040 A 
HETATM    2  C   UNK N   1      20.152  19.704   2.248  0.00  0.00     0.086 A 
HETATM    3  C   UNK N   1      22.514  20.231   2.840  0.00  0.00     0.145 A 
HETATM    4  C   UNK N   1      20.958  20.293   1.178  0.00  0.00     0.111 A 
HETATM    5  N   UNK N   1      22.156  20.558   1.484  0.00  0.00    -0.364 N 
ATOM      6  HN  UNK N   1      22.815  20.970   0.825  1.00  0.00     0.162 HD
ENDROOT
BRANCH   3   7
HETATM    7  C   UNK N   1      23.962  20.591   3.085  0.00  0.00     0.256 C 
HETATM    8  O   UNK N   1      24.747  20.863   2.184  0.00  0.00    -0.305 OA
ENDBRANCH   3   7
BRANCH   4   9
HETATM    9  O   UNK N   1      20.475  20.544  -0.058  0.00  0.00    -0.350 OA
HETATM   10  H   UNK N   1      20.821  20.087  -0.798  0.00  0.00     0.219 HD
ENDBRANCH   4   9
TORSDOF 2
ENDMDL
MODEL 7
REMARK VINA RESULT:      -4.0     11.437     12.179
REMARK  2 active torsions:
REMARK  status: ('A' for Active; 'I' for Inactive)
REMARK    1  A    between atoms: C_4  and  C_3 
REMARK    2  A    between atoms: O_9  and  C_5 
ROOT
HETATM    1  C   UNK N   1      21.918  12.563  10.593  0.00  0.00     0.040 A 
HETATM    2  C   UNK N   1      22.713  13.089   9.394  0.00  0.00     0.086 A 
HETATM    3  C   UNK N   1      22.922  12.213  11.718  0.00  0.00     0.145 A 
HETATM    4  C   UNK N   1      24.077  12.999   9.918  0.00  0.00     0.111 A 
HETATM    5  N   UNK N   1      24.177  12.554  11.098  0.00  0.00    -0.364 N 
ATOM      6  HN  UNK N   1      25.073  12.446  11.571  1.00  0.00     0.162 HD
ENDROOT
BRANCH   3   7
HETATM    7  C   UNK N   1      23.172  11.696  13.116  0.00  0.00     0.256 C 
HETATM    8  O   UNK N   1      23.734  12.352  13.985  0.00  0.00    -0.305 OA
ENDBRANCH   3   7
BRANCH   4   9
HETATM    9  O   UNK N   1      25.166  13.362   9.207  0.00  0.00    -0.350 OA
HETATM   10  H   UNK N   1      25.899  13.754   9.639  0.00  0.00     0.219 HD
ENDBRANCH   4   9
TORSDOF 2
ENDMDL
MODEL 8
REMARK VINA RESULT:      -3.8     15.521     15.911
REMARK  2 active torsions:
REMARK  status: ('A' for Active; 'I' for Inactive)
REMARK    1  A    between atoms: C_4  and  C_3 
REMARK    2  A    between atoms: O_9  and  C_5 
ROOT
HETATM    1  C   UNK N   1      32.850  16.743   8.325  0.00  0.00     0.040 A 
HETATM    2  C   UNK N   1      33.315  18.127   7.863  0.00  0.00     0.086 A 
HETATM    3  C   UNK N   1      33.909  16.184   9.305  0.00  0.00     0.145 A 
HETATM    4  C   UNK N   1      34.574  18.245   8.600  0.00  0.00     0.111 A 
HETATM    5  N   UNK N   1      34.870  17.256   9.330  0.00  0.00    -0.364 N 
ATOM      6  HN  UNK N   1      35.721  17.221   9.890  1.00  0.00     0.162 HD
ENDROOT
BRANCH   3   7
HETATM    7  C   UNK N   1      34.372  15.066  10.212  0.00  0.00     0.256 C 
HETATM    8  O   UNK N   1      33.977  14.928  11.363  0.00  0.00    -0.305 OA
ENDBRANCH   3   7
BRANCH   4   9
HETATM    9  O   UNK N   1      35.379  19.327   8.519  0.00  0.00    -0.350 OA
HETATM   10  H   UNK N   1      35.619  19.792   9.296  0.00  0.00     0.219 HD
ENDBRANCH   4   9
TORSDOF 2
ENDMDL
MODEL 9
REMARK VINA RESULT:      -3.8      1.543      3.111
REMARK  2 active torsions:
REMARK  status: ('A' for Active; 'I' for Inactive)
REMARK    1  A    between atoms: C_4  and  C_3 
REMARK    2  A    between atoms: O_9  and  C_5 
ROOT
HETATM    1  C   UNK N   1      21.472  19.226   3.415  0.00  0.00     0.040 A 
HETATM    2  C   UNK N   1      20.986  17.794   3.656  0.00  0.00     0.086 A 
HETATM    3  C   UNK N   1      20.832  19.736   2.102  0.00  0.00     0.145 A 
HETATM    4  C   UNK N   1      20.126  17.604   2.487  0.00  0.00     0.111 A 
HETATM    5  N   UNK N   1      20.051  18.593   1.702  0.00  0.00    -0.364 N 
ATOM      6  HN  UNK N   1      19.485  18.582   0.855  1.00  0.00     0.162 HD
ENDROOT
BRANCH   3   7
HETATM    7  C   UNK N   1      20.661  20.846   1.090  0.00  0.00     0.256 C 
HETATM    8  O   UNK N   1      21.181  20.829  -0.019  0.00  0.00    -0.305 OA
ENDBRANCH   3   7
BRANCH   4   9
HETATM    9  O   UNK N   1      19.449  16.461   2.245  0.00  0.00    -0.350 OA
HETATM   10  H   UNK N   1      19.068  15.982   2.954  0.00  0.00     0.219 HD
ENDBRANCH   4   9
TORSDOF 2
ENDMDL
