REMARK  7 active torsions:
REMARK  status: ('A' for Active; 'I' for Inactive)
REMARK    1  A    between atoms: N_13  and  C_3 
REMARK    2  A    between atoms: C_5  and  C_4 
REMARK    3  A    between atoms: N_14  and  C_4 
REMARK    4  A    between atoms: O_19  and  C_5 
REMARK    5  A    between atoms: C_9  and  N_13 
REMARK    6  A    between atoms: S_21  and  C_10 
REMARK    7  A    between atoms: S_21  and  N_12 
ROOT
HETATM    1  C   UNK N   1       1.298   1.505  -0.131  0.00  0.00     0.044 A 
HETATM    2  C   UNK N   1       4.789   0.881  -1.286  0.00  0.00     0.165 C 
HETATM    3  C   UNK N   1       2.574   0.858  -0.095  0.00  0.00    -0.002 A 
HETATM    4  C   UNK N   1       3.934   1.522  -0.161  0.00  0.00     0.130 C 
HETATM    5  C   UNK N   1       0.241   0.589  -0.078  0.00  0.00     0.121 A 
HETATM    6  C   UNK N   1       2.484  -0.516  -0.020  0.00  0.00     0.130 A 
HETATM    7  N   UNK N   1       5.095  -0.565  -1.130  0.00  0.00    -0.302 N 
HETATM    8  O   UNK N   1       4.633  -1.866   1.160  0.00  0.00    -0.200 OA
HETATM    9  O   UNK N   1       3.756  -2.829  -0.918  0.00  0.00    -0.200 OA
HETATM   10  S   UNK N   1       0.890  -0.939  -0.013  0.00  0.00    -0.062 SA
HETATM   11  S   UNK N   1       3.933  -1.506  -0.159  0.00  0.00     0.268 S 
ENDROOT
BRANCH   5  12
HETATM   12  S   UNK N   1      -1.500   0.987  -0.124  0.00  0.00     0.263 S 
HETATM   13  O   UNK N   1      -1.826   2.111  -1.118  0.00  0.00    -0.200 OA
HETATM   14  O   UNK N   1      -2.028   1.552   1.202  0.00  0.00    -0.200 OA
BRANCH  12  15
HETATM   15  N   UNK N   1      -2.612  -0.316  -0.545  0.00  0.00    -0.324 N 
HETATM   16  H   UNK N   1      -3.586  -0.136  -0.789  0.00  0.00     0.169 HD
HETATM   17  H   UNK N   1      -2.272  -1.278  -0.545  0.00  0.00     0.169 HD
ENDBRANCH  12  15
ENDBRANCH   5  12
BRANCH   4  18
HETATM   18  N   UNK N   1       3.821   2.960  -0.417  0.00  0.00    -0.412 N 
HETATM   19  H   UNK N   1       4.056   3.415  -1.299  0.00  0.00     0.153 HD
BRANCH  18  20
HETATM   20  C   UNK N   1       3.324   3.649   0.770  0.00  0.00     0.110 C 
HETATM   21  C   UNK N   1       2.424   4.792   0.346  0.00  0.00     0.026 C 
ENDBRANCH  18  20
ENDBRANCH   4  18
BRANCH   7  22
HETATM   22  C   UNK N   1       6.502  -0.865  -0.861  0.00  0.00     0.161 C 
BRANCH  22  23
HETATM   23  C   UNK N   1       7.032  -0.185   0.394  0.00  0.00     0.187 C 
BRANCH  23  24
HETATM   24  O   UNK N   1       8.383  -0.502   0.556  0.00  0.00    -0.394 OA
HETATM   25  C   UNK N   1       9.075   0.631   0.126  0.00  0.00     0.201 C 
ENDBRANCH  23  24
ENDBRANCH  22  23
ENDBRANCH   7  22
TORSDOF 7
