MODEL 1
REMARK VINA RESULT:      -6.0      0.000      0.000
REMARK  6 active torsions:
REMARK  status: ('A' for Active; 'I' for Inactive)
REMARK    1  A    between atoms: C_6  and  C_3 
REMARK    2  A    between atoms: S_22  and  C_3 
REMARK    3  A    between atoms: C_8  and  C_5 
REMARK    4  A    between atoms: C_10  and  O_19 
REMARK    5  A    between atoms: C_11  and  O_20 
REMARK    6  A    between atoms: O_21  and  C_12 
ROOT
HETATM    1  C   UNK N   1      30.687  17.016   5.721  0.00  0.00     0.100 A 
HETATM    2  C   UNK N   1      29.549  18.238   9.883  0.00  0.00     0.183 A 
HETATM    3  C   UNK N   1      31.324  16.944   6.960  0.00  0.00     0.011 A 
HETATM    4  C   UNK N   1      30.458  17.502   7.861  0.00  0.00     0.074 A 
HETATM    5  C   UNK N   1      29.356  17.890   7.184  0.00  0.00     0.111 A 
HETATM    6  C   UNK N   1      28.305  18.486   7.865  0.00  0.00     0.170 A 
HETATM    7  N   UNK N   1      29.470  17.610   5.871  0.00  0.00    -0.360 N 
HETATM    8  N   UNK N   1      30.584  17.661   9.200  0.00  0.00    -0.350 N 
ATOM      9  HN  UNK N   1      31.428  17.358   9.687  1.00  0.00     0.166 HD
HETATM   10  N   UNK N   1      28.421  18.648   9.216  0.00  0.00    -0.331 N 
ATOM     11  HN  UNK N   1      27.658  19.080   9.739  1.00  0.00     0.168 HD
HETATM   12  H   UNK N   1      28.810  17.798   5.166  0.00  0.00     0.165 HD
ENDROOT
BRANCH   3  13
HETATM   13  C   UNK N   1      32.678  16.394   7.291  0.00  0.00     0.145 C 
HETATM   14  C   UNK N   1      33.773  16.600   6.253  0.00  0.00     0.175 C 
HETATM   15  C   UNK N   1      34.826  15.697   6.855  0.00  0.00     0.172 C 
HETATM   16  C   UNK N   1      33.991  14.470   7.262  0.00  0.00     0.118 C 
HETATM   17  N   UNK N   1      32.619  14.948   7.469  0.00  0.00    -0.403 N 
HETATM   18  H   UNK N   1      31.797  14.386   7.690  0.00  0.00     0.154 HD
BRANCH  14  19
HETATM   19  O   UNK N   1      34.196  17.929   6.162  0.00  0.00    -0.391 OA
HETATM   20  H   UNK N   1      34.206  18.689   6.764  0.00  0.00     0.210 HD
ENDBRANCH  14  19
BRANCH  15  21
HETATM   21  O   UNK N   1      35.856  15.386   5.965  0.00  0.00    -0.391 OA
HETATM   22  H   UNK N   1      36.405  16.033   5.493  0.00  0.00     0.210 HD
ENDBRANCH  15  21
BRANCH  16  23
HETATM   23  C   UNK N   1      34.473  13.857   8.574  0.00  0.00     0.100 C 
BRANCH  23  24
HETATM   24  S   UNK N   1      35.474  14.984   9.574  0.00  0.00    -0.171 SA
HETATM   25  C   UNK N   1      34.238  14.927  10.902  0.00  0.00     0.089 C 
ENDBRANCH  23  24
ENDBRANCH  16  23
ENDBRANCH   3  13
BRANCH   6  26
HETATM   26  O   UNK N   1      27.198  18.891   7.221  0.00  0.00    -0.344 OA
HETATM   27  H   UNK N   1      27.249  19.342   6.401  0.00  0.00     0.219 HD
ENDBRANCH   6  26
TORSDOF 6
ENDMDL
MODEL 2
REMARK VINA RESULT:      -6.0      2.571      3.448
REMARK  6 active torsions:
REMARK  status: ('A' for Active; 'I' for Inactive)
REMARK    1  A    between atoms: C_6  and  C_3 
REMARK    2  A    between atoms: S_22  and  C_3 
REMARK    3  A    between atoms: C_8  and  C_5 
REMARK    4  A    between atoms: C_10  and  O_19 
REMARK    5  A    between atoms: C_11  and  O_20 
REMARK    6  A    between atoms: O_21  and  C_12 
ROOT
HETATM    1  C   UNK N   1      32.578  14.260   7.697  0.00  0.00     0.100 A 
HETATM    2  C   UNK N   1      30.370  18.058   8.595  0.00  0.00     0.183 A 
HETATM    3  C   UNK N   1      32.664  15.214   8.712  0.00  0.00     0.011 A 
HETATM    4  C   UNK N   1      31.718  16.159   8.420  0.00  0.00     0.074 A 
HETATM    5  C   UNK N   1      31.100  15.783   7.281  0.00  0.00     0.111 A 
HETATM    6  C   UNK N   1      30.082  16.567   6.758  0.00  0.00     0.170 A 
HETATM    7  N   UNK N   1      31.608  14.626   6.813  0.00  0.00    -0.360 N 
HETATM    8  N   UNK N   1      31.379  17.284   9.096  0.00  0.00    -0.350 N 
ATOM      9  HN  UNK N   1      31.863  17.544   9.955  1.00  0.00     0.166 HD
HETATM   10  N   UNK N   1      29.730  17.701   7.434  0.00  0.00    -0.331 N 
ATOM     11  HN  UNK N   1      28.981  18.291   7.071  1.00  0.00     0.168 HD
HETATM   12  H   UNK N   1      31.336  14.146   5.998  0.00  0.00     0.165 HD
ENDROOT
BRANCH   3  13
HETATM   13  C   UNK N   1      33.589  15.253   9.890  0.00  0.00     0.145 C 
HETATM   14  C   UNK N   1      34.824  16.133   9.761  0.00  0.00     0.175 C 
HETATM   15  C   UNK N   1      35.557  15.674  11.002  0.00  0.00     0.172 C 
HETATM   16  C   UNK N   1      35.350  14.151  10.943  0.00  0.00     0.118 C 
HETATM   17  N   UNK N   1      34.121  13.926  10.174  0.00  0.00    -0.403 N 
HETATM   18  H   UNK N   1      33.722  13.029   9.897  0.00  0.00     0.154 HD
BRANCH  14  19
HETATM   19  O   UNK N   1      34.528  17.498   9.788  0.00  0.00    -0.391 OA
HETATM   20  H   UNK N   1      34.050  18.109   9.206  0.00  0.00     0.210 HD
ENDBRANCH  14  19
BRANCH  15  21
HETATM   21  O   UNK N   1      36.905  16.043  11.011  0.00  0.00    -0.391 OA
HETATM   22  H   UNK N   1      37.388  16.424  10.261  0.00  0.00     0.210 HD
ENDBRANCH  15  21
BRANCH  16  23
HETATM   23  C   UNK N   1      35.149  13.545  12.330  0.00  0.00     0.100 C 
BRANCH  23  24
HETATM   24  S   UNK N   1      36.679  12.936  13.080  0.00  0.00    -0.171 SA
HETATM   25  C   UNK N   1      36.539  14.171  14.402  0.00  0.00     0.089 C 
ENDBRANCH  23  24
ENDBRANCH  16  23
ENDBRANCH   3  13
BRANCH   6  26
HETATM   26  O   UNK N   1      29.452  16.225   5.622  0.00  0.00    -0.344 OA
HETATM   27  H   UNK N   1      29.848  15.646   5.001  0.00  0.00     0.219 HD
ENDBRANCH   6  26
TORSDOF 6
ENDMDL
MODEL 3
REMARK VINA RESULT:      -5.7      4.772      7.991
REMARK  6 active torsions:
REMARK  status: ('A' for Active; 'I' for Inactive)
REMARK    1  A    between atoms: C_6  and  C_3 
REMARK    2  A    between atoms: S_22  and  C_3 
REMARK    3  A    between atoms: C_8  and  C_5 
REMARK    4  A    between atoms: C_10  and  O_19 
REMARK    5  A    between atoms: C_11  and  O_20 
REMARK    6  A    between atoms: O_21  and  C_12 
ROOT
HETATM    1  C   UNK N   1      35.994  14.348  13.566  0.00  0.00     0.100 A 
HETATM    2  C   UNK N   1      34.069  10.470  12.398  0.00  0.00     0.183 A 
HETATM    3  C   UNK N   1      35.365  13.888  12.408  0.00  0.00     0.011 A 
HETATM    4  C   UNK N   1      34.996  12.597  12.668  0.00  0.00     0.074 A 
HETATM    5  C   UNK N   1      35.391  12.303  13.925  0.00  0.00     0.111 A 
HETATM    6  C   UNK N   1      35.133  11.045  14.452  0.00  0.00     0.170 A 
HETATM    7  N   UNK N   1      36.009  13.354  14.497  0.00  0.00    -0.360 N 
HETATM    8  N   UNK N   1      34.338  11.708  11.884  0.00  0.00    -0.350 N 
ATOM      9  HN  UNK N   1      34.051  11.957  10.938  1.00  0.00     0.166 HD
HETATM   10  N   UNK N   1      34.466  10.144  13.671  0.00  0.00    -0.331 N 
ATOM     11  HN  UNK N   1      34.261   9.214  14.039  1.00  0.00     0.168 HD
HETATM   12  H   UNK N   1      36.394  13.394  15.402  0.00  0.00     0.165 HD
ENDROOT
BRANCH   3  13
HETATM   13  C   UNK N   1      35.128  14.610  11.116  0.00  0.00     0.145 C 
HETATM   14  C   UNK N   1      35.757  15.989  10.978  0.00  0.00     0.175 C 
HETATM   15  C   UNK N   1      35.066  16.425   9.705  0.00  0.00     0.172 C 
HETATM   16  C   UNK N   1      33.622  15.956   9.956  0.00  0.00     0.118 C 
HETATM   17  N   UNK N   1      33.704  14.842  10.907  0.00  0.00    -0.403 N 
HETATM   18  H   UNK N   1      32.927  14.335  11.332  0.00  0.00     0.154 HD
BRANCH  14  19
HETATM   19  O   UNK N   1      37.147  15.945  10.844  0.00  0.00    -0.391 OA
HETATM   20  H   UNK N   1      37.878  15.603  11.381  0.00  0.00     0.210 HD
ENDBRANCH  14  19
BRANCH  15  21
HETATM   21  O   UNK N   1      35.162  17.798   9.471  0.00  0.00    -0.391 OA
HETATM   22  H   UNK N   1      35.123  18.224   8.600  0.00  0.00     0.210 HD
ENDBRANCH  15  21
BRANCH  16  23
HETATM   23  C   UNK N   1      32.957  15.436   8.685  0.00  0.00     0.100 C 
BRANCH  23  24
HETATM   24  S   UNK N   1      31.539  16.426   8.154  0.00  0.00    -0.171 SA
HETATM   25  C   UNK N   1      32.593  17.338   6.992  0.00  0.00     0.089 C 
ENDBRANCH  23  24
ENDBRANCH  16  23
ENDBRANCH   3  13
BRANCH   6  26
HETATM   26  O   UNK N   1      35.519  10.718  15.695  0.00  0.00    -0.344 OA
HETATM   27  H   UNK N   1      35.537  11.354  16.383  0.00  0.00     0.219 HD
ENDBRANCH   6  26
TORSDOF 6
ENDMDL
MODEL 4
REMARK VINA RESULT:      -5.6      3.178      6.553
REMARK  6 active torsions:
REMARK  status: ('A' for Active; 'I' for Inactive)
REMARK    1  A    between atoms: C_6  and  C_3 
REMARK    2  A    between atoms: S_22  and  C_3 
REMARK    3  A    between atoms: C_8  and  C_5 
REMARK    4  A    between atoms: C_10  and  O_19 
REMARK    5  A    between atoms: C_11  and  O_20 
REMARK    6  A    between atoms: O_21  and  C_12 
ROOT
HETATM    1  C   UNK N   1      31.345  15.173   6.627  0.00  0.00     0.100 A 
HETATM    2  C   UNK N   1      34.367  16.986   9.399  0.00  0.00     0.183 A 
HETATM    3  C   UNK N   1      31.414  16.374   7.334  0.00  0.00     0.011 A 
HETATM    4  C   UNK N   1      32.595  16.338   8.023  0.00  0.00     0.074 A 
HETATM    5  C   UNK N   1      33.199  15.164   7.739  0.00  0.00     0.111 A 
HETATM    6  C   UNK N   1      34.430  14.869   8.307  0.00  0.00     0.170 A 
HETATM    7  N   UNK N   1      32.455  14.428   6.892  0.00  0.00    -0.360 N 
HETATM    8  N   UNK N   1      33.149  17.263   8.844  0.00  0.00    -0.350 N 
ATOM      9  HN  UNK N   1      32.670  18.142   9.040  1.00  0.00     0.166 HD
HETATM   10  N   UNK N   1      34.999  15.797   9.133  0.00  0.00    -0.331 N 
ATOM     11  HN  UNK N   1      35.906  15.603   9.558  1.00  0.00     0.168 HD
HETATM   12  H   UNK N   1      32.669  13.535   6.537  0.00  0.00     0.165 HD
ENDROOT
BRANCH   3  13
HETATM   13  C   UNK N   1      30.424  17.498   7.376  0.00  0.00     0.145 C 
HETATM   14  C   UNK N   1      29.575  17.615   8.635  0.00  0.00     0.175 C 
HETATM   15  C   UNK N   1      28.592  18.656   8.147  0.00  0.00     0.172 C 
HETATM   16  C   UNK N   1      28.286  18.154   6.725  0.00  0.00     0.118 C 
HETATM   17  N   UNK N   1      29.450  17.371   6.298  0.00  0.00    -0.403 N 
HETATM   18  H   UNK N   1      29.557  16.848   5.429  0.00  0.00     0.154 HD
BRANCH  14  19
HETATM   19  O   UNK N   1      30.304  18.047   9.746  0.00  0.00    -0.391 OA
HETATM   20  H   UNK N   1      30.703  18.886  10.021  0.00  0.00     0.210 HD
ENDBRANCH  14  19
BRANCH  15  21
HETATM   21  O   UNK N   1      27.453  18.753   8.950  0.00  0.00    -0.391 OA
HETATM   22  H   UNK N   1      26.618  18.281   8.801  0.00  0.00     0.210 HD
ENDBRANCH  15  21
BRANCH  16  23
HETATM   23  C   UNK N   1      28.109  19.304   5.737  0.00  0.00     0.100 C 
BRANCH  23  24
HETATM   24  S   UNK N   1      26.398  19.874   5.589  0.00  0.00    -0.171 SA
HETATM   25  C   UNK N   1      26.862  21.488   6.278  0.00  0.00     0.089 C 
ENDBRANCH  23  24
ENDBRANCH  16  23
ENDBRANCH   3  13
BRANCH   6  26
HETATM   26  O   UNK N   1      35.054  13.707   8.052  0.00  0.00    -0.344 OA
HETATM   27  H   UNK N   1      35.743  13.392   8.604  0.00  0.00     0.219 HD
ENDBRANCH   6  26
TORSDOF 6
ENDMDL
MODEL 5
REMARK VINA RESULT:      -5.6      3.218      6.135
REMARK  6 active torsions:
REMARK  status: ('A' for Active; 'I' for Inactive)
REMARK    1  A    between atoms: C_6  and  C_3 
REMARK    2  A    between atoms: S_22  and  C_3 
REMARK    3  A    between atoms: C_8  and  C_5 
REMARK    4  A    between atoms: C_10  and  O_19 
REMARK    5  A    between atoms: C_11  and  O_20 
REMARK    6  A    between atoms: O_21  and  C_12 
ROOT
HETATM    1  C   UNK N   1      33.634  17.651   8.647  0.00  0.00     0.100 A 
HETATM    2  C   UNK N   1      34.426  13.590  10.375  0.00  0.00     0.183 A 
HETATM    3  C   UNK N   1      32.939  16.442   8.637  0.00  0.00     0.011 A 
HETATM    4  C   UNK N   1      33.714  15.556   9.336  0.00  0.00     0.074 A 
HETATM    5  C   UNK N   1      34.822  16.213   9.740  0.00  0.00     0.111 A 
HETATM    6  C   UNK N   1      35.785  15.545  10.483  0.00  0.00     0.170 A 
HETATM    7  N   UNK N   1      34.803  17.495   9.329  0.00  0.00    -0.360 N 
HETATM    8  N   UNK N   1      33.488  14.254   9.634  0.00  0.00    -0.350 N 
ATOM      9  HN  UNK N   1      32.641  13.783   9.316  1.00  0.00     0.166 HD
HETATM   10  N   UNK N   1      35.565  14.232  10.793  0.00  0.00    -0.331 N 
ATOM     11  HN  UNK N   1      36.257  13.722  11.342  1.00  0.00     0.168 HD
HETATM   12  H   UNK N   1      35.493  18.179   9.488  0.00  0.00     0.165 HD
ENDROOT
BRANCH   3  13
HETATM   13  C   UNK N   1      31.622  16.119   7.999  0.00  0.00     0.145 C 
HETATM   14  C   UNK N   1      31.668  15.333   6.696  0.00  0.00     0.175 C 
HETATM   15  C   UNK N   1      30.215  15.470   6.299  0.00  0.00     0.172 C 
HETATM   16  C   UNK N   1      29.942  16.951   6.615  0.00  0.00     0.118 C 
HETATM   17  N   UNK N   1      30.901  17.339   7.656  0.00  0.00    -0.403 N 
HETATM   18  H   UNK N   1      31.034  18.268   8.056  0.00  0.00     0.154 HD
BRANCH  14  19
HETATM   19  O   UNK N   1      32.050  14.001   6.876  0.00  0.00    -0.391 OA
HETATM   20  H   UNK N   1      31.583  13.171   7.059  0.00  0.00     0.210 HD
ENDBRANCH  14  19
BRANCH  15  21
HETATM   21  O   UNK N   1      29.978  15.143   4.962  0.00  0.00    -0.391 OA
HETATM   22  H   UNK N   1      29.288  15.533   4.402  0.00  0.00     0.210 HD
ENDBRANCH  15  21
BRANCH  16  23
HETATM   23  C   UNK N   1      28.538  17.171   7.170  0.00  0.00     0.100 C 
BRANCH  23  24
HETATM   24  S   UNK N   1      28.429  18.549   8.338  0.00  0.00    -0.171 SA
HETATM   25  C   UNK N   1      27.826  19.639   7.018  0.00  0.00     0.089 C 
ENDBRANCH  23  24
ENDBRANCH  16  23
ENDBRANCH   3  13
BRANCH   6  26
HETATM   26  O   UNK N   1      36.902  16.165  10.894  0.00  0.00    -0.344 OA
HETATM   27  H   UNK N   1      36.881  16.802  11.582  0.00  0.00     0.219 HD
ENDBRANCH   6  26
TORSDOF 6
ENDMDL
MODEL 6
REMARK VINA RESULT:      -5.5      4.892      8.105
REMARK  6 active torsions:
REMARK  status: ('A' for Active; 'I' for Inactive)
REMARK    1  A    between atoms: C_6  and  C_3 
REMARK    2  A    between atoms: S_22  and  C_3 
REMARK    3  A    between atoms: C_8  and  C_5 
REMARK    4  A    between atoms: C_10  and  O_19 
REMARK    5  A    between atoms: C_11  and  O_20 
REMARK    6  A    between atoms: O_21  and  C_12 
ROOT
HETATM    1  C   UNK N   1      35.626  11.922  11.606  0.00  0.00     0.100 A 
HETATM    2  C   UNK N   1      36.887  14.816  14.791  0.00  0.00     0.183 A 
HETATM    3  C   UNK N   1      35.716  13.313  11.671  0.00  0.00     0.011 A 
HETATM    4  C   UNK N   1      36.158  13.603  12.933  0.00  0.00     0.074 A 
HETATM    5  C   UNK N   1      36.322  12.434  13.589  0.00  0.00     0.111 A 
HETATM    6  C   UNK N   1      36.774  12.438  14.900  0.00  0.00     0.170 A 
HETATM    7  N   UNK N   1      35.999  11.388  12.803  0.00  0.00    -0.360 N 
HETATM    8  N   UNK N   1      36.430  14.802  13.502  0.00  0.00    -0.350 N 
ATOM      9  HN  UNK N   1      36.298  15.670  12.983  1.00  0.00     0.166 HD
HETATM   10  N   UNK N   1      37.055  13.642  15.482  0.00  0.00    -0.331 N 
ATOM     11  HN  UNK N   1      37.393  13.669  16.444  1.00  0.00     0.168 HD
HETATM   12  H   UNK N   1      36.026  10.435  13.046  0.00  0.00     0.165 HD
ENDROOT
BRANCH   3  13
HETATM   13  C   UNK N   1      35.394  14.326  10.615  0.00  0.00     0.145 C 
HETATM   14  C   UNK N   1      35.977  15.720  10.805  0.00  0.00     0.175 C 
HETATM   15  C   UNK N   1      35.211  16.434   9.714  0.00  0.00     0.172 C 
HETATM   16  C   UNK N   1      33.795  15.861   9.899  0.00  0.00     0.118 C 
HETATM   17  N   UNK N   1      33.955  14.548  10.532  0.00  0.00    -0.403 N 
HETATM   18  H   UNK N   1      33.215  13.921  10.848  0.00  0.00     0.154 HD
BRANCH  14  19
HETATM   19  O   UNK N   1      37.359  15.764  10.605  0.00  0.00    -0.391 OA
HETATM   20  H   UNK N   1      37.939  15.952   9.850  0.00  0.00     0.210 HD
ENDBRANCH  14  19
BRANCH  15  21
HETATM   21  O   UNK N   1      35.259  17.825   9.831  0.00  0.00    -0.391 OA
HETATM   22  H   UNK N   1      35.098  18.326  10.646  0.00  0.00     0.210 HD
ENDBRANCH  15  21
BRANCH  16  23
HETATM   23  C   UNK N   1      33.081  15.653   8.567  0.00  0.00     0.100 C 
BRANCH  23  24
HETATM   24  S   UNK N   1      32.015  17.037   8.094  0.00  0.00    -0.171 SA
HETATM   25  C   UNK N   1      33.169  17.491   6.769  0.00  0.00     0.089 C 
ENDBRANCH  23  24
ENDBRANCH  16  23
ENDBRANCH   3  13
BRANCH   6  26
HETATM   26  O   UNK N   1      36.940  11.294  15.583  0.00  0.00    -0.344 OA
HETATM   27  H   UNK N   1      37.031  10.472  15.143  0.00  0.00     0.219 HD
ENDBRANCH   6  26
TORSDOF 6
ENDMDL
MODEL 7
REMARK VINA RESULT:      -5.5      3.970      7.295
REMARK  6 active torsions:
REMARK  status: ('A' for Active; 'I' for Inactive)
REMARK    1  A    between atoms: C_6  and  C_3 
REMARK    2  A    between atoms: S_22  and  C_3 
REMARK    3  A    between atoms: C_8  and  C_5 
REMARK    4  A    between atoms: C_10  and  O_19 
REMARK    5  A    between atoms: C_11  and  O_20 
REMARK    6  A    between atoms: O_21  and  C_12 
ROOT
HETATM    1  C   UNK N   1      35.896  15.755  12.207  0.00  0.00     0.100 A 
HETATM    2  C   UNK N   1      34.732  11.429  12.006  0.00  0.00     0.183 A 
HETATM    3  C   UNK N   1      35.163  14.990  11.300  0.00  0.00     0.011 A 
HETATM    4  C   UNK N   1      35.170  13.713  11.791  0.00  0.00     0.074 A 
HETATM    5  C   UNK N   1      35.880  13.720  12.939  0.00  0.00     0.111 A 
HETATM    6  C   UNK N   1      36.042  12.543  13.656  0.00  0.00     0.170 A 
HETATM    7  N   UNK N   1      36.341  14.955  13.217  0.00  0.00    -0.360 N 
HETATM    8  N   UNK N   1      34.589  12.592  11.301  0.00  0.00    -0.350 N 
ATOM      9  HN  UNK N   1      34.057  12.615  10.431  1.00  0.00     0.166 HD
HETATM   10  N   UNK N   1      35.456  11.408  13.173  0.00  0.00    -0.331 N 
ATOM     11  HN  UNK N   1      35.557  10.532  13.685  1.00  0.00     0.168 HD
HETATM   12  H   UNK N   1      36.888  15.224  13.989  0.00  0.00     0.165 HD
ENDROOT
BRANCH   3  13
HETATM   13  C   UNK N   1      34.495  15.421  10.029  0.00  0.00     0.145 C 
HETATM   14  C   UNK N   1      35.253  15.159   8.735  0.00  0.00     0.175 C 
HETATM   15  C   UNK N   1      34.378  15.959   7.796  0.00  0.00     0.172 C 
HETATM   16  C   UNK N   1      34.124  17.236   8.616  0.00  0.00     0.118 C 
HETATM   17  N   UNK N   1      34.270  16.863  10.027  0.00  0.00    -0.403 N 
HETATM   18  H   UNK N   1      34.224  17.481  10.837  0.00  0.00     0.154 HD
BRANCH  14  19
HETATM   19  O   UNK N   1      35.302  13.804   8.397  0.00  0.00    -0.391 OA
HETATM   20  H   UNK N   1      36.010  13.167   8.215  0.00  0.00     0.210 HD
ENDBRANCH  14  19
BRANCH  15  21
HETATM   21  O   UNK N   1      34.984  16.212   6.563  0.00  0.00    -0.391 OA
HETATM   22  H   UNK N   1      35.773  15.762   6.223  0.00  0.00     0.210 HD
ENDBRANCH  15  21
BRANCH  16  23
HETATM   23  C   UNK N   1      32.708  17.772   8.420  0.00  0.00     0.100 C 
BRANCH  23  24
HETATM   24  S   UNK N   1      31.474  16.475   8.156  0.00  0.00    -0.171 SA
HETATM   25  C   UNK N   1      31.140  17.113   6.490  0.00  0.00     0.089 C 
ENDBRANCH  23  24
ENDBRANCH  16  23
ENDBRANCH   3  13
BRANCH   6  26
HETATM   26  O   UNK N   1      36.748  12.514  14.798  0.00  0.00    -0.344 OA
HETATM   27  H   UNK N   1      37.642  12.231  14.811  0.00  0.00     0.219 HD
ENDBRANCH   6  26
TORSDOF 6
ENDMDL
MODEL 8
REMARK VINA RESULT:      -5.5      3.511      5.250
REMARK  6 active torsions:
REMARK  status: ('A' for Active; 'I' for Inactive)
REMARK    1  A    between atoms: C_6  and  C_3 
REMARK    2  A    between atoms: S_22  and  C_3 
REMARK    3  A    between atoms: C_8  and  C_5 
REMARK    4  A    between atoms: C_10  and  O_19 
REMARK    5  A    between atoms: C_11  and  O_20 
REMARK    6  A    between atoms: O_21  and  C_12 
ROOT
HETATM    1  C   UNK N   1      33.041  14.113   9.077  0.00  0.00     0.100 A 
HETATM    2  C   UNK N   1      34.647  18.267   8.554  0.00  0.00     0.183 A 
HETATM    3  C   UNK N   1      33.982  14.881   9.763  0.00  0.00     0.011 A 
HETATM    4  C   UNK N   1      34.045  16.078   9.102  0.00  0.00     0.074 A 
HETATM    5  C   UNK N   1      33.179  16.020   8.067  0.00  0.00     0.111 A 
HETATM    6  C   UNK N   1      33.037  17.115   7.227  0.00  0.00     0.170 A 
HETATM    7  N   UNK N   1      32.554  14.828   8.024  0.00  0.00    -0.360 N 
HETATM    8  N   UNK N   1      34.788  17.178   9.370  0.00  0.00    -0.350 N 
ATOM      9  HN  UNK N   1      35.434  17.195  10.159  1.00  0.00     0.166 HD
HETATM   10  N   UNK N   1      33.779  18.232   7.491  0.00  0.00    -0.331 N 
ATOM     11  HN  UNK N   1      33.687  19.050   6.890  1.00  0.00     0.168 HD
HETATM   12  H   UNK N   1      31.884  14.534   7.366  0.00  0.00     0.165 HD
ENDROOT
BRANCH   3  13
HETATM   13  C   UNK N   1      34.795  14.518  10.968  0.00  0.00     0.145 C 
HETATM   14  C   UNK N   1      36.284  14.292  10.747  0.00  0.00     0.175 C 
HETATM   15  C   UNK N   1      36.627  13.714  12.101  0.00  0.00     0.172 C 
HETATM   16  C   UNK N   1      35.450  12.752  12.339  0.00  0.00     0.118 C 
HETATM   17  N   UNK N   1      34.325  13.266  11.550  0.00  0.00    -0.403 N 
HETATM   18  H   UNK N   1      33.406  12.838  11.434  0.00  0.00     0.154 HD
BRANCH  14  19
HETATM   19  O   UNK N   1      36.981  15.473  10.477  0.00  0.00    -0.391 OA
HETATM   20  H   UNK N   1      36.871  16.405  10.718  0.00  0.00     0.210 HD
ENDBRANCH  14  19
BRANCH  15  21
HETATM   21  O   UNK N   1      37.869  13.075  12.126  0.00  0.00    -0.391 OA
HETATM   22  H   UNK N   1      38.170  12.458  12.811  0.00  0.00     0.210 HD
ENDBRANCH  15  21
BRANCH  16  23
HETATM   23  C   UNK N   1      35.019  12.722  13.802  0.00  0.00     0.100 C 
BRANCH  23  24
HETATM   24  S   UNK N   1      34.275  11.151  14.305  0.00  0.00    -0.171 SA
HETATM   25  C   UNK N   1      35.519  10.240  13.348  0.00  0.00     0.089 C 
ENDBRANCH  23  24
ENDBRANCH  16  23
ENDBRANCH   3  13
BRANCH   6  26
HETATM   26  O   UNK N   1      32.191  17.088   6.185  0.00  0.00    -0.344 OA
HETATM   27  H   UNK N   1      31.398  17.588   6.187  0.00  0.00     0.219 HD
ENDBRANCH   6  26
TORSDOF 6
ENDMDL
MODEL 9
REMARK VINA RESULT:      -5.5      2.841      4.104
REMARK  6 active torsions:
REMARK  status: ('A' for Active; 'I' for Inactive)
REMARK    1  A    between atoms: C_6  and  C_3 
REMARK    2  A    between atoms: S_22  and  C_3 
REMARK    3  A    between atoms: C_8  and  C_5 
REMARK    4  A    between atoms: C_10  and  O_19 
REMARK    5  A    between atoms: C_11  and  O_20 
REMARK    6  A    between atoms: O_21  and  C_12 
ROOT
HETATM    1  C   UNK N   1      28.692  17.930   8.523  0.00  0.00     0.100 A 
HETATM    2  C   UNK N   1      27.495  20.182   4.835  0.00  0.00     0.183 A 
HETATM    3  C   UNK N   1      29.043  17.839   7.176  0.00  0.00     0.011 A 
HETATM    4  C   UNK N   1      28.320  18.806   6.533  0.00  0.00     0.074 A 
HETATM    5  C   UNK N   1      27.570  19.441   7.459  0.00  0.00     0.111 A 
HETATM    6  C   UNK N   1      26.737  20.482   7.075  0.00  0.00     0.170 A 
HETATM    7  N   UNK N   1      27.773  18.923   8.685  0.00  0.00    -0.360 N 
HETATM    8  N   UNK N   1      28.304  19.150   5.222  0.00  0.00    -0.350 N 
ATOM      9  HN  UNK N   1      28.881  18.653   4.544  1.00  0.00     0.166 HD
HETATM   10  N   UNK N   1      26.718  20.839   5.756  0.00  0.00    -0.331 N 
ATOM     11  HN  UNK N   1      26.116  21.605   5.451  1.00  0.00     0.168 HD
HETATM   12  H   UNK N   1      27.345  19.204   9.526  0.00  0.00     0.165 HD
ENDROOT
BRANCH   3  13
HETATM   13  C   UNK N   1      29.997  16.891   6.514  0.00  0.00     0.145 C 
HETATM   14  C   UNK N   1      29.391  15.657   5.860  0.00  0.00     0.175 C 
HETATM   15  C   UNK N   1      30.671  14.900   5.580  0.00  0.00     0.172 C 
HETATM   16  C   UNK N   1      31.453  15.112   6.889  0.00  0.00     0.118 C 
HETATM   17  N   UNK N   1      30.948  16.356   7.481  0.00  0.00    -0.403 N 
HETATM   18  H   UNK N   1      31.209  16.761   8.380  0.00  0.00     0.154 HD
BRANCH  14  19
HETATM   19  O   UNK N   1      28.677  15.950   4.696  0.00  0.00    -0.391 OA
HETATM   20  H   UNK N   1      28.796  15.763   3.752  0.00  0.00     0.210 HD
ENDBRANCH  14  19
BRANCH  15  21
HETATM   21  O   UNK N   1      30.457  13.553   5.282  0.00  0.00    -0.391 OA
HETATM   22  H   UNK N   1      29.893  13.218   4.567  0.00  0.00     0.210 HD
ENDBRANCH  15  21
BRANCH  16  23
HETATM   23  C   UNK N   1      32.949  15.286   6.642  0.00  0.00     0.100 C 
BRANCH  23  24
HETATM   24  S   UNK N   1      33.358  15.672   4.923  0.00  0.00    -0.171 SA
HETATM   25  C   UNK N   1      33.543  17.427   5.346  0.00  0.00     0.089 C 
ENDBRANCH  23  24
ENDBRANCH  16  23
ENDBRANCH   3  13
BRANCH   6  26
HETATM   26  O   UNK N   1      25.973  21.129   7.969  0.00  0.00    -0.344 OA
HETATM   27  H   UNK N   1      26.246  21.232   8.860  0.00  0.00     0.219 HD
ENDBRANCH   6  26
TORSDOF 6
ENDMDL
