REMARK  6 active torsions:
REMARK  status: ('A' for Active; 'I' for Inactive)
REMARK    1  A    between atoms: C_2  and  C_1 
REMARK    2  A    between atoms: O_7  and  C_1 
REMARK    3  A    between atoms: C_3  and  O_8 
REMARK    4  A    between atoms: C_4  and  O_9 
REMARK    5  A    between atoms: C_5  and  O_10 
REMARK    6  A    between atoms: O_11  and  C_6 
ROOT
HETATM    1  C   UNK N   1       1.823   0.754  -0.553  0.00  0.00     0.179 C 
HETATM    2  C   UNK N   1       0.789   1.726   0.087  0.00  0.00     0.180 C 
HETATM    3  C   UNK N   1      -0.482   0.968   0.540  0.00  0.00     0.183 C 
HETATM    4  C   UNK N   1      -0.675  -0.286  -0.308  0.00  0.00     0.204 C 
HETATM    5  C   UNK N   1       0.569  -1.186  -0.033  0.00  0.00     0.288 C 
HETATM    6  O   UNK N   1       1.827  -0.507   0.085  0.00  0.00    -0.349 OA
ENDROOT
BRANCH   1   7
HETATM    7  C   UNK N   1       3.223   1.359  -0.554  0.00  0.00     0.198 C 
BRANCH   7   8
HETATM    8  O   UNK N   1       3.670   1.583   0.751  0.00  0.00    -0.398 OA
HETATM    9  H   UNK N   1       3.959   1.392   1.656  0.00  0.00     0.209 HD
ENDBRANCH   7   8
ENDBRANCH   1   7
BRANCH   2  10
HETATM   10  O   UNK N   1       0.476   2.707  -0.860  0.00  0.00    -0.390 OA
HETATM   11  H   UNK N   1       0.957   3.235  -1.517  0.00  0.00     0.210 HD
ENDBRANCH   2  10
BRANCH   3  12
HETATM   12  O   UNK N   1      -1.606   1.798   0.514  0.00  0.00    -0.390 OA
HETATM   13  H   UNK N   1      -1.497   2.762   0.496  0.00  0.00     0.210 HD
ENDBRANCH   3  12
BRANCH   5  14
HETATM   14  O   UNK N   1       0.651  -2.216  -0.972  0.00  0.00    -0.369 OA
HETATM   15  H   UNK N   1       0.060  -2.623  -1.624  0.00  0.00     0.212 HD
ENDBRANCH   5  14
BRANCH   4  16
HETATM   16  O   UNK N   1      -0.783   0.054  -1.661  0.00  0.00    -0.388 OA
HETATM   17  H   UNK N   1      -0.616   0.237  -2.599  0.00  0.00     0.210 HD
ENDBRANCH   4  16
TORSDOF 6
