MODEL 1
REMARK VINA RESULT:      -5.0      0.000      0.000
REMARK  5 active torsions:
REMARK  status: ('A' for Active; 'I' for Inactive)
REMARK    1  A    between atoms: C_3  and  C_2 
REMARK    2  A    between atoms: O_8  and  C_2 
REMARK    3  A    between atoms: C_4  and  O_9 
REMARK    4  A    between atoms: C_5  and  O_10 
REMARK    5  A    between atoms: C_6  and  O_11 
ROOT
HETATM    1  C   UNK N   1      33.671  15.885   7.118  0.00  0.00     0.148 C 
HETATM    2  C   UNK N   1      34.473  15.570   9.368  0.00  0.00     0.131 C 
HETATM    3  C   UNK N   1      33.746  17.407   7.237  0.00  0.00     0.166 C 
HETATM    4  C   UNK N   1      34.613  17.094   9.567  0.00  0.00     0.173 C 
HETATM    5  C   UNK N   1      34.869  17.774   8.214  0.00  0.00     0.179 C 
HETATM    6  N   UNK N   1      33.384  15.286   8.424  0.00  0.00    -0.410 N 
HETATM    7  H   UNK N   1      32.548  14.746   8.646  0.00  0.00     0.153 HD
ENDROOT
BRANCH   2   8
HETATM    8  C   UNK N   1      34.159  14.905  10.704  0.00  0.00     0.191 C 
BRANCH   8   9
HETATM    9  O   UNK N   1      32.798  15.006  10.995  0.00  0.00    -0.399 OA
HETATM   10  H   UNK N   1      32.193  15.700  10.691  0.00  0.00     0.209 HD
ENDBRANCH   8   9
ENDBRANCH   2   8
BRANCH   4  11
HETATM   11  O   UNK N   1      35.668  17.374  10.441  0.00  0.00    -0.391 OA
HETATM   12  H   UNK N   1      36.390  16.741  10.582  0.00  0.00     0.210 HD
ENDBRANCH   4  11
BRANCH   5  13
HETATM   13  O   UNK N   1      34.924  19.160   8.377  0.00  0.00    -0.390 OA
HETATM   14  H   UNK N   1      35.389  19.664   9.063  0.00  0.00     0.210 HD
ENDBRANCH   5  13
BRANCH   3  15
HETATM   15  O   UNK N   1      34.001  17.959   5.982  0.00  0.00    -0.391 OA
HETATM   16  H   UNK N   1      34.497  17.512   5.277  0.00  0.00     0.210 HD
ENDBRANCH   3  15
TORSDOF 5
ENDMDL
MODEL 2
REMARK VINA RESULT:      -4.9      1.799      4.408
REMARK  5 active torsions:
REMARK  status: ('A' for Active; 'I' for Inactive)
REMARK    1  A    between atoms: C_3  and  C_2 
REMARK    2  A    between atoms: O_8  and  C_2 
REMARK    3  A    between atoms: C_4  and  O_9 
REMARK    4  A    between atoms: C_5  and  O_10 
REMARK    5  A    between atoms: C_6  and  O_11 
ROOT
HETATM    1  C   UNK N   1      35.225  15.996  11.004  0.00  0.00     0.148 C 
HETATM    2  C   UNK N   1      34.649  16.998   8.889  0.00  0.00     0.131 C 
HETATM    3  C   UNK N   1      33.985  15.102  10.989  0.00  0.00     0.166 C 
HETATM    4  C   UNK N   1      33.392  16.110   8.773  0.00  0.00     0.173 C 
HETATM    5  C   UNK N   1      33.612  14.795   9.534  0.00  0.00     0.179 C 
HETATM    6  N   UNK N   1      34.953  17.254  10.304  0.00  0.00    -0.410 N 
HETATM    7  H   UNK N   1      34.973  18.177  10.737  0.00  0.00     0.153 HD
ENDROOT
BRANCH   2   8
HETATM    8  C   UNK N   1      34.405  18.328   8.185  0.00  0.00     0.191 C 
BRANCH   8   9
HETATM    9  O   UNK N   1      35.355  19.272   8.575  0.00  0.00    -0.399 OA
HETATM   10  H   UNK N   1      35.251  20.237   8.560  0.00  0.00     0.209 HD
ENDBRANCH   8   9
ENDBRANCH   2   8
BRANCH   4  11
HETATM   11  O   UNK N   1      33.114  15.837   7.431  0.00  0.00    -0.391 OA
HETATM   12  H   UNK N   1      32.446  15.183   7.175  0.00  0.00     0.210 HD
ENDBRANCH   4  11
BRANCH   5  13
HETATM   13  O   UNK N   1      32.451  14.019   9.494  0.00  0.00    -0.390 OA
HETATM   14  H   UNK N   1      31.595  14.243   9.097  0.00  0.00     0.210 HD
ENDBRANCH   5  13
BRANCH   3  15
HETATM   15  O   UNK N   1      34.258  13.918  11.676  0.00  0.00    -0.391 OA
HETATM   16  H   UNK N   1      33.728  13.580  12.416  0.00  0.00     0.210 HD
ENDBRANCH   3  15
TORSDOF 5
ENDMDL
MODEL 3
REMARK VINA RESULT:      -4.8     12.172     12.641
REMARK  5 active torsions:
REMARK  status: ('A' for Active; 'I' for Inactive)
REMARK    1  A    between atoms: C_3  and  C_2 
REMARK    2  A    between atoms: O_8  and  C_2 
REMARK    3  A    between atoms: C_4  and  O_9 
REMARK    4  A    between atoms: C_5  and  O_10 
REMARK    5  A    between atoms: C_6  and  O_11 
ROOT
HETATM    1  C   UNK N   1      42.670  21.625   1.595  0.00  0.00     0.148 C 
HETATM    2  C   UNK N   1      44.661  20.822   2.691  0.00  0.00     0.131 C 
HETATM    3  C   UNK N   1      42.419  22.672   2.679  0.00  0.00     0.166 C 
HETATM    4  C   UNK N   1      44.505  21.871   3.813  0.00  0.00     0.173 C 
HETATM    5  C   UNK N   1      43.765  23.103   3.274  0.00  0.00     0.179 C 
HETATM    6  N   UNK N   1      43.340  20.452   2.164  0.00  0.00    -0.410 N 
HETATM    7  H   UNK N   1      42.945  19.512   2.190  0.00  0.00     0.153 HD
ENDROOT
BRANCH   2   8
HETATM    8  C   UNK N   1      45.342  19.575   3.244  0.00  0.00     0.191 C 
BRANCH   8   9
HETATM    9  O   UNK N   1      46.703  19.808   3.446  0.00  0.00    -0.399 OA
HETATM   10  H   UNK N   1      47.143  20.671   3.472  0.00  0.00     0.209 HD
ENDBRANCH   8   9
ENDBRANCH   2   8
BRANCH   4  11
HETATM   11  O   UNK N   1      45.760  22.250   4.298  0.00  0.00    -0.391 OA
HETATM   12  H   UNK N   1      45.859  22.696   5.154  0.00  0.00     0.210 HD
ENDBRANCH   4  11
BRANCH   5  13
HETATM   13  O   UNK N   1      43.557  24.024   4.303  0.00  0.00    -0.390 OA
HETATM   14  H   UNK N   1      44.165  24.272   5.017  0.00  0.00     0.210 HD
ENDBRANCH   5  13
BRANCH   3  15
HETATM   15  O   UNK N   1      41.765  23.771   2.122  0.00  0.00    -0.391 OA
HETATM   16  H   UNK N   1      42.181  24.406   1.517  0.00  0.00     0.210 HD
ENDBRANCH   3  15
TORSDOF 5
ENDMDL
MODEL 4
REMARK VINA RESULT:      -4.8     14.053     15.172
REMARK  5 active torsions:
REMARK  status: ('A' for Active; 'I' for Inactive)
REMARK    1  A    between atoms: C_3  and  C_2 
REMARK    2  A    between atoms: O_8  and  C_2 
REMARK    3  A    between atoms: C_4  and  O_9 
REMARK    4  A    between atoms: C_5  and  O_10 
REMARK    5  A    between atoms: C_6  and  O_11 
ROOT
HETATM    1  C   UNK N   1      22.328  19.406   3.826  0.00  0.00     0.148 C 
HETATM    2  C   UNK N   1      20.393  17.975   3.709  0.00  0.00     0.131 C 
HETATM    3  C   UNK N   1      21.914  20.174   2.572  0.00  0.00     0.166 C 
HETATM    4  C   UNK N   1      19.880  18.716   2.456  0.00  0.00     0.173 C 
HETATM    5  C   UNK N   1      20.385  20.166   2.466  0.00  0.00     0.179 C 
HETATM    6  N   UNK N   1      21.861  18.019   3.751  0.00  0.00    -0.410 N 
HETATM    7  H   UNK N   1      22.469  17.200   3.733  0.00  0.00     0.153 HD
ENDROOT
BRANCH   2   8
HETATM    8  C   UNK N   1      19.941  16.519   3.665  0.00  0.00     0.191 C 
BRANCH   8   9
HETATM    9  O   UNK N   1      18.736  16.357   4.350  0.00  0.00    -0.399 OA
HETATM   10  H   UNK N   1      18.414  16.899   5.087  0.00  0.00     0.209 HD
ENDBRANCH   8   9
ENDBRANCH   2   8
BRANCH   4  11
HETATM   11  O   UNK N   1      18.482  18.703   2.424  0.00  0.00    -0.391 OA
HETATM   12  H   UNK N   1      17.960  18.512   3.219  0.00  0.00     0.210 HD
ENDBRANCH   4  11
BRANCH   5  13
HETATM   13  O   UNK N   1      19.985  20.820   1.299  0.00  0.00    -0.390 OA
HETATM   14  H   UNK N   1      20.090  20.525   0.381  0.00  0.00     0.210 HD
ENDBRANCH   5  13
BRANCH   3  15
HETATM   15  O   UNK N   1      22.384  21.485   2.654  0.00  0.00    -0.391 OA
HETATM   16  H   UNK N   1      22.949  21.821   3.368  0.00  0.00     0.210 HD
ENDBRANCH   3  15
TORSDOF 5
ENDMDL
MODEL 5
REMARK VINA RESULT:      -4.7      2.905      5.448
REMARK  5 active torsions:
REMARK  status: ('A' for Active; 'I' for Inactive)
REMARK    1  A    between atoms: C_3  and  C_2 
REMARK    2  A    between atoms: O_8  and  C_2 
REMARK    3  A    between atoms: C_4  and  O_9 
REMARK    4  A    between atoms: C_5  and  O_10 
REMARK    5  A    between atoms: C_6  and  O_11 
ROOT
HETATM    1  C   UNK N   1      37.331  13.518  10.912  0.00  0.00     0.148 C 
HETATM    2  C   UNK N   1      35.561  15.006  10.234  0.00  0.00     0.131 C 
HETATM    3  C   UNK N   1      36.627  13.177  12.225  0.00  0.00     0.166 C 
HETATM    4  C   UNK N   1      34.763  14.695  11.518  0.00  0.00     0.173 C 
HETATM    5  C   UNK N   1      35.112  13.286  12.019  0.00  0.00     0.179 C 
HETATM    6  N   UNK N   1      37.001  14.884  10.497  0.00  0.00    -0.410 N 
HETATM    7  H   UNK N   1      37.676  15.642  10.403  0.00  0.00     0.153 HD
ENDROOT
BRANCH   2   8
HETATM    8  C   UNK N   1      35.259  16.428   9.773  0.00  0.00     0.191 C 
BRANCH   8   9
HETATM    9  O   UNK N   1      35.007  17.256  10.867  0.00  0.00    -0.399 OA
HETATM   10  H   UNK N   1      34.528  18.099  10.854  0.00  0.00     0.209 HD
ENDBRANCH   8   9
ENDBRANCH   2   8
BRANCH   4  11
HETATM   11  O   UNK N   1      33.390  14.780  11.267  0.00  0.00    -0.391 OA
HETATM   12  H   UNK N   1      33.027  15.439  10.655  0.00  0.00     0.210 HD
ENDBRANCH   4  11
BRANCH   5  13
HETATM   13  O   UNK N   1      34.448  13.028  13.220  0.00  0.00    -0.390 OA
HETATM   14  H   UNK N   1      34.790  12.578  14.009  0.00  0.00     0.210 HD
ENDBRANCH   5  13
BRANCH   3  15
HETATM   15  O   UNK N   1      36.967  11.881  12.612  0.00  0.00    -0.391 OA
HETATM   16  H   UNK N   1      37.661  11.666  13.257  0.00  0.00     0.210 HD
ENDBRANCH   3  15
TORSDOF 5
ENDMDL
MODEL 6
REMARK VINA RESULT:      -4.7      1.774      1.905
REMARK  5 active torsions:
REMARK  status: ('A' for Active; 'I' for Inactive)
REMARK    1  A    between atoms: C_3  and  C_2 
REMARK    2  A    between atoms: O_8  and  C_2 
REMARK    3  A    between atoms: C_4  and  O_9 
REMARK    4  A    between atoms: C_5  and  O_10 
REMARK    5  A    between atoms: C_6  and  O_11 
ROOT
HETATM    1  C   UNK N   1      32.921  15.460   9.289  0.00  0.00     0.148 C 
HETATM    2  C   UNK N   1      34.755  14.955  10.767  0.00  0.00     0.131 C 
HETATM    3  C   UNK N   1      33.367  16.913   9.130  0.00  0.00     0.166 C 
HETATM    4  C   UNK N   1      35.298  16.394  10.639  0.00  0.00     0.173 C 
HETATM    5  C   UNK N   1      34.890  16.985   9.282  0.00  0.00     0.179 C 
HETATM    6  N   UNK N   1      33.294  14.955  10.612  0.00  0.00    -0.410 N 
HETATM    7  H   UNK N   1      32.633  14.646  11.325  0.00  0.00     0.153 HD
ENDROOT
BRANCH   2   8
HETATM    8  C   UNK N   1      35.109  14.393  12.140  0.00  0.00     0.191 C 
BRANCH   8   9
HETATM    9  O   UNK N   1      34.350  13.254  12.415  0.00  0.00    -0.399 OA
HETATM   10  H   UNK N   1      33.992  12.995  13.278  0.00  0.00     0.209 HD
ENDBRANCH   8   9
ENDBRANCH   2   8
BRANCH   4  11
HETATM   11  O   UNK N   1      36.691  16.398  10.756  0.00  0.00    -0.391 OA
HETATM   12  H   UNK N   1      37.256  15.968  10.094  0.00  0.00     0.210 HD
ENDBRANCH   4  11
BRANCH   5  13
HETATM   13  O   UNK N   1      35.316  18.312   9.190  0.00  0.00    -0.390 OA
HETATM   14  H   UNK N   1      36.186  18.678   9.417  0.00  0.00     0.210 HD
ENDBRANCH   5  13
BRANCH   3  15
HETATM   15  O   UNK N   1      32.986  17.382   7.872  0.00  0.00    -0.391 OA
HETATM   16  H   UNK N   1      33.452  18.079   7.384  0.00  0.00     0.210 HD
ENDBRANCH   3  15
TORSDOF 5
ENDMDL
MODEL 7
REMARK VINA RESULT:      -4.5      2.555      4.142
REMARK  5 active torsions:
REMARK  status: ('A' for Active; 'I' for Inactive)
REMARK    1  A    between atoms: C_3  and  C_2 
REMARK    2  A    between atoms: O_8  and  C_2 
REMARK    3  A    between atoms: C_4  and  O_9 
REMARK    4  A    between atoms: C_5  and  O_10 
REMARK    5  A    between atoms: C_6  and  O_11 
ROOT
HETATM    1  C   UNK N   1      35.101  13.193  11.590  0.00  0.00     0.148 C 
HETATM    2  C   UNK N   1      33.689  14.885  10.616  0.00  0.00     0.131 C 
HETATM    3  C   UNK N   1      36.375  13.944  11.203  0.00  0.00     0.166 C 
HETATM    4  C   UNK N   1      34.919  15.728  10.216  0.00  0.00     0.173 C 
HETATM    5  C   UNK N   1      36.078  15.448  11.183  0.00  0.00     0.179 C 
HETATM    6  N   UNK N   1      34.039  13.458  10.616  0.00  0.00    -0.410 N 
HETATM    7  H   UNK N   1      33.603  12.752  10.024  0.00  0.00     0.153 HD
ENDROOT
BRANCH   2   8
HETATM    8  C   UNK N   1      32.560  15.120   9.618  0.00  0.00     0.191 C 
BRANCH   8   9
HETATM    9  O   UNK N   1      31.344  15.284  10.282  0.00  0.00    -0.399 OA
HETATM   10  H   UNK N   1      31.217  15.651  11.171  0.00  0.00     0.209 HD
ENDBRANCH   8   9
ENDBRANCH   2   8
BRANCH   4  11
HETATM   11  O   UNK N   1      34.602  17.090  10.243  0.00  0.00    -0.391 OA
HETATM   12  H   UNK N   1      33.733  17.402  10.542  0.00  0.00     0.210 HD
ENDBRANCH   4  11
BRANCH   5  13
HETATM   13  O   UNK N   1      37.216  16.153  10.784  0.00  0.00    -0.390 OA
HETATM   14  H   UNK N   1      38.029  15.802  10.389  0.00  0.00     0.210 HD
ENDBRANCH   5  13
BRANCH   3  15
HETATM   15  O   UNK N   1      37.379  13.664  12.131  0.00  0.00    -0.391 OA
HETATM   16  H   UNK N   1      37.380  12.894  12.721  0.00  0.00     0.210 HD
ENDBRANCH   3  15
TORSDOF 5
ENDMDL
MODEL 8
REMARK VINA RESULT:      -4.5      5.110      6.145
REMARK  5 active torsions:
REMARK  status: ('A' for Active; 'I' for Inactive)
REMARK    1  A    between atoms: C_3  and  C_2 
REMARK    2  A    between atoms: O_8  and  C_2 
REMARK    3  A    between atoms: C_4  and  O_9 
REMARK    4  A    between atoms: C_5  and  O_10 
REMARK    5  A    between atoms: C_6  and  O_11 
ROOT
HETATM    1  C   UNK N   1      30.828  17.029   7.250  0.00  0.00     0.148 C 
HETATM    2  C   UNK N   1      28.450  17.415   7.193  0.00  0.00     0.131 C 
HETATM    3  C   UNK N   1      31.005  17.913   8.483  0.00  0.00     0.166 C 
HETATM    4  C   UNK N   1      28.529  18.297   8.457  0.00  0.00     0.173 C 
HETATM    5  C   UNK N   1      29.722  17.861   9.321  0.00  0.00     0.179 C 
HETATM    6  N   UNK N   1      29.707  17.508   6.437  0.00  0.00    -0.410 N 
HETATM    7  H   UNK N   1      29.787  17.856   5.482  0.00  0.00     0.153 HD
ENDROOT
BRANCH   2   8
HETATM    8  C   UNK N   1      27.302  17.889   6.308  0.00  0.00     0.191 C 
BRANCH   8   9
HETATM    9  O   UNK N   1      27.027  19.237   6.539  0.00  0.00    -0.399 OA
HETATM   10  H   UNK N   1      27.569  19.857   7.054  0.00  0.00     0.209 HD
ENDBRANCH   8   9
ENDBRANCH   2   8
BRANCH   4  11
HETATM   11  O   UNK N   1      27.348  18.189   9.197  0.00  0.00    -0.391 OA
HETATM   12  H   UNK N   1      26.946  18.962   9.624  0.00  0.00     0.210 HD
ENDBRANCH   4  11
BRANCH   5  13
HETATM   13  O   UNK N   1      29.843  18.702  10.430  0.00  0.00    -0.390 OA
HETATM   14  H   UNK N   1      30.290  19.561  10.484  0.00  0.00     0.210 HD
ENDBRANCH   5  13
BRANCH   3  15
HETATM   15  O   UNK N   1      32.088  17.453   9.233  0.00  0.00    -0.391 OA
HETATM   16  H   UNK N   1      32.392  16.531   9.247  0.00  0.00     0.210 HD
ENDBRANCH   3  15
TORSDOF 5
ENDMDL
MODEL 9
REMARK VINA RESULT:      -4.5     12.128     12.777
REMARK  5 active torsions:
REMARK  status: ('A' for Active; 'I' for Inactive)
REMARK    1  A    between atoms: C_3  and  C_2 
REMARK    2  A    between atoms: O_8  and  C_2 
REMARK    3  A    between atoms: C_4  and  O_9 
REMARK    4  A    between atoms: C_5  and  O_10 
REMARK    5  A    between atoms: C_6  and  O_11 
ROOT
HETATM    1  C   UNK N   1      43.469  20.044   2.426  0.00  0.00     0.148 C 
HETATM    2  C   UNK N   1      42.411  22.197   2.650  0.00  0.00     0.131 C 
HETATM    3  C   UNK N   1      44.823  20.592   2.874  0.00  0.00     0.166 C 
HETATM    4  C   UNK N   1      43.729  22.830   3.143  0.00  0.00     0.173 C 
HETATM    5  C   UNK N   1      44.591  21.764   3.834  0.00  0.00     0.179 C 
HETATM    6  N   UNK N   1      42.701  21.084   1.736  0.00  0.00    -0.410 N 
HETATM    7  H   UNK N   1      42.408  21.040   0.760  0.00  0.00     0.153 HD
ENDROOT
BRANCH   2   8
HETATM    8  C   UNK N   1      41.584  23.244   1.910  0.00  0.00     0.191 C 
BRANCH   8   9
HETATM    9  O   UNK N   1      42.413  24.202   1.326  0.00  0.00    -0.399 OA
HETATM   10  H   UNK N   1      42.433  24.453   0.389  0.00  0.00     0.209 HD
ENDBRANCH   8   9
ENDBRANCH   2   8
BRANCH   4  11
HETATM   11  O   UNK N   1      43.461  23.872   4.036  0.00  0.00    -0.391 OA
HETATM   12  H   UNK N   1      43.005  23.713   4.878  0.00  0.00     0.210 HD
ENDBRANCH   4  11
BRANCH   5  13
HETATM   13  O   UNK N   1      45.816  22.314   4.219  0.00  0.00    -0.390 OA
HETATM   14  H   UNK N   1      46.698  21.913   4.159  0.00  0.00     0.210 HD
ENDBRANCH   5  13
BRANCH   3  15
HETATM   15  O   UNK N   1      45.545  19.583   3.512  0.00  0.00    -0.391 OA
HETATM   16  H   UNK N   1      45.841  18.766   3.080  0.00  0.00     0.210 HD
ENDBRANCH   3  15
TORSDOF 5
ENDMDL
