MODEL 1
REMARK VINA RESULT:      -3.5      0.000      0.000
REMARK  5 active torsions:
REMARK  status: ('A' for Active; 'I' for Inactive)
REMARK    1  A    between atoms: O_1  and  C_2 
REMARK    2  A    between atoms: C_2  and  C_3 
REMARK    3  A    between atoms: C_3  and  O_4 
REMARK    4  A    between atoms: C_3  and  C_5 
REMARK    5  A    between atoms: C_5  and  S_6 
ROOT
HETATM    1  C   UNK N   1      23.749  11.961  11.693  0.00  0.00     0.150 C 
ENDROOT
BRANCH   1   2
HETATM    2  C   UNK N   1      23.129  11.843  13.077  0.00  0.00     0.196 C 
BRANCH   2   3
HETATM    3  O   UNK N   1      23.870  12.551  14.023  0.00  0.00    -0.398 OA
HETATM    4  H   UNK N   1      23.622  12.512  14.960  0.00  0.00     0.209 HD
ENDBRANCH   2   3
ENDBRANCH   1   2
BRANCH   1   5
HETATM    5  O   UNK N   1      25.091  12.338  11.569  0.00  0.00    -0.393 OA
HETATM    6  H   UNK N   1      25.640  12.446  12.362  0.00  0.00     0.210 HD
ENDBRANCH   1   5
BRANCH   1   7
HETATM    7  C   UNK N   1      22.914  11.671  10.452  0.00  0.00     0.104 C 
BRANCH   7   8
HETATM    8  S   UNK N   1      21.386  12.657  10.374  0.00  0.00    -0.180 SA
HETATM    9  H   UNK N   1      20.585  12.583   9.277  0.00  0.00     0.101 HD
ENDBRANCH   7   8
ENDBRANCH   1   7
TORSDOF 5
ENDMDL
MODEL 2
REMARK VINA RESULT:      -3.3     12.406     13.229
REMARK  5 active torsions:
REMARK  status: ('A' for Active; 'I' for Inactive)
REMARK    1  A    between atoms: O_1  and  C_2 
REMARK    2  A    between atoms: C_2  and  C_3 
REMARK    3  A    between atoms: C_3  and  O_4 
REMARK    4  A    between atoms: C_3  and  C_5 
REMARK    5  A    between atoms: C_5  and  S_6 
ROOT
HETATM    1  C   UNK N   1      20.972  20.771   2.185  0.00  0.00     0.150 C 
ENDROOT
BRANCH   1   2
HETATM    2  C   UNK N   1      20.733  20.903   0.689  0.00  0.00     0.196 C 
BRANCH   2   3
HETATM    3  O   UNK N   1      20.579  19.653   0.090  0.00  0.00    -0.398 OA
HETATM    4  H   UNK N   1      20.808  19.532  -0.845  0.00  0.00     0.209 HD
ENDBRANCH   2   3
ENDBRANCH   1   2
BRANCH   1   5
HETATM    5  O   UNK N   1      21.844  21.660   2.824  0.00  0.00    -0.393 OA
HETATM    6  H   UNK N   1      21.978  21.603   3.783  0.00  0.00     0.210 HD
ENDBRANCH   1   5
BRANCH   1   7
HETATM    7  C   UNK N   1      20.267  19.679   2.980  0.00  0.00     0.104 C 
BRANCH   7   8
HETATM    8  S   UNK N   1      21.354  18.865   4.192  0.00  0.00    -0.180 SA
HETATM    9  H   UNK N   1      22.695  19.093   4.162  0.00  0.00     0.101 HD
ENDBRANCH   7   8
ENDBRANCH   1   7
TORSDOF 5
ENDMDL
MODEL 3
REMARK VINA RESULT:      -3.2     12.606     13.115
REMARK  5 active torsions:
REMARK  status: ('A' for Active; 'I' for Inactive)
REMARK    1  A    between atoms: O_1  and  C_2 
REMARK    2  A    between atoms: C_2  and  C_3 
REMARK    3  A    between atoms: C_3  and  O_4 
REMARK    4  A    between atoms: C_3  and  C_5 
REMARK    5  A    between atoms: C_5  and  S_6 
ROOT
HETATM    1  C   UNK N   1      20.686  20.027   1.339  0.00  0.00     0.150 C 
ENDROOT
BRANCH   1   2
HETATM    2  C   UNK N   1      20.813  20.874   2.596  0.00  0.00     0.196 C 
BRANCH   2   3
HETATM    3  O   UNK N   1      22.016  21.581   2.608  0.00  0.00    -0.398 OA
HETATM    4  H   UNK N   1      22.628  21.509   1.859  0.00  0.00     0.209 HD
ENDBRANCH   2   3
ENDBRANCH   1   2
BRANCH   1   5
HETATM    5  O   UNK N   1      20.710  20.648   0.085  0.00  0.00    -0.393 OA
HETATM    6  H   UNK N   1      20.508  20.136  -0.714  0.00  0.00     0.210 HD
ENDBRANCH   1   5
BRANCH   1   7
HETATM    7  C   UNK N   1      20.534  18.515   1.446  0.00  0.00     0.104 C 
BRANCH   7   8
HETATM    8  S   UNK N   1      19.844  17.979   3.042  0.00  0.00    -0.180 SA
HETATM    9  H   UNK N   1      18.663  18.493   3.479  0.00  0.00     0.101 HD
ENDBRANCH   7   8
ENDBRANCH   1   7
TORSDOF 5
ENDMDL
MODEL 4
REMARK VINA RESULT:      -3.1     12.167     12.714
REMARK  5 active torsions:
REMARK  status: ('A' for Active; 'I' for Inactive)
REMARK    1  A    between atoms: O_1  and  C_2 
REMARK    2  A    between atoms: C_2  and  C_3 
REMARK    3  A    between atoms: C_3  and  O_4 
REMARK    4  A    between atoms: C_3  and  C_5 
REMARK    5  A    between atoms: C_5  and  S_6 
ROOT
HETATM    1  C   UNK N   1      34.770  15.061  11.340  0.00  0.00     0.150 C 
ENDROOT
BRANCH   1   2
HETATM    2  C   UNK N   1      35.479  16.360  10.992  0.00  0.00     0.196 C 
BRANCH   2   3
HETATM    3  O   UNK N   1      36.849  16.159  10.828  0.00  0.00    -0.398 OA
HETATM    4  H   UNK N   1      37.230  15.278  10.969  0.00  0.00     0.209 HD
ENDBRANCH   2   3
ENDBRANCH   1   2
BRANCH   1   5
HETATM    5  O   UNK N   1      33.380  14.973  11.190  0.00  0.00    -0.393 OA
HETATM    6  H   UNK N   1      32.796  15.451  11.798  0.00  0.00     0.210 HD
ENDBRANCH   1   5
BRANCH   1   7
HETATM    7  C   UNK N   1      35.566  13.865  11.847  0.00  0.00     0.104 C 
BRANCH   7   8
HETATM    8  S   UNK N   1      36.047  14.018  13.595  0.00  0.00    -0.180 SA
HETATM    9  H   UNK N   1      35.277  14.744  14.451  0.00  0.00     0.101 HD
ENDBRANCH   7   8
ENDBRANCH   1   7
TORSDOF 5
ENDMDL
MODEL 5
REMARK VINA RESULT:      -3.1     23.872     24.272
REMARK  5 active torsions:
REMARK  status: ('A' for Active; 'I' for Inactive)
REMARK    1  A    between atoms: O_1  and  C_2 
REMARK    2  A    between atoms: C_2  and  C_3 
REMARK    3  A    between atoms: C_3  and  O_4 
REMARK    4  A    between atoms: C_3  and  C_5 
REMARK    5  A    between atoms: C_5  and  S_6 
ROOT
HETATM    1  C   UNK N   1      43.551  22.893   3.672  0.00  0.00     0.150 C 
ENDROOT
BRANCH   1   2
HETATM    2  C   UNK N   1      44.540  21.804   4.054  0.00  0.00     0.196 C 
BRANCH   2   3
HETATM    3  O   UNK N   1      45.824  22.323   4.220  0.00  0.00    -0.398 OA
HETATM    4  H   UNK N   1      46.424  21.931   4.873  0.00  0.00     0.209 HD
ENDBRANCH   2   3
ENDBRANCH   1   2
BRANCH   1   5
HETATM    5  O   UNK N   1      43.551  24.102   4.379  0.00  0.00    -0.393 OA
HETATM    6  H   UNK N   1      43.045  24.182   5.203  0.00  0.00     0.210 HD
ENDBRANCH   1   5
BRANCH   1   7
HETATM    7  C   UNK N   1      42.568  22.671   2.529  0.00  0.00     0.104 C 
BRANCH   7   8
HETATM    8  S   UNK N   1      41.744  21.051   2.602  0.00  0.00    -0.180 SA
HETATM    9  H   UNK N   1      40.388  20.973   2.522  0.00  0.00     0.101 HD
ENDBRANCH   7   8
ENDBRANCH   1   7
TORSDOF 5
ENDMDL
MODEL 6
REMARK VINA RESULT:      -3.1     12.372     12.944
REMARK  5 active torsions:
REMARK  status: ('A' for Active; 'I' for Inactive)
REMARK    1  A    between atoms: O_1  and  C_2 
REMARK    2  A    between atoms: C_2  and  C_3 
REMARK    3  A    between atoms: C_3  and  O_4 
REMARK    4  A    between atoms: C_3  and  C_5 
REMARK    5  A    between atoms: C_5  and  S_6 
ROOT
HETATM    1  C   UNK N   1      34.680  17.180   9.336  0.00  0.00     0.150 C 
ENDROOT
BRANCH   1   2
HETATM    2  C   UNK N   1      34.585  18.238   8.248  0.00  0.00     0.196 C 
BRANCH   2   3
HETATM    3  O   UNK N   1      35.391  19.338   8.541  0.00  0.00    -0.398 OA
HETATM    4  H   UNK N   1      35.369  19.732   9.427  0.00  0.00     0.209 HD
ENDBRANCH   2   3
ENDBRANCH   1   2
BRANCH   1   5
HETATM    5  O   UNK N   1      35.586  17.355  10.389  0.00  0.00    -0.393 OA
HETATM    6  H   UNK N   1      35.966  18.231  10.562  0.00  0.00     0.210 HD
ENDBRANCH   1   5
BRANCH   1   7
HETATM    7  C   UNK N   1      33.797  15.939   9.279  0.00  0.00     0.104 C 
BRANCH   7   8
HETATM    8  S   UNK N   1      34.434  14.564  10.285  0.00  0.00    -0.180 SA
HETATM    9  H   UNK N   1      33.576  13.637  10.791  0.00  0.00     0.101 HD
ENDBRANCH   7   8
ENDBRANCH   1   7
TORSDOF 5
ENDMDL
MODEL 7
REMARK VINA RESULT:      -3.0     24.142     24.453
REMARK  5 active torsions:
REMARK  status: ('A' for Active; 'I' for Inactive)
REMARK    1  A    between atoms: O_1  and  C_2 
REMARK    2  A    between atoms: C_2  and  C_3 
REMARK    3  A    between atoms: C_3  and  O_4 
REMARK    4  A    between atoms: C_3  and  C_5 
REMARK    5  A    between atoms: C_5  and  S_6 
ROOT
HETATM    1  C   UNK N   1      44.659  21.903   3.671  0.00  0.00     0.150 C 
ENDROOT
BRANCH   1   2
HETATM    2  C   UNK N   1      43.524  22.875   3.390  0.00  0.00     0.196 C 
BRANCH   2   3
HETATM    3  O   UNK N   1      43.537  23.940   4.291  0.00  0.00    -0.398 OA
HETATM    4  H   UNK N   1      43.031  24.744   4.097  0.00  0.00     0.209 HD
ENDBRANCH   2   3
ENDBRANCH   1   2
BRANCH   1   5
HETATM    5  O   UNK N   1      45.844  22.376   4.247  0.00  0.00    -0.393 OA
HETATM    6  H   UNK N   1      46.691  21.956   4.030  0.00  0.00     0.210 HD
ENDBRANCH   1   5
BRANCH   1   7
HETATM    7  C   UNK N   1      44.508  20.426   3.327  0.00  0.00     0.104 C 
BRANCH   7   8
HETATM    8  S   UNK N   1      42.787  19.948   2.979  0.00  0.00    -0.180 SA
HETATM    9  H   UNK N   1      42.519  19.028   2.013  0.00  0.00     0.101 HD
ENDBRANCH   7   8
ENDBRANCH   1   7
TORSDOF 5
ENDMDL
MODEL 8
REMARK VINA RESULT:      -2.9     11.948     12.790
REMARK  5 active torsions:
REMARK  status: ('A' for Active; 'I' for Inactive)
REMARK    1  A    between atoms: O_1  and  C_2 
REMARK    2  A    between atoms: C_2  and  C_3 
REMARK    3  A    between atoms: C_3  and  O_4 
REMARK    4  A    between atoms: C_3  and  C_5 
REMARK    5  A    between atoms: C_5  and  S_6 
ROOT
HETATM    1  C   UNK N   1      20.312  19.608   2.350  0.00  0.00     0.150 C 
ENDROOT
BRANCH   1   2
HETATM    2  C   UNK N   1      20.773  20.640   1.332  0.00  0.00     0.196 C 
BRANCH   2   3
HETATM    3  O   UNK N   1      20.673  20.146   0.032  0.00  0.00    -0.398 OA
HETATM    4  H   UNK N   1      20.824  19.204  -0.141  0.00  0.00     0.209 HD
ENDBRANCH   2   3
ENDBRANCH   1   2
BRANCH   1   5
HETATM    5  O   UNK N   1      18.979  19.179   2.339  0.00  0.00    -0.393 OA
HETATM    6  H   UNK N   1      18.462  19.222   1.520  0.00  0.00     0.210 HD
ENDBRANCH   1   5
BRANCH   1   7
HETATM    7  C   UNK N   1      21.293  19.047   3.372  0.00  0.00     0.104 C 
BRANCH   7   8
HETATM    8  S   UNK N   1      20.725  17.490   4.124  0.00  0.00    -0.180 SA
HETATM    9  H   UNK N   1      21.625  16.518   4.435  0.00  0.00     0.101 HD
ENDBRANCH   7   8
ENDBRANCH   1   7
TORSDOF 5
ENDMDL
MODEL 9
REMARK VINA RESULT:      -2.8      8.947      9.404
REMARK  5 active torsions:
REMARK  status: ('A' for Active; 'I' for Inactive)
REMARK    1  A    between atoms: O_1  and  C_2 
REMARK    2  A    between atoms: C_2  and  C_3 
REMARK    3  A    between atoms: C_3  and  O_4 
REMARK    4  A    between atoms: C_3  and  C_5 
REMARK    5  A    between atoms: C_5  and  S_6 
ROOT
HETATM    1  C   UNK N   1      29.791  18.305   9.197  0.00  0.00     0.150 C 
ENDROOT
BRANCH   1   2
HETATM    2  C   UNK N   1      28.466  18.178   8.461  0.00  0.00     0.196 C 
BRANCH   2   3
HETATM    3  O   UNK N   1      27.391  18.190   9.350  0.00  0.00    -0.398 OA
HETATM    4  H   UNK N   1      26.495  18.366   9.025  0.00  0.00     0.209 HD
ENDBRANCH   2   3
ENDBRANCH   1   2
BRANCH   1   5
HETATM    5  O   UNK N   1      29.814  18.863  10.480  0.00  0.00    -0.393 OA
HETATM    6  H   UNK N   1      30.635  19.246  10.828  0.00  0.00     0.210 HD
ENDBRANCH   1   5
BRANCH   1   7
HETATM    7  C   UNK N   1      31.081  17.830   8.541  0.00  0.00     0.104 C 
BRANCH   7   8
HETATM    8  S   UNK N   1      30.796  16.850   7.035  0.00  0.00    -0.180 SA
HETATM    9  H   UNK N   1      30.962  17.421   5.811  0.00  0.00     0.101 HD
ENDBRANCH   7   8
ENDBRANCH   1   7
TORSDOF 5
ENDMDL
