MODEL 1
REMARK VINA RESULT:      -4.1      0.000      0.000
REMARK  5 active torsions:
REMARK  status: ('A' for Active; 'I' for Inactive)
REMARK    1  A    between atoms: C_5  and  C_1 
REMARK    2  A    between atoms: C_6  and  C_1 
REMARK    3  A    between atoms: C_5  and  C_3 
REMARK    4  A    between atoms: O_11  and  C_3 
REMARK    5  A    between atoms: C_5  and  N_7 
ROOT
HETATM    1  C   UNK N   1      30.898  17.351   7.934  0.00  0.00     0.093 C 
ENDROOT
BRANCH   1   2
HETATM    2  C   UNK N   1      29.894  17.534   9.073  0.00  0.00     0.212 C 
BRANCH   2   3
HETATM    3  C   UNK N   1      28.500  17.543   8.468  0.00  0.00     0.197 C 
BRANCH   3   4
HETATM    4  O   UNK N   1      27.561  17.995   9.396  0.00  0.00    -0.399 OA
HETATM    5  H   UNK N   1      27.072  18.833   9.427  0.00  0.00     0.209 HD
ENDBRANCH   3   4
ENDBRANCH   2   3
BRANCH   2   6
HETATM    6  N   UNK N   1      30.125  18.796   9.762  0.00  0.00    -0.073 N 
HETATM    7  H   UNK N   1      29.948  19.685   9.294  0.00  0.00     0.274 HD
HETATM    8  H   UNK N   1      30.466  18.791  10.723  0.00  0.00     0.274 HD
HETATM    9  H   UNK N   1      30.288  19.674  10.252  0.00  0.00     0.274 HD
ENDBRANCH   2   6
ENDBRANCH   1   2
BRANCH   1  10
HETATM   10  C   UNK N   1      32.328  17.342   8.376  0.00  0.00     0.027 A 
HETATM   11  C   UNK N   1      33.281  18.275   8.051  0.00  0.00     0.114 A 
HETATM   12  N   UNK N   1      34.418  17.937   8.689  0.00  0.00    -0.360 N 
HETATM   13  C   UNK N   1      34.132  16.818   9.389  0.00  0.00     0.180 A 
ATOM     14  HN  UNK N   1      35.312  18.426   8.651  1.00  0.00     0.166 HD
HETATM   15  N   UNK N   1      32.853  16.435   9.216  0.00  0.00    -0.355 N 
HETATM   16  H   UNK N   1      32.400  15.659   9.618  0.00  0.00     0.166 HD
ENDBRANCH   1  10
TORSDOF 5
ENDMDL
MODEL 2
REMARK VINA RESULT:      -4.1      5.757      7.416
REMARK  5 active torsions:
REMARK  status: ('A' for Active; 'I' for Inactive)
REMARK    1  A    between atoms: C_5  and  C_1 
REMARK    2  A    between atoms: C_6  and  C_1 
REMARK    3  A    between atoms: C_5  and  C_3 
REMARK    4  A    between atoms: O_11  and  C_3 
REMARK    5  A    between atoms: C_5  and  N_7 
ROOT
HETATM    1  C   UNK N   1      35.536  14.008  12.338  0.00  0.00     0.093 C 
ENDROOT
BRANCH   1   2
HETATM    2  C   UNK N   1      35.734  15.343  11.619  0.00  0.00     0.212 C 
BRANCH   2   3
HETATM    3  C   UNK N   1      34.537  15.563  10.708  0.00  0.00     0.197 C 
BRANCH   3   4
HETATM    4  O   UNK N   1      33.404  14.925  11.217  0.00  0.00    -0.399 OA
HETATM    5  H   UNK N   1      33.298  14.018  11.545  0.00  0.00     0.209 HD
ENDBRANCH   3   4
ENDBRANCH   2   3
BRANCH   2   6
HETATM    6  N   UNK N   1      36.948  15.317  10.814  0.00  0.00    -0.073 N 
HETATM    7  H   UNK N   1      37.261  16.150  10.316  0.00  0.00     0.274 HD
HETATM    8  H   UNK N   1      37.491  14.456  10.749  0.00  0.00     0.274 HD
HETATM    9  H   UNK N   1      37.799  15.289  10.254  0.00  0.00     0.274 HD
ENDBRANCH   2   6
ENDBRANCH   1   2
BRANCH   1  10
HETATM   10  C   UNK N   1      35.950  14.022  13.777  0.00  0.00     0.027 A 
HETATM   11  C   UNK N   1      35.474  13.194  14.763  0.00  0.00     0.114 A 
HETATM   12  N   UNK N   1      36.137  13.488  15.898  0.00  0.00    -0.360 N 
HETATM   13  C   UNK N   1      37.000  14.476  15.578  0.00  0.00     0.180 A 
ATOM     14  HN  UNK N   1      36.012  13.054  16.812  1.00  0.00     0.166 HD
HETATM   15  N   UNK N   1      36.908  14.818  14.279  0.00  0.00    -0.355 N 
HETATM   16  H   UNK N   1      37.429  15.503  13.801  0.00  0.00     0.166 HD
ENDBRANCH   1  10
TORSDOF 5
ENDMDL
MODEL 3
REMARK VINA RESULT:      -4.1     12.682     13.708
REMARK  5 active torsions:
REMARK  status: ('A' for Active; 'I' for Inactive)
REMARK    1  A    between atoms: C_5  and  C_1 
REMARK    2  A    between atoms: C_6  and  C_1 
REMARK    3  A    between atoms: C_5  and  C_3 
REMARK    4  A    between atoms: O_11  and  C_3 
REMARK    5  A    between atoms: C_5  and  N_7 
ROOT
HETATM    1  C   UNK N   1      19.999  19.050   2.311  0.00  0.00     0.093 C 
ENDROOT
BRANCH   1   2
HETATM    2  C   UNK N   1      21.014  19.893   1.540  0.00  0.00     0.212 C 
BRANCH   2   3
HETATM    3  C   UNK N   1      21.987  20.486   2.546  0.00  0.00     0.197 C 
BRANCH   3   4
HETATM    4  O   UNK N   1      21.755  21.851   2.714  0.00  0.00    -0.399 OA
HETATM    5  H   UNK N   1      20.917  22.332   2.800  0.00  0.00     0.209 HD
ENDBRANCH   3   4
ENDBRANCH   2   3
BRANCH   2   6
HETATM    6  N   UNK N   1      20.346  20.974   0.828  0.00  0.00    -0.073 N 
HETATM    7  H   UNK N   1      19.342  21.123   0.929  0.00  0.00     0.274 HD
HETATM    8  H   UNK N   1      20.889  21.590   0.222  0.00  0.00     0.274 HD
HETATM    9  H   UNK N   1      19.887  21.734   0.326  0.00  0.00     0.274 HD
ENDBRANCH   2   6
ENDBRANCH   1   2
BRANCH   1  10
HETATM   10  C   UNK N   1      19.864  17.646   1.810  0.00  0.00     0.027 A 
HETATM   11  C   UNK N   1      20.076  16.502   2.539  0.00  0.00     0.114 A 
HETATM   12  N   UNK N   1      19.797  15.452   1.743  0.00  0.00    -0.360 N 
HETATM   13  C   UNK N   1      19.418  15.976   0.557  0.00  0.00     0.180 A 
ATOM     14  HN  UNK N   1      19.860  14.464   1.986  1.00  0.00     0.166 HD
HETATM   15  N   UNK N   1      19.447  17.322   0.575  0.00  0.00    -0.355 N 
HETATM   16  H   UNK N   1      19.212  17.936  -0.159  0.00  0.00     0.166 HD
ENDBRANCH   1  10
TORSDOF 5
ENDMDL
MODEL 4
REMARK VINA RESULT:      -4.1      2.704      4.626
REMARK  5 active torsions:
REMARK  status: ('A' for Active; 'I' for Inactive)
REMARK    1  A    between atoms: C_5  and  C_1 
REMARK    2  A    between atoms: C_6  and  C_1 
REMARK    3  A    between atoms: C_5  and  C_3 
REMARK    4  A    between atoms: O_11  and  C_3 
REMARK    5  A    between atoms: C_5  and  N_7 
ROOT
HETATM    1  C   UNK N   1      32.153  17.260   7.830  0.00  0.00     0.093 C 
ENDROOT
BRANCH   1   2
HETATM    2  C   UNK N   1      33.292  17.737   8.731  0.00  0.00     0.212 C 
BRANCH   2   3
HETATM    3  C   UNK N   1      34.434  18.192   7.837  0.00  0.00     0.197 C 
BRANCH   3   4
HETATM    4  O   UNK N   1      35.217  19.150   8.483  0.00  0.00    -0.399 OA
HETATM    5  H   UNK N   1      35.917  19.720   8.129  0.00  0.00     0.209 HD
ENDBRANCH   3   4
ENDBRANCH   2   3
BRANCH   2   6
HETATM    6  N   UNK N   1      33.757  16.654   9.586  0.00  0.00    -0.073 N 
HETATM    7  H   UNK N   1      33.792  16.767  10.599  0.00  0.00     0.274 HD
HETATM    8  H   UNK N   1      34.050  15.771   9.167  0.00  0.00     0.274 HD
HETATM    9  H   UNK N   1      34.083  15.890  10.176  0.00  0.00     0.274 HD
ENDBRANCH   2   6
ENDBRANCH   1   2
BRANCH   1  10
HETATM   10  C   UNK N   1      30.791  17.670   8.297  0.00  0.00     0.027 A 
HETATM   11  C   UNK N   1      29.609  17.453   7.634  0.00  0.00     0.114 A 
HETATM   12  N   UNK N   1      28.613  17.922   8.410  0.00  0.00    -0.360 N 
HETATM   13  C   UNK N   1      29.206  18.403   9.524  0.00  0.00     0.180 A 
ATOM     14  HN  UNK N   1      27.615  17.914   8.199  1.00  0.00     0.166 HD
HETATM   15  N   UNK N   1      30.543  18.256   9.480  0.00  0.00    -0.355 N 
HETATM   16  H   UNK N   1      31.198  18.520  10.167  0.00  0.00     0.166 HD
ENDBRANCH   1  10
TORSDOF 5
ENDMDL
MODEL 5
REMARK VINA RESULT:      -4.0      9.947     10.784
REMARK  5 active torsions:
REMARK  status: ('A' for Active; 'I' for Inactive)
REMARK    1  A    between atoms: C_5  and  C_1 
REMARK    2  A    between atoms: C_6  and  C_1 
REMARK    3  A    between atoms: C_5  and  C_3 
REMARK    4  A    between atoms: O_11  and  C_3 
REMARK    5  A    between atoms: C_5  and  N_7 
ROOT
HETATM    1  C   UNK N   1      21.400  12.813   9.502  0.00  0.00     0.093 C 
ENDROOT
BRANCH   1   2
HETATM    2  C   UNK N   1      21.538  14.273   9.073  0.00  0.00     0.212 C 
BRANCH   2   3
HETATM    3  C   UNK N   1      20.152  14.898   9.096  0.00  0.00     0.197 C 
BRANCH   3   4
HETATM    4  O   UNK N   1      19.283  14.143   9.884  0.00  0.00    -0.399 OA
HETATM    5  H   UNK N   1      19.361  13.226  10.191  0.00  0.00     0.209 HD
ENDBRANCH   3   4
ENDBRANCH   2   3
BRANCH   2   6
HETATM    6  N   UNK N   1      22.079  14.362   7.724  0.00  0.00    -0.073 N 
HETATM    7  H   UNK N   1      21.991  15.222   7.183  0.00  0.00     0.274 HD
HETATM    8  H   UNK N   1      22.552  13.556   7.316  0.00  0.00     0.274 HD
HETATM    9  H   UNK N   1      22.462  14.416   6.781  0.00  0.00     0.274 HD
ENDBRANCH   2   6
ENDBRANCH   1   2
BRANCH   1  10
HETATM   10  C   UNK N   1      22.298  12.420  10.633  0.00  0.00     0.027 A 
HETATM   11  C   UNK N   1      23.666  12.534  10.657  0.00  0.00     0.114 A 
HETATM   12  N   UNK N   1      24.089  12.127  11.869  0.00  0.00    -0.360 N 
HETATM   13  C   UNK N   1      22.977  11.784  12.554  0.00  0.00     0.180 A 
ATOM     14  HN  UNK N   1      25.052  12.087  12.201  1.00  0.00     0.166 HD
HETATM   15  N   UNK N   1      21.863  11.959  11.817  0.00  0.00    -0.355 N 
HETATM   16  H   UNK N   1      20.932  11.787  12.088  0.00  0.00     0.166 HD
ENDBRANCH   1  10
TORSDOF 5
ENDMDL
MODEL 6
REMARK VINA RESULT:      -4.0      9.543     11.522
REMARK  5 active torsions:
REMARK  status: ('A' for Active; 'I' for Inactive)
REMARK    1  A    between atoms: C_5  and  C_1 
REMARK    2  A    between atoms: C_6  and  C_1 
REMARK    3  A    between atoms: C_5  and  C_3 
REMARK    4  A    between atoms: O_11  and  C_3 
REMARK    5  A    between atoms: C_5  and  N_7 
ROOT
HETATM    1  C   UNK N   1      20.807  19.414   3.762  0.00  0.00     0.093 C 
ENDROOT
BRANCH   1   2
HETATM    2  C   UNK N   1      20.523  18.989   2.321  0.00  0.00     0.212 C 
BRANCH   2   3
HETATM    3  C   UNK N   1      20.801  20.183   1.421  0.00  0.00     0.197 C 
BRANCH   3   4
HETATM    4  O   UNK N   1      20.631  19.840   0.079  0.00  0.00    -0.399 OA
HETATM    5  H   UNK N   1      20.678  18.971  -0.350  0.00  0.00     0.209 HD
ENDBRANCH   3   4
ENDBRANCH   2   3
BRANCH   2   6
HETATM    6  N   UNK N   1      19.131  18.590   2.169  0.00  0.00    -0.073 N 
HETATM    7  H   UNK N   1      18.713  18.496   1.244  0.00  0.00     0.274 HD
HETATM    8  H   UNK N   1      18.567  18.403   2.999  0.00  0.00     0.274 HD
HETATM    9  H   UNK N   1      18.156  18.310   2.073  0.00  0.00     0.274 HD
ENDBRANCH   2   6
ENDBRANCH   1   2
BRANCH   1  10
HETATM   10  C   UNK N   1      22.086  18.870   4.319  0.00  0.00     0.027 A 
HETATM   11  C   UNK N   1      22.207  18.038   5.404  0.00  0.00     0.114 A 
HETATM   12  N   UNK N   1      23.511  17.735   5.544  0.00  0.00    -0.360 N 
HETATM   13  C   UNK N   1      24.151  18.378   4.543  0.00  0.00     0.180 A 
ATOM     14  HN  UNK N   1      23.930  17.142   6.259  1.00  0.00     0.166 HD
HETATM   15  N   UNK N   1      23.296  19.079   3.774  0.00  0.00    -0.355 N 
HETATM   16  H   UNK N   1      23.510  19.625   2.984  0.00  0.00     0.166 HD
ENDBRANCH   1  10
TORSDOF 5
ENDMDL
MODEL 7
REMARK VINA RESULT:      -3.9      9.884     10.789
REMARK  5 active torsions:
REMARK  status: ('A' for Active; 'I' for Inactive)
REMARK    1  A    between atoms: C_5  and  C_1 
REMARK    2  A    between atoms: C_6  and  C_1 
REMARK    3  A    between atoms: C_5  and  C_3 
REMARK    4  A    between atoms: O_11  and  C_3 
REMARK    5  A    between atoms: C_5  and  N_7 
ROOT
HETATM    1  C   UNK N   1      22.569  12.715  10.498  0.00  0.00     0.093 C 
ENDROOT
BRANCH   1   2
HETATM    2  C   UNK N   1      23.560  11.900  11.329  0.00  0.00     0.212 C 
BRANCH   2   3
HETATM    3  C   UNK N   1      23.046  11.858  12.759  0.00  0.00     0.197 C 
BRANCH   3   4
HETATM    4  O   UNK N   1      23.958  12.454  13.630  0.00  0.00    -0.399 OA
HETATM    5  H   UNK N   1      23.822  13.156  14.285  0.00  0.00     0.209 HD
ENDBRANCH   3   4
ENDBRANCH   2   3
BRANCH   2   6
HETATM    6  N   UNK N   1      24.877  12.523  11.313  0.00  0.00    -0.073 N 
HETATM    7  H   UNK N   1      25.070  13.316  10.702  0.00  0.00     0.274 HD
HETATM    8  H   UNK N   1      25.612  12.162  11.920  0.00  0.00     0.274 HD
HETATM    9  H   UNK N   1      25.801  12.953  11.309  0.00  0.00     0.274 HD
ENDBRANCH   2   6
ENDBRANCH   1   2
BRANCH   1  10
HETATM   10  C   UNK N   1      22.415  12.238   9.088  0.00  0.00     0.027 A 
HETATM   11  C   UNK N   1      21.468  12.662   8.189  0.00  0.00     0.114 A 
HETATM   12  N   UNK N   1      21.703  12.034   7.021  0.00  0.00    -0.360 N 
HETATM   13  C   UNK N   1      22.784  11.252   7.231  0.00  0.00     0.180 A 
ATOM     14  HN  UNK N   1      21.173  12.130   6.156  1.00  0.00     0.166 HD
HETATM   15  N   UNK N   1      23.242  11.363   8.492  0.00  0.00    -0.355 N 
HETATM   16  H   UNK N   1      24.016  10.904   8.891  0.00  0.00     0.166 HD
ENDBRANCH   1  10
TORSDOF 5
ENDMDL
MODEL 8
REMARK VINA RESULT:      -3.9     13.412     14.735
REMARK  5 active torsions:
REMARK  status: ('A' for Active; 'I' for Inactive)
REMARK    1  A    between atoms: C_5  and  C_1 
REMARK    2  A    between atoms: C_6  and  C_1 
REMARK    3  A    between atoms: C_5  and  C_3 
REMARK    4  A    between atoms: O_11  and  C_3 
REMARK    5  A    between atoms: C_5  and  N_7 
ROOT
HETATM    1  C   UNK N   1      43.358  21.742   3.859  0.00  0.00     0.093 C 
ENDROOT
BRANCH   1   2
HETATM    2  C   UNK N   1      44.786  21.607   3.329  0.00  0.00     0.212 C 
BRANCH   2   3
HETATM    3  C   UNK N   1      45.126  20.126   3.282  0.00  0.00     0.197 C 
BRANCH   3   4
HETATM    4  O   UNK N   1      46.472  19.918   3.588  0.00  0.00    -0.399 OA
HETATM    5  H   UNK N   1      47.267  20.185   3.101  0.00  0.00     0.209 HD
ENDBRANCH   3   4
ENDBRANCH   2   3
BRANCH   2   6
HETATM    6  N   UNK N   1      45.726  22.286   4.209  0.00  0.00    -0.073 N 
HETATM    7  H   UNK N   1      45.845  21.986   5.176  0.00  0.00     0.274 HD
HETATM    8  H   UNK N   1      46.273  23.070   3.853  0.00  0.00     0.274 HD
HETATM    9  H   UNK N   1      46.387  22.767   4.817  0.00  0.00     0.274 HD
ENDBRANCH   2   6
ENDBRANCH   1   2
BRANCH   1  10
HETATM   10  C   UNK N   1      42.371  22.224   2.843  0.00  0.00     0.027 A 
HETATM   11  C   UNK N   1      41.383  21.474   2.255  0.00  0.00     0.114 A 
HETATM   12  N   UNK N   1      40.680  22.287   1.445  0.00  0.00    -0.360 N 
HETATM   13  C   UNK N   1      41.247  23.508   1.561  0.00  0.00     0.180 A 
ATOM     14  HN  UNK N   1      39.882  22.034   0.862  1.00  0.00     0.166 HD
HETATM   15  N   UNK N   1      42.285  23.495   2.418  0.00  0.00    -0.355 N 
HETATM   16  H   UNK N   1      42.858  24.254   2.677  0.00  0.00     0.166 HD
ENDBRANCH   1  10
TORSDOF 5
ENDMDL
MODEL 9
REMARK VINA RESULT:      -3.9      3.916      5.146
REMARK  5 active torsions:
REMARK  status: ('A' for Active; 'I' for Inactive)
REMARK    1  A    between atoms: C_5  and  C_1 
REMARK    2  A    between atoms: C_6  and  C_1 
REMARK    3  A    between atoms: C_5  and  C_3 
REMARK    4  A    between atoms: O_11  and  C_3 
REMARK    5  A    between atoms: C_5  and  N_7 
ROOT
HETATM    1  C   UNK N   1      35.190  17.152  10.147  0.00  0.00     0.093 C 
ENDROOT
BRANCH   1   2
HETATM    2  C   UNK N   1      34.351  16.947   8.885  0.00  0.00     0.212 C 
BRANCH   2   3
HETATM    3  C   UNK N   1      34.399  18.236   8.081  0.00  0.00     0.197 C 
BRANCH   3   4
HETATM    4  O   UNK N   1      35.326  19.125   8.626  0.00  0.00    -0.399 OA
HETATM    5  H   UNK N   1      35.561  20.025   8.348  0.00  0.00     0.209 HD
ENDBRANCH   3   4
ENDBRANCH   2   3
BRANCH   2   6
HETATM    6  N   UNK N   1      32.968  16.651   9.232  0.00  0.00    -0.073 N 
HETATM    7  H   UNK N   1      32.743  16.141  10.086  0.00  0.00     0.274 HD
HETATM    8  H   UNK N   1      32.217  16.957   8.613  0.00  0.00     0.274 HD
HETATM    9  H   UNK N   1      31.997  16.448   9.466  0.00  0.00     0.274 HD
ENDBRANCH   2   6
ENDBRANCH   1   2
BRANCH   1  10
HETATM   10  C   UNK N   1      35.872  15.912  10.636  0.00  0.00     0.027 A 
HETATM   11  C   UNK N   1      35.943  15.488  11.940  0.00  0.00     0.114 A 
HETATM   12  N   UNK N   1      36.590  14.308  11.951  0.00  0.00    -0.360 N 
HETATM   13  C   UNK N   1      36.890  14.037  10.663  0.00  0.00     0.180 A 
ATOM     14  HN  UNK N   1      36.809  13.736  12.766  1.00  0.00     0.166 HD
HETATM   15  N   UNK N   1      36.455  15.006   9.835  0.00  0.00    -0.355 N 
HETATM   16  H   UNK N   1      36.544  15.042   8.855  0.00  0.00     0.166 HD
ENDBRANCH   1  10
TORSDOF 5
ENDMDL
