MODEL 1
REMARK VINA RESULT:      -4.6      0.000      0.000
REMARK  4 active torsions:
REMARK  status: ('A' for Active; 'I' for Inactive)
REMARK    1  A    between atoms: O_1  and  C_2 
REMARK    2  A    between atoms: C_3  and  C_2 
REMARK    3  A    between atoms: C_7  and  O_8 
REMARK    4  A    between atoms: C_9  and  O_10 
ROOT
HETATM    1  C   UNK N   1      33.519  15.950   9.126  0.00  0.00     0.206 C 
HETATM    2  O   UNK N   1      33.363  15.639   7.758  0.00  0.00    -0.275 OA
HETATM    3  N   UNK N   1      32.814  16.737   7.168  0.00  0.00    -0.299 N 
HETATM    4  C   UNK N   1      33.862  17.751   7.030  0.00  0.00     0.180 C 
HETATM    5  C   UNK N   1      34.264  18.203   8.427  0.00  0.00     0.169 C 
HETATM    6  C   UNK N   1      34.651  16.982   9.254  0.00  0.00     0.182 C 
HETATM    7  H   UNK N   1      31.842  16.835   6.873  0.00  0.00     0.187 HD
ENDROOT
BRANCH   1   8
HETATM    8  C   UNK N   1      33.830  14.666   9.885  0.00  0.00     0.201 C 
BRANCH   8   9
HETATM    9  O   UNK N   1      33.506  14.793  11.236  0.00  0.00    -0.398 OA
HETATM   10  H   UNK N   1      32.783  15.337  11.585  0.00  0.00     0.209 HD
ENDBRANCH   8   9
ENDBRANCH   1   8
BRANCH   6  11
HETATM   11  O   UNK N   1      34.839  17.365  10.583  0.00  0.00    -0.390 OA
HETATM   12  H   UNK N   1      34.376  18.104  11.007  0.00  0.00     0.210 HD
ENDBRANCH   6  11
BRANCH   5  13
HETATM   13  O   UNK N   1      35.327  19.105   8.360  0.00  0.00    -0.391 OA
HETATM   14  H   UNK N   1      35.893  19.352   9.108  0.00  0.00     0.210 HD
ENDBRANCH   5  13
TORSDOF 4
ENDMDL
MODEL 2
REMARK VINA RESULT:      -4.5     10.852     11.767
REMARK  4 active torsions:
REMARK  status: ('A' for Active; 'I' for Inactive)
REMARK    1  A    between atoms: O_1  and  C_2 
REMARK    2  A    between atoms: C_3  and  C_2 
REMARK    3  A    between atoms: C_7  and  O_8 
REMARK    4  A    between atoms: C_9  and  O_10 
ROOT
HETATM    1  C   UNK N   1      22.891  12.389  11.601  0.00  0.00     0.206 C 
HETATM    2  O   UNK N   1      21.769  11.834  10.948  0.00  0.00    -0.275 OA
HETATM    3  N   UNK N   1      21.469  12.665   9.912  0.00  0.00    -0.299 N 
HETATM    4  C   UNK N   1      22.454  12.443   8.851  0.00  0.00     0.180 C 
HETATM    5  C   UNK N   1      23.810  12.912   9.364  0.00  0.00     0.169 C 
HETATM    6  C   UNK N   1      24.112  12.212  10.684  0.00  0.00     0.182 C 
HETATM    7  H   UNK N   1      20.693  13.326   9.880  0.00  0.00     0.187 HD
ENDROOT
BRANCH   1   8
HETATM    8  C   UNK N   1      23.074  11.684  12.938  0.00  0.00     0.201 C 
BRANCH   8   9
HETATM    9  O   UNK N   1      23.839  12.458  13.812  0.00  0.00    -0.398 OA
HETATM   10  H   UNK N   1      23.482  12.982  14.546  0.00  0.00     0.209 HD
ENDBRANCH   8   9
ENDBRANCH   1   8
BRANCH   6  11
HETATM   11  O   UNK N   1      25.257  12.771  11.253  0.00  0.00    -0.390 OA
HETATM   12  H   UNK N   1      25.886  13.331  10.771  0.00  0.00     0.210 HD
ENDBRANCH   6  11
BRANCH   5  13
HETATM   13  O   UNK N   1      24.806  12.638   8.426  0.00  0.00    -0.391 OA
HETATM   14  H   UNK N   1      25.751  12.553   8.630  0.00  0.00     0.210 HD
ENDBRANCH   5  13
TORSDOF 4
ENDMDL
MODEL 3
REMARK VINA RESULT:      -4.4      2.592      4.509
REMARK  4 active torsions:
REMARK  status: ('A' for Active; 'I' for Inactive)
REMARK    1  A    between atoms: O_1  and  C_2 
REMARK    2  A    between atoms: C_3  and  C_2 
REMARK    3  A    between atoms: C_7  and  O_8 
REMARK    4  A    between atoms: C_9  and  O_10 
ROOT
HETATM    1  C   UNK N   1      34.877  16.141  10.275  0.00  0.00     0.206 C 
HETATM    2  O   UNK N   1      36.236  15.842  10.036  0.00  0.00    -0.275 OA
HETATM    3  N   UNK N   1      36.803  15.600  11.250  0.00  0.00    -0.299 N 
HETATM    4  C   UNK N   1      36.375  14.272  11.696  0.00  0.00     0.180 C 
HETATM    5  C   UNK N   1      34.875  14.324  11.954  0.00  0.00     0.169 C 
HETATM    6  C   UNK N   1      34.172  14.845  10.705  0.00  0.00     0.182 C 
HETATM    7  H   UNK N   1      37.418  16.234  11.761  0.00  0.00     0.187 HD
ENDROOT
BRANCH   1   8
HETATM    8  C   UNK N   1      34.275  16.722   9.002  0.00  0.00     0.201 C 
BRANCH   8   9
HETATM    9  O   UNK N   1      33.008  17.253   9.245  0.00  0.00    -0.398 OA
HETATM   10  H   UNK N   1      32.205  16.729   9.390  0.00  0.00     0.209 HD
ENDBRANCH   8   9
ENDBRANCH   1   8
BRANCH   6  11
HETATM   11  O   UNK N   1      32.826  15.072  10.993  0.00  0.00    -0.390 OA
HETATM   12  H   UNK N   1      32.463  15.935  11.248  0.00  0.00     0.210 HD
ENDBRANCH   6  11
BRANCH   5  13
HETATM   13  O   UNK N   1      34.396  13.058  12.293  0.00  0.00    -0.391 OA
HETATM   14  H   UNK N   1      33.779  12.875  13.020  0.00  0.00     0.210 HD
ENDBRANCH   5  13
TORSDOF 4
ENDMDL
MODEL 4
REMARK VINA RESULT:      -4.3      0.965      3.345
REMARK  4 active torsions:
REMARK  status: ('A' for Active; 'I' for Inactive)
REMARK    1  A    between atoms: O_1  and  C_2 
REMARK    2  A    between atoms: C_3  and  C_2 
REMARK    3  A    between atoms: C_7  and  O_8 
REMARK    4  A    between atoms: C_9  and  O_10 
ROOT
HETATM    1  C   UNK N   1      34.442  16.910   8.310  0.00  0.00     0.206 C 
HETATM    2  O   UNK N   1      33.534  16.194   7.501  0.00  0.00    -0.275 OA
HETATM    3  N   UNK N   1      33.838  14.874   7.644  0.00  0.00    -0.299 N 
HETATM    4  C   UNK N   1      33.341  14.432   8.950  0.00  0.00     0.180 C 
HETATM    5  C   UNK N   1      34.146  15.151  10.025  0.00  0.00     0.169 C 
HETATM    6  C   UNK N   1      34.073  16.654   9.781  0.00  0.00     0.182 C 
HETATM    7  H   UNK N   1      34.326  14.294   6.961  0.00  0.00     0.187 HD
ENDROOT
BRANCH   1   8
HETATM    8  C   UNK N   1      34.356  18.387   7.950  0.00  0.00     0.201 C 
BRANCH   8   9
HETATM    9  O   UNK N   1      35.368  19.114   8.577  0.00  0.00    -0.398 OA
HETATM   10  H   UNK N   1      35.239  19.702   9.338  0.00  0.00     0.209 HD
ENDBRANCH   8   9
ENDBRANCH   1   8
BRANCH   6  11
HETATM   11  O   UNK N   1      34.955  17.306  10.644  0.00  0.00    -0.390 OA
HETATM   12  H   UNK N   1      34.829  18.212  10.967  0.00  0.00     0.210 HD
ENDBRANCH   6  11
BRANCH   5  13
HETATM   13  O   UNK N   1      33.653  14.837  11.292  0.00  0.00    -0.391 OA
HETATM   14  H   UNK N   1      34.123  14.305  11.954  0.00  0.00     0.210 HD
ENDBRANCH   5  13
TORSDOF 4
ENDMDL
MODEL 5
REMARK VINA RESULT:      -4.2      2.747      4.437
REMARK  4 active torsions:
REMARK  status: ('A' for Active; 'I' for Inactive)
REMARK    1  A    between atoms: O_1  and  C_2 
REMARK    2  A    between atoms: C_3  and  C_2 
REMARK    3  A    between atoms: C_7  and  O_8 
REMARK    4  A    between atoms: C_9  and  O_10 
ROOT
HETATM    1  C   UNK N   1      35.053  15.347   9.961  0.00  0.00     0.206 C 
HETATM    2  O   UNK N   1      33.848  14.834  10.488  0.00  0.00    -0.275 OA
HETATM    3  N   UNK N   1      34.056  13.509  10.722  0.00  0.00    -0.299 N 
HETATM    4  C   UNK N   1      34.877  13.384  11.929  0.00  0.00     0.180 C 
HETATM    5  C   UNK N   1      36.253  13.960  11.621  0.00  0.00     0.169 C 
HETATM    6  C   UNK N   1      36.092  15.381  11.094  0.00  0.00     0.182 C 
HETATM    7  H   UNK N   1      33.701  12.738  10.156  0.00  0.00     0.187 HD
ENDROOT
BRANCH   1   8
HETATM    8  C   UNK N   1      34.784  16.734   9.392  0.00  0.00     0.201 C 
BRANCH   8   9
HETATM    9  O   UNK N   1      35.424  17.717  10.148  0.00  0.00    -0.398 OA
HETATM   10  H   UNK N   1      35.711  17.611  11.068  0.00  0.00     0.209 HD
ENDBRANCH   8   9
ENDBRANCH   1   8
BRANCH   6  11
HETATM   11  O   UNK N   1      37.325  15.848  10.635  0.00  0.00    -0.390 OA
HETATM   12  H   UNK N   1      37.589  15.860   9.702  0.00  0.00     0.210 HD
ENDBRANCH   6  11
BRANCH   5  13
HETATM   13  O   UNK N   1      37.051  13.951  12.766  0.00  0.00    -0.391 OA
HETATM   14  H   UNK N   1      37.060  13.244  13.430  0.00  0.00     0.210 HD
ENDBRANCH   5  13
TORSDOF 4
ENDMDL
MODEL 6
REMARK VINA RESULT:      -4.2      2.134      4.011
REMARK  4 active torsions:
REMARK  status: ('A' for Active; 'I' for Inactive)
REMARK    1  A    between atoms: O_1  and  C_2 
REMARK    2  A    between atoms: C_3  and  C_2 
REMARK    3  A    between atoms: C_7  and  O_8 
REMARK    4  A    between atoms: C_9  and  O_10 
ROOT
HETATM    1  C   UNK N   1      34.216  17.232   8.989  0.00  0.00     0.206 C 
HETATM    2  O   UNK N   1      35.223  17.766   9.821  0.00  0.00    -0.275 OA
HETATM    3  N   UNK N   1      35.266  16.984  10.935  0.00  0.00    -0.299 N 
HETATM    4  C   UNK N   1      35.935  15.729  10.584  0.00  0.00     0.180 C 
HETATM    5  C   UNK N   1      35.044  14.982   9.601  0.00  0.00     0.169 C 
HETATM    6  C   UNK N   1      34.725  15.896   8.423  0.00  0.00     0.182 C 
HETATM    7  H   UNK N   1      34.897  17.230  11.854  0.00  0.00     0.187 HD
ENDROOT
BRANCH   1   8
HETATM    8  C   UNK N   1      33.910  18.238   7.887  0.00  0.00     0.201 C 
BRANCH   8   9
HETATM    9  O   UNK N   1      34.549  17.886   6.698  0.00  0.00    -0.398 OA
HETATM   10  H   UNK N   1      35.311  18.352   6.319  0.00  0.00     0.209 HD
ENDBRANCH   8   9
ENDBRANCH   1   8
BRANCH   6  11
HETATM   11  O   UNK N   1      33.763  15.289   7.614  0.00  0.00    -0.390 OA
HETATM   12  H   UNK N   1      33.968  14.783   6.813  0.00  0.00     0.210 HD
ENDBRANCH   6  11
BRANCH   5  13
HETATM   13  O   UNK N   1      35.676  13.818   9.160  0.00  0.00    -0.391 OA
HETATM   14  H   UNK N   1      36.438  13.794   8.560  0.00  0.00     0.210 HD
ENDBRANCH   5  13
TORSDOF 4
ENDMDL
MODEL 7
REMARK VINA RESULT:      -4.2     11.396     12.551
REMARK  4 active torsions:
REMARK  status: ('A' for Active; 'I' for Inactive)
REMARK    1  A    between atoms: O_1  and  C_2 
REMARK    2  A    between atoms: C_3  and  C_2 
REMARK    3  A    between atoms: C_7  and  O_8 
REMARK    4  A    between atoms: C_9  and  O_10 
ROOT
HETATM    1  C   UNK N   1      22.040  12.512   9.595  0.00  0.00     0.206 C 
HETATM    2  O   UNK N   1      21.268  12.632  10.770  0.00  0.00    -0.275 OA
HETATM    3  N   UNK N   1      21.679  11.644  11.612  0.00  0.00    -0.299 N 
HETATM    4  C   UNK N   1      22.973  12.035  12.176  0.00  0.00     0.180 C 
HETATM    5  C   UNK N   1      23.992  12.052  11.044  0.00  0.00     0.169 C 
HETATM    6  C   UNK N   1      23.478  12.947   9.923  0.00  0.00     0.182 C 
HETATM    7  H   UNK N   1      21.173  10.781  11.814  0.00  0.00     0.187 HD
ENDROOT
BRANCH   1   8
HETATM    8  C   UNK N   1      21.415  13.380   8.511  0.00  0.00     0.201 C 
BRANCH   8   9
HETATM    9  O   UNK N   1      20.796  12.595   7.537  0.00  0.00    -0.398 OA
HETATM   10  H   UNK N   1      20.584  11.654   7.635  0.00  0.00     0.209 HD
ENDBRANCH   8   9
ENDBRANCH   1   8
BRANCH   6  11
HETATM   11  O   UNK N   1      24.311  12.821   8.810  0.00  0.00    -0.390 OA
HETATM   12  H   UNK N   1      24.423  13.508   8.135  0.00  0.00     0.210 HD
ENDBRANCH   6  11
BRANCH   5  13
HETATM   13  O   UNK N   1      25.226  12.508  11.507  0.00  0.00    -0.391 OA
HETATM   14  H   UNK N   1      25.526  12.459  12.429  0.00  0.00     0.210 HD
ENDBRANCH   5  13
TORSDOF 4
ENDMDL
MODEL 8
REMARK VINA RESULT:      -4.1     11.701     12.957
REMARK  4 active torsions:
REMARK  status: ('A' for Active; 'I' for Inactive)
REMARK    1  A    between atoms: O_1  and  C_2 
REMARK    2  A    between atoms: C_3  and  C_2 
REMARK    3  A    between atoms: C_7  and  O_8 
REMARK    4  A    between atoms: C_9  and  O_10 
ROOT
HETATM    1  C   UNK N   1      22.269  13.059   9.820  0.00  0.00     0.206 C 
HETATM    2  O   UNK N   1      23.574  12.702   9.418  0.00  0.00    -0.275 OA
HETATM    3  N   UNK N   1      24.401  13.011  10.455  0.00  0.00    -0.299 N 
HETATM    4  C   UNK N   1      24.223  11.998  11.497  0.00  0.00     0.180 C 
HETATM    5  C   UNK N   1      22.811  12.138  12.052  0.00  0.00     0.169 C 
HETATM    6  C   UNK N   1      21.815  12.064  10.901  0.00  0.00     0.182 C 
HETATM    7  H   UNK N   1      25.034  13.810  10.497  0.00  0.00     0.187 HD
ENDROOT
BRANCH   1   8
HETATM    8  C   UNK N   1      21.358  13.030   8.600  0.00  0.00     0.201 C 
BRANCH   8   9
HETATM    9  O   UNK N   1      20.196  13.768   8.825  0.00  0.00    -0.398 OA
HETATM   10  H   UNK N   1      19.938  14.561   8.330  0.00  0.00     0.209 HD
ENDBRANCH   8   9
ENDBRANCH   1   8
BRANCH   6  11
HETATM   11  O   UNK N   1      20.539  12.378  11.373  0.00  0.00    -0.390 OA
HETATM   12  H   UNK N   1      19.963  13.051  10.978  0.00  0.00     0.210 HD
ENDBRANCH   6  11
BRANCH   5  13
HETATM   13  O   UNK N   1      22.554  11.135  12.987  0.00  0.00    -0.391 OA
HETATM   14  H   UNK N   1      23.235  10.619  13.449  0.00  0.00     0.210 HD
ENDBRANCH   5  13
TORSDOF 4
ENDMDL
MODEL 9
REMARK VINA RESULT:      -4.1      2.192      3.487
REMARK  4 active torsions:
REMARK  status: ('A' for Active; 'I' for Inactive)
REMARK    1  A    between atoms: O_1  and  C_2 
REMARK    2  A    between atoms: C_3  and  C_2 
REMARK    3  A    between atoms: C_7  and  O_8 
REMARK    4  A    between atoms: C_9  and  O_10 
ROOT
HETATM    1  C   UNK N   1      33.963  17.292   7.719  0.00  0.00     0.206 C 
HETATM    2  O   UNK N   1      34.387  17.802   6.473  0.00  0.00    -0.275 OA
HETATM    3  N   UNK N   1      33.821  17.017   5.515  0.00  0.00    -0.299 N 
HETATM    4  C   UNK N   1      32.405  17.375   5.411  0.00  0.00     0.180 C 
HETATM    5  C   UNK N   1      31.724  16.976   6.714  0.00  0.00     0.169 C 
HETATM    6  C   UNK N   1      32.468  17.614   7.881  0.00  0.00     0.182 C 
HETATM    7  H   UNK N   1      34.301  16.304   4.965  0.00  0.00     0.187 HD
ENDROOT
BRANCH   1   8
HETATM    8  C   UNK N   1      34.806  17.925   8.817  0.00  0.00     0.201 C 
BRANCH   8   9
HETATM    9  O   UNK N   1      35.248  19.194   8.440  0.00  0.00    -0.398 OA
HETATM   10  H   UNK N   1      35.063  19.614   7.585  0.00  0.00     0.209 HD
ENDBRANCH   8   9
ENDBRANCH   1   8
BRANCH   6  11
HETATM   11  O   UNK N   1      31.969  17.106   9.082  0.00  0.00    -0.390 OA
HETATM   12  H   UNK N   1      31.562  17.649   9.774  0.00  0.00     0.210 HD
ENDBRANCH   6  11
BRANCH   5  13
HETATM   13  O   UNK N   1      30.388  17.378   6.708  0.00  0.00    -0.391 OA
HETATM   14  H   UNK N   1      30.064  18.232   7.037  0.00  0.00     0.210 HD
ENDBRANCH   5  13
TORSDOF 4
ENDMDL
