MODEL 1
REMARK VINA RESULT:      -4.8      0.000      0.000
REMARK  13 active torsions:
REMARK  status: ('A' for Active; 'I' for Inactive)
REMARK    1  A    between atoms: C_6  and  C_5 
REMARK    2  A    between atoms: C_7  and  C_6 
REMARK    3  A    between atoms: C_8  and  C_7 
REMARK    4  A    between atoms: C_9  and  C_8 
REMARK    5  A    between atoms: C_10  and  C_9 
REMARK    6  A    between atoms: C_15  and  C_10 
REMARK    7  A    between atoms: C_13  and  C_11 
REMARK    8  A    between atoms: C_14  and  C_11 
REMARK    9  A    between atoms: C_13  and  C_12 
REMARK   10  A    between atoms: N_16  and  C_12 
REMARK   11  A    between atoms: C_13  and  O_20 
REMARK   12  A    between atoms: O_18  and  C_14 
REMARK   13  A    between atoms: O_20  and  C_15 
ROOT
HETATM    1  C   UNK N   1      31.093  21.403  -4.393  0.00  0.00     0.167 C 
ENDROOT
BRANCH   1   2
HETATM    2  C   UNK N   1      32.244  20.409  -4.232  0.00  0.00     0.144 C 
BRANCH   2   3
HETATM    3  C   UNK N   1      33.285  20.897  -3.265  0.00  0.00     0.141 C 
HETATM    4  O   UNK N   1      34.422  21.106  -3.654  0.00  0.00    -0.650 OA
BRANCH   3   5
HETATM    5  O   UNK N   1      32.971  21.111  -1.973  0.00  0.00    -0.776 OA
HETATM    6  H   UNK N   1      33.570  21.369  -1.300  0.00  0.00     0.167 HD
ENDBRANCH   3   5
ENDBRANCH   2   3
ENDBRANCH   1   2
BRANCH   1   7
HETATM    7  C   UNK N   1      30.153  21.064  -5.577  0.00  0.00     0.268 C 
BRANCH   7   8
HETATM    8  N   UNK N   1      29.971  22.098  -6.613  0.00  0.00    -0.076 N 
HETATM    9  C   UNK N   1      30.227  21.473  -7.897  0.00  0.00     0.271 C 
HETATM   10  C   UNK N   1      30.912  23.200  -6.482  0.00  0.00     0.271 C 
HETATM   11  C   UNK N   1      28.614  22.619  -6.641  0.00  0.00     0.271 C 
ENDBRANCH   7   8
ENDBRANCH   1   7
BRANCH   1  12
HETATM   12  O   UNK N   1      30.343  21.460  -3.234  0.00  0.00    -0.314 OA
BRANCH  12  13
HETATM   13  C   UNK N   1      30.011  22.599  -2.578  0.00  0.00     0.259 C 
HETATM   14  O   UNK N   1      30.688  23.012  -1.646  0.00  0.00    -0.265 OA
BRANCH  13  15
HETATM   15  C   UNK N   1      28.848  23.396  -3.067  0.00  0.00     0.111 C 
BRANCH  15  16
HETATM   16  C   UNK N   1      29.290  24.739  -3.597  0.00  0.00     0.010 C 
BRANCH  16  17
HETATM   17  C   UNK N   1      28.111  25.427  -4.249  0.00  0.00     0.000 C 
BRANCH  17  18
HETATM   18  C   UNK N   1      26.841  24.802  -3.718  0.00  0.00     0.000 C 
BRANCH  18  19
HETATM   19  C   UNK N   1      25.825  24.693  -4.833  0.00  0.00    -0.000 C 
BRANCH  19  20
HETATM   20  C   UNK N   1      26.022  25.849  -5.788  0.00  0.00    -0.005 C 
HETATM   21  C   UNK N   1      24.873  26.823  -5.643  0.00  0.00     0.005 C 
ENDBRANCH  19  20
ENDBRANCH  18  19
ENDBRANCH  17  18
ENDBRANCH  16  17
ENDBRANCH  15  16
ENDBRANCH  13  15
ENDBRANCH  12  13
ENDBRANCH   1  12
TORSDOF 13
ENDMDL
MODEL 2
REMARK VINA RESULT:      -4.8      2.333      3.373
REMARK  13 active torsions:
REMARK  status: ('A' for Active; 'I' for Inactive)
REMARK    1  A    between atoms: C_6  and  C_5 
REMARK    2  A    between atoms: C_7  and  C_6 
REMARK    3  A    between atoms: C_8  and  C_7 
REMARK    4  A    between atoms: C_9  and  C_8 
REMARK    5  A    between atoms: C_10  and  C_9 
REMARK    6  A    between atoms: C_15  and  C_10 
REMARK    7  A    between atoms: C_13  and  C_11 
REMARK    8  A    between atoms: C_14  and  C_11 
REMARK    9  A    between atoms: C_13  and  C_12 
REMARK   10  A    between atoms: N_16  and  C_12 
REMARK   11  A    between atoms: C_13  and  O_20 
REMARK   12  A    between atoms: O_18  and  C_14 
REMARK   13  A    between atoms: O_20  and  C_15 
ROOT
HETATM    1  C   UNK N   1      29.566  24.165  -4.163  0.00  0.00     0.167 C 
ENDROOT
BRANCH   1   2
HETATM    2  C   UNK N   1      30.931  24.026  -3.487  0.00  0.00     0.144 C 
BRANCH   2   3
HETATM    3  C   UNK N   1      30.928  22.978  -2.411  0.00  0.00     0.141 C 
HETATM    4  O   UNK N   1      31.646  21.998  -2.518  0.00  0.00    -0.650 OA
BRANCH   3   5
HETATM    5  O   UNK N   1      30.143  23.115  -1.325  0.00  0.00    -0.776 OA
HETATM    6  H   UNK N   1      29.324  23.570  -1.296  0.00  0.00     0.167 HD
ENDBRANCH   3   5
ENDBRANCH   2   3
ENDBRANCH   1   2
BRANCH   1   7
HETATM    7  C   UNK N   1      29.215  22.970  -5.085  0.00  0.00     0.268 C 
BRANCH   7   8
HETATM    8  N   UNK N   1      28.829  23.279  -6.474  0.00  0.00    -0.076 N 
HETATM    9  C   UNK N   1      29.644  22.452  -7.343  0.00  0.00     0.271 C 
HETATM   10  C   UNK N   1      29.090  24.663  -6.838  0.00  0.00     0.271 C 
HETATM   11  C   UNK N   1      27.437  22.960  -6.745  0.00  0.00     0.271 C 
ENDBRANCH   7   8
ENDBRANCH   1   7
BRANCH   1  12
HETATM   12  O   UNK N   1      28.572  24.299  -3.212  0.00  0.00    -0.314 OA
BRANCH  12  13
HETATM   13  C   UNK N   1      27.306  24.713  -3.464  0.00  0.00     0.259 C 
HETATM   14  O   UNK N   1      26.345  24.000  -3.203  0.00  0.00    -0.265 OA
BRANCH  13  15
HETATM   15  C   UNK N   1      27.092  26.093  -3.989  0.00  0.00     0.111 C 
BRANCH  15  16
HETATM   16  C   UNK N   1      26.223  26.903  -3.056  0.00  0.00     0.010 C 
BRANCH  16  17
HETATM   17  C   UNK N   1      25.690  28.109  -3.798  0.00  0.00     0.000 C 
BRANCH  17  18
HETATM   18  C   UNK N   1      26.360  28.171  -5.152  0.00  0.00     0.000 C 
BRANCH  18  19
HETATM   19  C   UNK N   1      27.169  29.443  -5.259  0.00  0.00    -0.000 C 
BRANCH  19  20
HETATM   20  C   UNK N   1      28.262  29.242  -6.286  0.00  0.00    -0.005 C 
HETATM   21  C   UNK N   1      27.849  28.157  -7.256  0.00  0.00     0.005 C 
ENDBRANCH  19  20
ENDBRANCH  18  19
ENDBRANCH  17  18
ENDBRANCH  16  17
ENDBRANCH  15  16
ENDBRANCH  13  15
ENDBRANCH  12  13
ENDBRANCH   1  12
TORSDOF 13
ENDMDL
MODEL 3
REMARK VINA RESULT:      -4.7     11.313     13.465
REMARK  13 active torsions:
REMARK  status: ('A' for Active; 'I' for Inactive)
REMARK    1  A    between atoms: C_6  and  C_5 
REMARK    2  A    between atoms: C_7  and  C_6 
REMARK    3  A    between atoms: C_8  and  C_7 
REMARK    4  A    between atoms: C_9  and  C_8 
REMARK    5  A    between atoms: C_10  and  C_9 
REMARK    6  A    between atoms: C_15  and  C_10 
REMARK    7  A    between atoms: C_13  and  C_11 
REMARK    8  A    between atoms: C_14  and  C_11 
REMARK    9  A    between atoms: C_13  and  C_12 
REMARK   10  A    between atoms: N_16  and  C_12 
REMARK   11  A    between atoms: C_13  and  O_20 
REMARK   12  A    between atoms: O_18  and  C_14 
REMARK   13  A    between atoms: O_20  and  C_15 
ROOT
HETATM    1  C   UNK N   1      33.620  16.966   5.793  0.00  0.00     0.167 C 
ENDROOT
BRANCH   1   2
HETATM    2  C   UNK N   1      33.027  17.476   4.479  0.00  0.00     0.144 C 
BRANCH   2   3
HETATM    3  C   UNK N   1      32.696  16.358   3.532  0.00  0.00     0.141 C 
HETATM    4  O   UNK N   1      33.365  16.199   2.526  0.00  0.00    -0.650 OA
BRANCH   3   5
HETATM    5  O   UNK N   1      31.669  15.525   3.790  0.00  0.00    -0.776 OA
HETATM    6  H   UNK N   1      31.492  14.720   3.344  0.00  0.00     0.167 HD
ENDBRANCH   3   5
ENDBRANCH   2   3
ENDBRANCH   1   2
BRANCH   1   7
HETATM    7  C   UNK N   1      34.614  15.794   5.601  0.00  0.00     0.268 C 
BRANCH   7   8
HETATM    8  N   UNK N   1      34.387  14.577   6.400  0.00  0.00    -0.076 N 
HETATM    9  C   UNK N   1      33.007  14.603   6.846  0.00  0.00     0.271 C 
HETATM   10  C   UNK N   1      35.216  14.523   7.595  0.00  0.00     0.271 C 
HETATM   11  C   UNK N   1      34.573  13.362   5.624  0.00  0.00     0.271 C 
ENDBRANCH   7   8
ENDBRANCH   1   7
BRANCH   1  12
HETATM   12  O   UNK N   1      34.266  17.992   6.457  0.00  0.00    -0.314 OA
BRANCH  12  13
HETATM   13  C   UNK N   1      34.186  18.227   7.789  0.00  0.00     0.259 C 
HETATM   14  O   UNK N   1      34.965  18.991   8.344  0.00  0.00    -0.265 OA
BRANCH  13  15
HETATM   15  C   UNK N   1      33.073  17.605   8.563  0.00  0.00     0.111 C 
BRANCH  15  16
HETATM   16  C   UNK N   1      31.814  18.434   8.473  0.00  0.00     0.010 C 
BRANCH  16  17
HETATM   17  C   UNK N   1      30.622  17.565   8.808  0.00  0.00     0.000 C 
BRANCH  17  18
HETATM   18  C   UNK N   1      29.648  18.384   9.624  0.00  0.00     0.000 C 
BRANCH  18  19
HETATM   19  C   UNK N   1      28.237  18.103   9.160  0.00  0.00    -0.000 C 
BRANCH  19  20
HETATM   20  C   UNK N   1      28.212  18.096   7.647  0.00  0.00    -0.005 C 
HETATM   21  C   UNK N   1      27.876  19.483   7.144  0.00  0.00     0.005 C 
ENDBRANCH  19  20
ENDBRANCH  18  19
ENDBRANCH  17  18
ENDBRANCH  16  17
ENDBRANCH  15  16
ENDBRANCH  13  15
ENDBRANCH  12  13
ENDBRANCH   1  12
TORSDOF 13
ENDMDL
MODEL 4
REMARK VINA RESULT:      -4.7     18.565     21.547
REMARK  13 active torsions:
REMARK  status: ('A' for Active; 'I' for Inactive)
REMARK    1  A    between atoms: C_6  and  C_5 
REMARK    2  A    between atoms: C_7  and  C_6 
REMARK    3  A    between atoms: C_8  and  C_7 
REMARK    4  A    between atoms: C_9  and  C_8 
REMARK    5  A    between atoms: C_10  and  C_9 
REMARK    6  A    between atoms: C_15  and  C_10 
REMARK    7  A    between atoms: C_13  and  C_11 
REMARK    8  A    between atoms: C_14  and  C_11 
REMARK    9  A    between atoms: C_13  and  C_12 
REMARK   10  A    between atoms: N_16  and  C_12 
REMARK   11  A    between atoms: C_13  and  O_20 
REMARK   12  A    between atoms: O_18  and  C_14 
REMARK   13  A    between atoms: O_20  and  C_15 
ROOT
HETATM    1  C   UNK N   1      36.497  13.870  11.426  0.00  0.00     0.167 C 
ENDROOT
BRANCH   1   2
HETATM    2  C   UNK N   1      36.440  15.159  10.604  0.00  0.00     0.144 C 
BRANCH   2   3
HETATM    3  C   UNK N   1      35.227  15.985  10.925  0.00  0.00     0.141 C 
HETATM    4  O   UNK N   1      35.251  17.191  10.748  0.00  0.00    -0.650 OA
BRANCH   3   5
HETATM    5  O   UNK N   1      34.110  15.402  11.400  0.00  0.00    -0.776 OA
HETATM    6  H   UNK N   1      33.237  15.568  11.103  0.00  0.00     0.167 HD
ENDBRANCH   3   5
ENDBRANCH   2   3
ENDBRANCH   1   2
BRANCH   1   7
HETATM    7  C   UNK N   1      37.632  12.913  10.984  0.00  0.00     0.268 C 
BRANCH   7   8
HETATM    8  N   UNK N   1      37.235  11.610  10.419  0.00  0.00    -0.076 N 
HETATM    9  C   UNK N   1      37.761  10.581  11.295  0.00  0.00     0.271 C 
HETATM   10  C   UNK N   1      37.799  11.372   9.099  0.00  0.00     0.271 C 
HETATM   11  C   UNK N   1      35.792  11.446  10.367  0.00  0.00     0.271 C 
ENDBRANCH   7   8
ENDBRANCH   1   7
BRANCH   1  12
HETATM   12  O   UNK N   1      36.661  14.163  12.767  0.00  0.00    -0.314 OA
BRANCH  12  13
HETATM   13  C   UNK N   1      35.925  13.632  13.774  0.00  0.00     0.259 C 
HETATM   14  O   UNK N   1      34.709  13.527  13.681  0.00  0.00    -0.265 OA
BRANCH  13  15
HETATM   15  C   UNK N   1      36.632  13.094  14.972  0.00  0.00     0.111 C 
BRANCH  15  16
HETATM   16  C   UNK N   1      35.979  13.566  16.250  0.00  0.00     0.010 C 
BRANCH  16  17
HETATM   17  C   UNK N   1      35.101  12.462  16.795  0.00  0.00     0.000 C 
BRANCH  17  18
HETATM   18  C   UNK N   1      35.883  11.169  16.761  0.00  0.00     0.000 C 
BRANCH  18  19
HETATM   19  C   UNK N   1      34.965  10.031  16.380  0.00  0.00    -0.000 C 
BRANCH  19  20
HETATM   20  C   UNK N   1      34.085  10.476  15.233  0.00  0.00    -0.005 C 
HETATM   21  C   UNK N   1      34.674   9.988  13.927  0.00  0.00     0.005 C 
ENDBRANCH  19  20
ENDBRANCH  18  19
ENDBRANCH  17  18
ENDBRANCH  16  17
ENDBRANCH  15  16
ENDBRANCH  13  15
ENDBRANCH  12  13
ENDBRANCH   1  12
TORSDOF 13
ENDMDL
MODEL 5
REMARK VINA RESULT:      -4.7     12.101     14.881
REMARK  13 active torsions:
REMARK  status: ('A' for Active; 'I' for Inactive)
REMARK    1  A    between atoms: C_6  and  C_5 
REMARK    2  A    between atoms: C_7  and  C_6 
REMARK    3  A    between atoms: C_8  and  C_7 
REMARK    4  A    between atoms: C_9  and  C_8 
REMARK    5  A    between atoms: C_10  and  C_9 
REMARK    6  A    between atoms: C_15  and  C_10 
REMARK    7  A    between atoms: C_13  and  C_11 
REMARK    8  A    between atoms: C_14  and  C_11 
REMARK    9  A    between atoms: C_13  and  C_12 
REMARK   10  A    between atoms: N_16  and  C_12 
REMARK   11  A    between atoms: C_13  and  O_20 
REMARK   12  A    between atoms: O_18  and  C_14 
REMARK   13  A    between atoms: O_20  and  C_15 
ROOT
HETATM    1  C   UNK N   1      33.395  16.024   8.575  0.00  0.00     0.167 C 
ENDROOT
BRANCH   1   2
HETATM    2  C   UNK N   1      33.276  17.548   8.620  0.00  0.00     0.144 C 
BRANCH   2   3
HETATM    3  C   UNK N   1      34.395  18.229   7.884  0.00  0.00     0.141 C 
HETATM    4  O   UNK N   1      34.580  17.984   6.704  0.00  0.00    -0.650 OA
BRANCH   3   5
HETATM    5  O   UNK N   1      35.191  19.112   8.516  0.00  0.00    -0.776 OA
HETATM    6  H   UNK N   1      35.063  19.441   9.384  0.00  0.00     0.167 HD
ENDBRANCH   3   5
ENDBRANCH   2   3
ENDBRANCH   1   2
BRANCH   1   7
HETATM    7  C   UNK N   1      33.530  15.379   9.976  0.00  0.00     0.268 C 
BRANCH   7   8
HETATM    8  N   UNK N   1      34.890  15.057  10.444  0.00  0.00    -0.076 N 
HETATM    9  C   UNK N   1      35.387  16.215  11.162  0.00  0.00     0.271 C 
HETATM   10  C   UNK N   1      35.818  14.804   9.352  0.00  0.00     0.271 C 
HETATM   11  C   UNK N   1      34.906  13.931  11.365  0.00  0.00     0.271 C 
ENDBRANCH   7   8
ENDBRANCH   1   7
BRANCH   1  12
HETATM   12  O   UNK N   1      32.298  15.477   7.937  0.00  0.00    -0.314 OA
BRANCH  12  13
HETATM   13  C   UNK N   1      32.356  14.613   6.895  0.00  0.00     0.259 C 
HETATM   14  O   UNK N   1      31.336  14.151   6.399  0.00  0.00    -0.265 OA
BRANCH  13  15
HETATM   15  C   UNK N   1      33.685  14.295   6.299  0.00  0.00     0.111 C 
BRANCH  15  16
HETATM   16  C   UNK N   1      33.603  14.208   4.793  0.00  0.00     0.010 C 
BRANCH  16  17
HETATM   17  C   UNK N   1      33.796  15.588   4.206  0.00  0.00     0.000 C 
BRANCH  17  18
HETATM   18  C   UNK N   1      32.944  15.702   2.962  0.00  0.00     0.000 C 
BRANCH  18  19
HETATM   19  C   UNK N   1      32.220  17.028   2.963  0.00  0.00    -0.000 C 
BRANCH  19  20
HETATM   20  C   UNK N   1      32.116  17.527   4.387  0.00  0.00    -0.005 C 
HETATM   21  C   UNK N   1      30.695  17.358   4.878  0.00  0.00     0.005 C 
ENDBRANCH  19  20
ENDBRANCH  18  19
ENDBRANCH  17  18
ENDBRANCH  16  17
ENDBRANCH  15  16
ENDBRANCH  13  15
ENDBRANCH  12  13
ENDBRANCH   1  12
TORSDOF 13
ENDMDL
MODEL 6
REMARK VINA RESULT:      -4.6     12.713     15.320
REMARK  13 active torsions:
REMARK  status: ('A' for Active; 'I' for Inactive)
REMARK    1  A    between atoms: C_6  and  C_5 
REMARK    2  A    between atoms: C_7  and  C_6 
REMARK    3  A    between atoms: C_8  and  C_7 
REMARK    4  A    between atoms: C_9  and  C_8 
REMARK    5  A    between atoms: C_10  and  C_9 
REMARK    6  A    between atoms: C_15  and  C_10 
REMARK    7  A    between atoms: C_13  and  C_11 
REMARK    8  A    between atoms: C_14  and  C_11 
REMARK    9  A    between atoms: C_13  and  C_12 
REMARK   10  A    between atoms: N_16  and  C_12 
REMARK   11  A    between atoms: C_13  and  O_20 
REMARK   12  A    between atoms: O_18  and  C_14 
REMARK   13  A    between atoms: O_20  and  C_15 
ROOT
HETATM    1  C   UNK N   1      34.819  16.160   9.658  0.00  0.00     0.167 C 
ENDROOT
BRANCH   1   2
HETATM    2  C   UNK N   1      35.185  16.122  11.142  0.00  0.00     0.144 C 
BRANCH   2   3
HETATM    3  C   UNK N   1      35.437  14.724  11.630  0.00  0.00     0.141 C 
HETATM    4  O   UNK N   1      36.506  14.185  11.399  0.00  0.00    -0.650 OA
BRANCH   3   5
HETATM    5  O   UNK N   1      34.493  14.062  12.327  0.00  0.00    -0.776 OA
HETATM    6  H   UNK N   1      34.395  13.131  12.369  0.00  0.00     0.167 HD
ENDBRANCH   3   5
ENDBRANCH   2   3
ENDBRANCH   1   2
BRANCH   1   7
HETATM    7  C   UNK N   1      33.925  14.975   9.217  0.00  0.00     0.268 C 
BRANCH   7   8
HETATM    8  N   UNK N   1      34.472  14.056   8.202  0.00  0.00    -0.076 N 
HETATM    9  C   UNK N   1      33.526  14.013   7.104  0.00  0.00     0.271 C 
HETATM   10  C   UNK N   1      34.614  12.693   8.693  0.00  0.00     0.271 C 
HETATM   11  C   UNK N   1      35.744  14.515   7.668  0.00  0.00     0.271 C 
ENDBRANCH   7   8
ENDBRANCH   1   7
BRANCH   1  12
HETATM   12  O   UNK N   1      34.171  17.343   9.354  0.00  0.00    -0.314 OA
BRANCH  12  13
HETATM   13  C   UNK N   1      34.482  18.155   8.315  0.00  0.00     0.259 C 
HETATM   14  O   UNK N   1      35.240  19.106   8.461  0.00  0.00    -0.265 OA
BRANCH  13  15
HETATM   15  C   UNK N   1      33.955  17.822   6.961  0.00  0.00     0.111 C 
BRANCH  15  16
HETATM   16  C   UNK N   1      32.477  17.512   7.010  0.00  0.00     0.010 C 
BRANCH  16  17
HETATM   17  C   UNK N   1      32.003  17.134   5.625  0.00  0.00     0.000 C 
BRANCH  17  18
HETATM   18  C   UNK N   1      33.012  17.644   4.620  0.00  0.00     0.000 C 
BRANCH  18  19
HETATM   19  C   UNK N   1      32.746  17.014   3.272  0.00  0.00    -0.000 C 
BRANCH  19  20
HETATM   20  C   UNK N   1      32.080  15.673   3.481  0.00  0.00    -0.005 C 
HETATM   21  C   UNK N   1      33.021  14.570   3.050  0.00  0.00     0.005 C 
ENDBRANCH  19  20
ENDBRANCH  18  19
ENDBRANCH  17  18
ENDBRANCH  16  17
ENDBRANCH  15  16
ENDBRANCH  13  15
ENDBRANCH  12  13
ENDBRANCH   1  12
TORSDOF 13
ENDMDL
MODEL 7
REMARK VINA RESULT:      -4.6     19.200     22.199
REMARK  13 active torsions:
REMARK  status: ('A' for Active; 'I' for Inactive)
REMARK    1  A    between atoms: C_6  and  C_5 
REMARK    2  A    between atoms: C_7  and  C_6 
REMARK    3  A    between atoms: C_8  and  C_7 
REMARK    4  A    between atoms: C_9  and  C_8 
REMARK    5  A    between atoms: C_10  and  C_9 
REMARK    6  A    between atoms: C_15  and  C_10 
REMARK    7  A    between atoms: C_13  and  C_11 
REMARK    8  A    between atoms: C_14  and  C_11 
REMARK    9  A    between atoms: C_13  and  C_12 
REMARK   10  A    between atoms: N_16  and  C_12 
REMARK   11  A    between atoms: C_13  and  O_20 
REMARK   12  A    between atoms: O_18  and  C_14 
REMARK   13  A    between atoms: O_20  and  C_15 
ROOT
HETATM    1  C   UNK N   1      36.385  14.062  11.380  0.00  0.00     0.167 C 
ENDROOT
BRANCH   1   2
HETATM    2  C   UNK N   1      36.555  15.253  10.436  0.00  0.00     0.144 C 
BRANCH   2   3
HETATM    3  C   UNK N   1      35.446  16.256  10.581  0.00  0.00     0.141 C 
HETATM    4  O   UNK N   1      35.654  17.430  10.324  0.00  0.00    -0.650 OA
BRANCH   3   5
HETATM    5  O   UNK N   1      34.221  15.868  10.985  0.00  0.00    -0.776 OA
HETATM    6  H   UNK N   1      33.692  15.211  10.576  0.00  0.00     0.167 HD
ENDBRANCH   3   5
ENDBRANCH   2   3
ENDBRANCH   1   2
BRANCH   1   7
HETATM    7  C   UNK N   1      37.564  13.060  11.319  0.00  0.00     0.268 C 
BRANCH   7   8
HETATM    8  N   UNK N   1      37.242  11.654  11.014  0.00  0.00    -0.076 N 
HETATM    9  C   UNK N   1      35.854  11.609  10.595  0.00  0.00     0.271 C 
HETATM   10  C   UNK N   1      37.364  10.783  12.173  0.00  0.00     0.271 C 
HETATM   11  C   UNK N   1      38.046  11.127   9.923  0.00  0.00     0.271 C 
ENDBRANCH   7   8
ENDBRANCH   1   7
BRANCH   1  12
HETATM   12  O   UNK N   1      36.241  14.500  12.683  0.00  0.00    -0.314 OA
BRANCH  12  13
HETATM   13  C   UNK N   1      35.765  13.751  13.707  0.00  0.00     0.259 C 
HETATM   14  O   UNK N   1      34.653  13.241  13.653  0.00  0.00    -0.265 OA
BRANCH  13  15
HETATM   15  C   UNK N   1      36.653  13.484  14.875  0.00  0.00     0.111 C 
BRANCH  15  16
HETATM   16  C   UNK N   1      35.869  12.934  16.043  0.00  0.00     0.010 C 
BRANCH  16  17
HETATM   17  C   UNK N   1      36.224  11.477  16.237  0.00  0.00     0.000 C 
BRANCH  17  18
HETATM   18  C   UNK N   1      35.260  10.879  17.236  0.00  0.00     0.000 C 
BRANCH  18  19
HETATM   19  C   UNK N   1      36.004  10.500  18.495  0.00  0.00    -0.000 C 
BRANCH  19  20
HETATM   20  C   UNK N   1      35.217  10.984  19.693  0.00  0.00    -0.005 C 
HETATM   21  C   UNK N   1      35.239  12.497  19.732  0.00  0.00     0.005 C 
ENDBRANCH  19  20
ENDBRANCH  18  19
ENDBRANCH  17  18
ENDBRANCH  16  17
ENDBRANCH  15  16
ENDBRANCH  13  15
ENDBRANCH  12  13
ENDBRANCH   1  12
TORSDOF 13
ENDMDL
MODEL 8
REMARK VINA RESULT:      -4.6     15.464     18.500
REMARK  13 active torsions:
REMARK  status: ('A' for Active; 'I' for Inactive)
REMARK    1  A    between atoms: C_6  and  C_5 
REMARK    2  A    between atoms: C_7  and  C_6 
REMARK    3  A    between atoms: C_8  and  C_7 
REMARK    4  A    between atoms: C_9  and  C_8 
REMARK    5  A    between atoms: C_10  and  C_9 
REMARK    6  A    between atoms: C_15  and  C_10 
REMARK    7  A    between atoms: C_13  and  C_11 
REMARK    8  A    between atoms: C_14  and  C_11 
REMARK    9  A    between atoms: C_13  and  C_12 
REMARK   10  A    between atoms: N_16  and  C_12 
REMARK   11  A    between atoms: C_13  and  O_20 
REMARK   12  A    between atoms: O_18  and  C_14 
REMARK   13  A    between atoms: O_20  and  C_15 
ROOT
HETATM    1  C   UNK N   1      33.795  16.001   8.941  0.00  0.00     0.167 C 
ENDROOT
BRANCH   1   2
HETATM    2  C   UNK N   1      33.221  17.361   8.539  0.00  0.00     0.144 C 
BRANCH   2   3
HETATM    3  C   UNK N   1      34.203  18.182   7.751  0.00  0.00     0.141 C 
HETATM    4  O   UNK N   1      34.261  18.058   6.540  0.00  0.00    -0.650 OA
BRANCH   3   5
HETATM    5  O   UNK N   1      35.014  19.059   8.373  0.00  0.00    -0.776 OA
HETATM    6  H   UNK N   1      35.933  19.161   8.216  0.00  0.00     0.167 HD
ENDBRANCH   3   5
ENDBRANCH   2   3
ENDBRANCH   1   2
BRANCH   1   7
HETATM    7  C   UNK N   1      35.005  15.569   8.078  0.00  0.00     0.268 C 
BRANCH   7   8
HETATM    8  N   UNK N   1      34.891  14.296   7.342  0.00  0.00    -0.076 N 
HETATM    9  C   UNK N   1      35.330  13.240   8.234  0.00  0.00     0.271 C 
HETATM   10  C   UNK N   1      35.750  14.243   6.169  0.00  0.00     0.271 C 
HETATM   11  C   UNK N   1      33.521  14.002   6.955  0.00  0.00     0.271 C 
ENDBRANCH   7   8
ENDBRANCH   1   7
BRANCH   1  12
HETATM   12  O   UNK N   1      34.179  16.017  10.269  0.00  0.00    -0.314 OA
BRANCH  12  13
HETATM   13  C   UNK N   1      35.425  16.309  10.714  0.00  0.00     0.259 C 
HETATM   14  O   UNK N   1      35.906  17.424  10.561  0.00  0.00    -0.265 OA
BRANCH  13  15
HETATM   15  C   UNK N   1      36.177  15.270  11.476  0.00  0.00     0.111 C 
BRANCH  15  16
HETATM   16  C   UNK N   1      35.236  14.322  12.181  0.00  0.00     0.010 C 
BRANCH  16  17
HETATM   17  C   UNK N   1      36.045  13.329  12.987  0.00  0.00     0.000 C 
BRANCH  17  18
HETATM   18  C   UNK N   1      35.252  12.956  14.219  0.00  0.00     0.000 C 
BRANCH  18  19
HETATM   19  C   UNK N   1      36.062  13.269  15.456  0.00  0.00    -0.000 C 
BRANCH  19  20
HETATM   20  C   UNK N   1      35.364  12.677  16.660  0.00  0.00    -0.005 C 
HETATM   21  C   UNK N   1      35.199  13.742  17.722  0.00  0.00     0.005 C 
ENDBRANCH  19  20
ENDBRANCH  18  19
ENDBRANCH  17  18
ENDBRANCH  16  17
ENDBRANCH  15  16
ENDBRANCH  13  15
ENDBRANCH  12  13
ENDBRANCH   1  12
TORSDOF 13
ENDMDL
MODEL 9
REMARK VINA RESULT:      -4.6     10.554     12.430
REMARK  13 active torsions:
REMARK  status: ('A' for Active; 'I' for Inactive)
REMARK    1  A    between atoms: C_6  and  C_5 
REMARK    2  A    between atoms: C_7  and  C_6 
REMARK    3  A    between atoms: C_8  and  C_7 
REMARK    4  A    between atoms: C_9  and  C_8 
REMARK    5  A    between atoms: C_10  and  C_9 
REMARK    6  A    between atoms: C_15  and  C_10 
REMARK    7  A    between atoms: C_13  and  C_11 
REMARK    8  A    between atoms: C_14  and  C_11 
REMARK    9  A    between atoms: C_13  and  C_12 
REMARK   10  A    between atoms: N_16  and  C_12 
REMARK   11  A    between atoms: C_13  and  O_20 
REMARK   12  A    between atoms: O_18  and  C_14 
REMARK   13  A    between atoms: O_20  and  C_15 
ROOT
HETATM    1  C   UNK N   1      33.092  17.352   6.466  0.00  0.00     0.167 C 
ENDROOT
BRANCH   1   2
HETATM    2  C   UNK N   1      34.422  17.131   7.189  0.00  0.00     0.144 C 
BRANCH   2   3
HETATM    3  C   UNK N   1      34.539  17.965   8.433  0.00  0.00     0.141 C 
HETATM    4  O   UNK N   1      35.009  19.088   8.366  0.00  0.00    -0.650 OA
BRANCH   3   5
HETATM    5  O   UNK N   1      34.122  17.485   9.620  0.00  0.00    -0.776 OA
HETATM    6  H   UNK N   1      33.818  16.613   9.781  0.00  0.00     0.167 HD
ENDBRANCH   3   5
ENDBRANCH   2   3
ENDBRANCH   1   2
BRANCH   1   7
HETATM    7  C   UNK N   1      32.573  16.085   5.742  0.00  0.00     0.268 C 
BRANCH   7   8
HETATM    8  N   UNK N   1      32.267  16.206   4.304  0.00  0.00    -0.076 N 
HETATM    9  C   UNK N   1      30.949  15.640   4.093  0.00  0.00     0.271 C 
HETATM   10  C   UNK N   1      33.190  15.456   3.466  0.00  0.00     0.271 C 
HETATM   11  C   UNK N   1      32.226  17.591   3.862  0.00  0.00     0.271 C 
ENDBRANCH   7   8
ENDBRANCH   1   7
BRANCH   1  12
HETATM   12  O   UNK N   1      32.128  17.781   7.358  0.00  0.00    -0.314 OA
BRANCH  12  13
HETATM   13  C   UNK N   1      31.137  17.006   7.863  0.00  0.00     0.259 C 
HETATM   14  O   UNK N   1      31.346  16.238   8.793  0.00  0.00    -0.265 OA
BRANCH  13  15
HETATM   15  C   UNK N   1      29.755  17.166   7.324  0.00  0.00     0.111 C 
BRANCH  15  16
HETATM   16  C   UNK N   1      28.809  17.673   8.386  0.00  0.00     0.010 C 
BRANCH  16  17
HETATM   17  C   UNK N   1      28.232  18.999   7.943  0.00  0.00     0.000 C 
BRANCH  17  18
HETATM   18  C   UNK N   1      27.640  18.825   6.562  0.00  0.00     0.000 C 
BRANCH  18  19
HETATM   19  C   UNK N   1      27.754  20.123   5.795  0.00  0.00    -0.000 C 
BRANCH  19  20
HETATM   20  C   UNK N   1      27.592  19.834   4.319  0.00  0.00    -0.005 C 
HETATM   21  C   UNK N   1      27.873  18.370   4.059  0.00  0.00     0.005 C 
ENDBRANCH  19  20
ENDBRANCH  18  19
ENDBRANCH  17  18
ENDBRANCH  16  17
ENDBRANCH  15  16
ENDBRANCH  13  15
ENDBRANCH  12  13
ENDBRANCH   1  12
TORSDOF 13
ENDMDL
