REMARK  8 active torsions:
REMARK  status: ('A' for Active; 'I' for Inactive)
REMARK    1  A    between atoms: N_1  and  C_2 
REMARK    2  A    between atoms: C_2  and  C_3 
REMARK    3  A    between atoms: C_3  and  C_4 
REMARK    4  A    between atoms: C_4  and  C_5 
REMARK    5  A    between atoms: C_5  and  N_6 
REMARK    6  A    between atoms: C_5  and  C_7 
REMARK    7  A    between atoms: C_5  and  C_10 
REMARK    8  A    between atoms: C_10  and  O_11 
ROOT
HETATM    1  C   UNK N   1       3.777  -3.032  -0.219  0.00  0.00     0.169 C 
ENDROOT
BRANCH   1   2
HETATM    2  C   UNK N   1       2.445  -3.157   0.533  0.00  0.00     0.049 C 
BRANCH   2   3
HETATM    3  C   UNK N   1       1.263  -2.563  -0.220  0.00  0.00     0.022 C 
BRANCH   3   4
HETATM    4  C   UNK N   1       0.107  -2.392   0.742  0.00  0.00     0.111 C 
BRANCH   4   5
HETATM    5  N   UNK N   1      -1.140  -2.336   0.003  0.00  0.00    -0.430 N 
HETATM    6  H   UNK N   1      -1.544  -1.558  -0.518  0.00  0.00     0.149 HD
HETATM    7  H   UNK N   1      -1.689  -3.196   0.003  0.00  0.00     0.149 HD
ENDBRANCH   4   5
ENDBRANCH   3   4
ENDBRANCH   2   3
ENDBRANCH   1   2
BRANCH   1   8
HETATM    8  N   UNK N   1       3.645  -3.618  -1.546  0.00  0.00    -0.409 N 
HETATM    9  H   UNK N   1       3.244  -3.743  -2.476  0.00  0.00     0.151 HD
HETATM   10  H   UNK N   1       4.394  -4.310  -1.546  0.00  0.00     0.151 HD
ENDBRANCH   1   8
BRANCH   1  11
HETATM   11  C   UNK N   1       4.830  -3.816   0.576  0.00  0.00     0.391 C 
HETATM   12  F   UNK N   1       6.080  -3.734  -0.012  0.00  0.00    -0.211 F 
HETATM   13  F   UNK N   1       4.471  -5.150   0.683  0.00  0.00    -0.211 F 
ENDBRANCH   1  11
BRANCH   1  14
HETATM   14  C   UNK N   1       4.206  -1.583  -0.349  0.00  0.00     0.174 C 
HETATM   15  O   UNK N   1       5.238  -1.302  -0.938  0.00  0.00    -0.648 OA
BRANCH  14  16
HETATM   16  O   UNK N   1       3.459  -0.591   0.177  0.00  0.00    -0.774 OA
HETATM   17  H   UNK N   1       3.796   0.203   0.543  0.00  0.00     0.167 HD
ENDBRANCH  14  16
ENDBRANCH   1  14
TORSDOF 8
