REMARK  2 active torsions:
REMARK  status: ('A' for Active; 'I' for Inactive)
REMARK    1  A    between atoms: C_7  and  O_10 
REMARK    2  A    between atoms: C_8  and  N_9 
ROOT
HETATM    1  C   UNK N   1      -1.967  -0.319  -0.180  0.00  0.00     0.001 A 
HETATM    2  C   UNK N   1      -1.941  -1.711  -0.248  0.00  0.00     0.003 A 
HETATM    3  C   UNK N   1      -0.773   0.393  -0.068  0.00  0.00     0.013 A 
HETATM    4  C   UNK N   1      -0.721  -2.387  -0.206  0.00  0.00     0.037 A 
HETATM    5  C   UNK N   1       0.460  -0.278  -0.003  0.00  0.00     0.014 A 
HETATM    6  C   UNK N   1       0.483  -1.686  -0.078  0.00  0.00     0.082 A 
HETATM    7  C   UNK N   1       1.704   0.544   0.100  0.00  0.00     0.219 C 
HETATM    8  C   UNK N   1       2.919  -1.993   0.199  0.00  0.00     0.288 C 
HETATM    9  O   UNK N   1       1.630  -2.406  -0.070  0.00  0.00    -0.317 OA
HETATM   10  S   UNK N   1       3.117  -0.305   0.864  0.00  0.00    -0.080 SA
ENDROOT
BRANCH   8  11
HETATM   11  N   UNK N   1       3.748  -2.167  -0.980  0.00  0.00    -0.397 N 
HETATM   12  H   UNK N   1       3.934  -2.732  -1.809  0.00  0.00     0.153 HD
HETATM   13  H   UNK N   1       4.428  -1.406  -0.980  0.00  0.00     0.153 HD
ENDBRANCH   8  11
BRANCH   7  14
HETATM   14  O   UNK N   1       2.048   1.076  -1.143  0.00  0.00    -0.380 OA
HETATM   15  H   UNK N   1       2.487   1.053  -2.008  0.00  0.00     0.211 HD
ENDBRANCH   7  14
TORSDOF 2
