MODEL 1
REMARK VINA RESULT:      -6.0      0.000      0.000
REMARK  6 active torsions:
REMARK  status: ('A' for Active; 'I' for Inactive)
REMARK    1  A    between atoms: C_2  and  N_1 
REMARK    2  A    between atoms: C_2  and  C_3 
REMARK    3  A    between atoms: C_2  and  C_13 
REMARK    4  A    between atoms: C_3  and  N_4 
REMARK       I    between atoms: N_4  and  C_5 
REMARK    5  A    between atoms: C_5  and  C_7 
REMARK    6  A    between atoms: C_13  and  O_14 
ROOT
HETATM    1  N   UNK N   1      36.560  15.104  13.713  0.00  0.00    -0.354 N 
HETATM    2  C   UNK N   1      36.905  14.634  14.943  0.00  0.00     0.251 C 
HETATM    3  O   UNK N   1      37.582  15.352  15.662  0.00  0.00    -0.268 OA
HETATM    4  H   UNK N   1      36.820  16.027  13.489  0.00  0.00     0.162 HD
ENDROOT
BRANCH   1   5
HETATM    5  C   UNK N   1      35.842  14.355  12.711  0.00  0.00     0.158 C 
BRANCH   5   6
HETATM    6  C   UNK N   1      35.020  15.267  11.813  0.00  0.00     0.191 C 
BRANCH   6   7
HETATM    7  N   UNK N   1      34.197  14.439  10.947  0.00  0.00    -0.416 N 
HETATM    8  H   UNK N   1      33.371  13.949  11.290  0.00  0.00     0.150 HD
HETATM    9  H   UNK N   1      34.454  14.343   9.965  0.00  0.00     0.150 HD
ENDBRANCH   6   7
BRANCH   6  10
HETATM   10  C   UNK N   1      35.918  16.154  10.994  0.00  0.00     0.164 C 
HETATM   11  O   UNK N   1      35.482  17.190  10.519  0.00  0.00    -0.648 OA
BRANCH  10  12
HETATM   12  O   UNK N   1      37.205  15.815  10.776  0.00  0.00    -0.775 OA
HETATM   13  H   UNK N   1      37.649  15.086  11.161  0.00  0.00     0.167 HD
ENDBRANCH  10  12
ENDBRANCH   6  10
ENDBRANCH   5   6
ENDBRANCH   1   5
BRANCH   2  14
HETATM   14  C   UNK N   1      36.523  13.278  15.444  0.00  0.00     0.032 A 
HETATM   15  C   UNK N   1      35.522  13.169  16.424  0.00  0.00     0.017 A 
HETATM   16  C   UNK N   1      35.143  11.917  16.919  0.00  0.00     0.001 A 
HETATM   17  C   UNK N   1      35.751  10.759  16.431  0.00  0.00     0.000 A 
HETATM   18  C   UNK N   1      36.740  10.852  15.450  0.00  0.00     0.001 A 
HETATM   19  C   UNK N   1      37.124  12.103  14.964  0.00  0.00     0.017 A 
ENDBRANCH   2  14
TORSDOF 6
ENDMDL
MODEL 2
REMARK VINA RESULT:      -5.9      4.979      8.215
REMARK  6 active torsions:
REMARK  status: ('A' for Active; 'I' for Inactive)
REMARK    1  A    between atoms: C_2  and  N_1 
REMARK    2  A    between atoms: C_2  and  C_3 
REMARK    3  A    between atoms: C_2  and  C_13 
REMARK    4  A    between atoms: C_3  and  N_4 
REMARK       I    between atoms: N_4  and  C_5 
REMARK    5  A    between atoms: C_5  and  C_7 
REMARK    6  A    between atoms: C_13  and  O_14 
ROOT
HETATM    1  N   UNK N   1      34.722  16.262   7.966  0.00  0.00    -0.354 N 
HETATM    2  C   UNK N   1      34.022  17.326   7.485  0.00  0.00     0.251 C 
HETATM    3  O   UNK N   1      34.649  18.301   7.105  0.00  0.00    -0.268 OA
HETATM    4  H   UNK N   1      35.705  16.307   7.923  0.00  0.00     0.162 HD
ENDROOT
BRANCH   1   5
HETATM    5  C   UNK N   1      34.136  15.072   8.534  0.00  0.00     0.158 C 
BRANCH   5   6
HETATM    6  C   UNK N   1      34.438  14.956  10.021  0.00  0.00     0.191 C 
BRANCH   6   7
HETATM    7  N   UNK N   1      33.191  15.099  10.754  0.00  0.00    -0.416 N 
HETATM    8  H   UNK N   1      32.961  15.948  11.270  0.00  0.00     0.150 HD
HETATM    9  H   UNK N   1      32.525  14.327  10.754  0.00  0.00     0.150 HD
ENDBRANCH   6   7
BRANCH   6  10
HETATM   10  C   UNK N   1      35.423  16.011  10.446  0.00  0.00     0.164 C 
HETATM   11  O   UNK N   1      36.619  15.769  10.429  0.00  0.00    -0.648 OA
BRANCH  10  12
HETATM   12  O   UNK N   1      34.997  17.225  10.849  0.00  0.00    -0.775 OA
HETATM   13  H   UNK N   1      34.960  17.523  11.736  0.00  0.00     0.167 HD
ENDBRANCH  10  12
ENDBRANCH   6  10
ENDBRANCH   5   6
ENDBRANCH   1   5
BRANCH   2  14
HETATM   14  C   UNK N   1      32.528  17.371   7.428  0.00  0.00     0.032 A 
HETATM   15  C   UNK N   1      31.816  17.848   8.541  0.00  0.00     0.017 A 
HETATM   16  C   UNK N   1      30.419  17.899   8.526  0.00  0.00     0.001 A 
HETATM   17  C   UNK N   1      29.717  17.487   7.391  0.00  0.00     0.000 A 
HETATM   18  C   UNK N   1      30.412  17.021   6.273  0.00  0.00     0.001 A 
HETATM   19  C   UNK N   1      31.807  16.962   6.295  0.00  0.00     0.017 A 
ENDBRANCH   2  14
TORSDOF 6
ENDMDL
MODEL 3
REMARK VINA RESULT:      -5.9      4.237      8.219
REMARK  6 active torsions:
REMARK  status: ('A' for Active; 'I' for Inactive)
REMARK    1  A    between atoms: C_2  and  N_1 
REMARK    2  A    between atoms: C_2  and  C_3 
REMARK    3  A    between atoms: C_2  and  C_13 
REMARK    4  A    between atoms: C_3  and  N_4 
REMARK       I    between atoms: N_4  and  C_5 
REMARK    5  A    between atoms: C_5  and  C_7 
REMARK    6  A    between atoms: C_13  and  O_14 
ROOT
HETATM    1  N   UNK N   1      34.751  17.211   9.502  0.00  0.00    -0.354 N 
HETATM    2  C   UNK N   1      34.448  18.031   8.458  0.00  0.00     0.251 C 
HETATM    3  O   UNK N   1      35.047  19.090   8.367  0.00  0.00    -0.268 OA
HETATM    4  H   UNK N   1      35.486  17.485  10.097  0.00  0.00     0.162 HD
ENDROOT
BRANCH   1   5
HETATM    5  C   UNK N   1      34.079  15.971   9.805  0.00  0.00     0.158 C 
BRANCH   5   6
HETATM    6  C   UNK N   1      35.062  14.894  10.239  0.00  0.00     0.191 C 
BRANCH   6   7
HETATM    7  N   UNK N   1      34.310  13.797  10.826  0.00  0.00    -0.416 N 
HETATM    8  H   UNK N   1      33.759  13.912  11.677  0.00  0.00     0.150 HD
HETATM    9  H   UNK N   1      34.334  12.883  10.374  0.00  0.00     0.150 HD
ENDBRANCH   6   7
BRANCH   6  10
HETATM   10  C   UNK N   1      36.049  15.446  11.231  0.00  0.00     0.164 C 
HETATM   11  O   UNK N   1      35.849  15.311  12.428  0.00  0.00    -0.648 OA
BRANCH  10  12
HETATM   12  O   UNK N   1      37.155  16.094  10.813  0.00  0.00    -0.775 OA
HETATM   13  H   UNK N   1      38.035  15.876  11.048  0.00  0.00     0.167 HD
ENDBRANCH  10  12
ENDBRANCH   6  10
ENDBRANCH   5   6
ENDBRANCH   1   5
BRANCH   2  14
HETATM   14  C   UNK N   1      33.400  17.714   7.439  0.00  0.00     0.032 A 
HETATM   15  C   UNK N   1      33.784  17.522   6.102  0.00  0.00     0.017 A 
HETATM   16  C   UNK N   1      32.831  17.229   5.121  0.00  0.00     0.001 A 
HETATM   17  C   UNK N   1      31.484  17.112   5.469  0.00  0.00     0.000 A 
HETATM   18  C   UNK N   1      31.089  17.290   6.796  0.00  0.00     0.001 A 
HETATM   19  C   UNK N   1      32.041  17.592   7.772  0.00  0.00     0.017 A 
ENDBRANCH   2  14
TORSDOF 6
ENDMDL
MODEL 4
REMARK VINA RESULT:      -5.7      4.999      8.805
REMARK  6 active torsions:
REMARK  status: ('A' for Active; 'I' for Inactive)
REMARK    1  A    between atoms: C_2  and  N_1 
REMARK    2  A    between atoms: C_2  and  C_3 
REMARK    3  A    between atoms: C_2  and  C_13 
REMARK    4  A    between atoms: C_3  and  N_4 
REMARK       I    between atoms: N_4  and  C_5 
REMARK    5  A    between atoms: C_5  and  C_7 
REMARK    6  A    between atoms: C_13  and  O_14 
ROOT
HETATM    1  N   UNK N   1      32.951  16.834   9.198  0.00  0.00    -0.354 N 
HETATM    2  C   UNK N   1      32.129  17.499   8.340  0.00  0.00     0.251 C 
HETATM    3  O   UNK N   1      31.310  18.271   8.812  0.00  0.00    -0.268 OA
HETATM    4  H   UNK N   1      32.886  17.057  10.154  0.00  0.00     0.162 HD
ENDROOT
BRANCH   1   5
HETATM    5  C   UNK N   1      33.909  15.826   8.814  0.00  0.00     0.158 C 
BRANCH   5   6
HETATM    6  C   UNK N   1      34.710  15.333  10.010  0.00  0.00     0.191 C 
BRANCH   6   7
HETATM    7  N   UNK N   1      33.785  15.036  11.091  0.00  0.00    -0.416 N 
HETATM    8  H   UNK N   1      34.101  14.885  12.049  0.00  0.00     0.150 HD
HETATM    9  H   UNK N   1      32.788  14.976  10.886  0.00  0.00     0.150 HD
ENDBRANCH   6   7
BRANCH   6  10
HETATM   10  C   UNK N   1      35.710  16.371  10.443  0.00  0.00     0.164 C 
HETATM   11  O   UNK N   1      35.441  17.557  10.334  0.00  0.00    -0.648 OA
BRANCH  10  12
HETATM   12  O   UNK N   1      36.904  16.006  10.951  0.00  0.00    -0.775 OA
HETATM   13  H   UNK N   1      37.044  15.627  11.795  0.00  0.00     0.167 HD
ENDBRANCH  10  12
ENDBRANCH   6  10
ENDBRANCH   5   6
ENDBRANCH   1   5
BRANCH   2  14
HETATM   14  C   UNK N   1      32.160  17.310   6.856  0.00  0.00     0.032 A 
HETATM   15  C   UNK N   1      31.024  16.793   6.211  0.00  0.00     0.017 A 
HETATM   16  C   UNK N   1      31.019  16.598   4.826  0.00  0.00     0.001 A 
HETATM   17  C   UNK N   1      32.143  16.930   4.069  0.00  0.00     0.000 A 
HETATM   18  C   UNK N   1      33.275  17.455   4.696  0.00  0.00     0.001 A 
HETATM   19  C   UNK N   1      33.282  17.640   6.080  0.00  0.00     0.017 A 
ENDBRANCH   2  14
TORSDOF 6
ENDMDL
MODEL 5
REMARK VINA RESULT:      -5.6     20.039     22.890
REMARK  6 active torsions:
REMARK  status: ('A' for Active; 'I' for Inactive)
REMARK    1  A    between atoms: C_2  and  N_1 
REMARK    2  A    between atoms: C_2  and  C_3 
REMARK    3  A    between atoms: C_2  and  C_13 
REMARK    4  A    between atoms: C_3  and  N_4 
REMARK       I    between atoms: N_4  and  C_5 
REMARK    5  A    between atoms: C_5  and  C_7 
REMARK    6  A    between atoms: C_13  and  O_14 
ROOT
HETATM    1  N   UNK N   1      28.413  24.131  -3.325  0.00  0.00    -0.354 N 
HETATM    2  C   UNK N   1      27.069  24.344  -3.346  0.00  0.00     0.251 C 
HETATM    3  O   UNK N   1      26.342  23.471  -2.900  0.00  0.00    -0.268 OA
HETATM    4  H   UNK N   1      28.736  23.308  -2.892  0.00  0.00     0.162 HD
ENDROOT
BRANCH   1   5
HETATM    5  C   UNK N   1      29.402  25.017  -3.889  0.00  0.00     0.158 C 
BRANCH   5   6
HETATM    6  C   UNK N   1      30.812  24.609  -3.487  0.00  0.00     0.191 C 
BRANCH   6   7
HETATM    7  N   UNK N   1      31.646  24.608  -4.678  0.00  0.00    -0.416 N 
HETATM    8  H   UNK N   1      31.404  25.149  -5.509  0.00  0.00     0.150 HD
HETATM    9  H   UNK N   1      32.499  24.049  -4.684  0.00  0.00     0.150 HD
ENDBRANCH   6   7
BRANCH   6  10
HETATM   10  C   UNK N   1      30.807  23.247  -2.848  0.00  0.00     0.164 C 
HETATM   11  O   UNK N   1      31.033  22.256  -3.524  0.00  0.00    -0.648 OA
BRANCH  10  12
HETATM   12  O   UNK N   1      30.554  23.107  -1.531  0.00  0.00    -0.775 OA
HETATM   13  H   UNK N   1      31.165  23.261  -0.839  0.00  0.00     0.167 HD
ENDBRANCH  10  12
ENDBRANCH   6  10
ENDBRANCH   5   6
ENDBRANCH   1   5
BRANCH   2  14
HETATM   14  C   UNK N   1      26.439  25.577  -3.912  0.00  0.00     0.032 A 
HETATM   15  C   UNK N   1      25.914  25.538  -5.215  0.00  0.00     0.017 A 
HETATM   16  C   UNK N   1      25.323  26.673  -5.780  0.00  0.00     0.001 A 
HETATM   17  C   UNK N   1      25.237  27.855  -5.043  0.00  0.00     0.000 A 
HETATM   18  C   UNK N   1      25.745  27.905  -3.743  0.00  0.00     0.001 A 
HETATM   19  C   UNK N   1      26.343  26.774  -3.185  0.00  0.00     0.017 A 
ENDBRANCH   2  14
TORSDOF 6
ENDMDL
MODEL 6
REMARK VINA RESULT:      -5.3      1.740      2.157
REMARK  6 active torsions:
REMARK  status: ('A' for Active; 'I' for Inactive)
REMARK    1  A    between atoms: C_2  and  N_1 
REMARK    2  A    between atoms: C_2  and  C_3 
REMARK    3  A    between atoms: C_2  and  C_13 
REMARK    4  A    between atoms: C_3  and  N_4 
REMARK       I    between atoms: N_4  and  C_5 
REMARK    5  A    between atoms: C_5  and  C_7 
REMARK    6  A    between atoms: C_13  and  O_14 
ROOT
HETATM    1  N   UNK N   1      36.037  13.480  11.826  0.00  0.00    -0.354 N 
HETATM    2  C   UNK N   1      36.620  12.862  12.890  0.00  0.00     0.251 C 
HETATM    3  O   UNK N   1      37.518  12.066  12.670  0.00  0.00    -0.268 OA
HETATM    4  H   UNK N   1      36.414  13.301  10.934  0.00  0.00     0.162 HD
ENDROOT
BRANCH   1   5
HETATM    5  C   UNK N   1      34.910  14.377  11.902  0.00  0.00     0.158 C 
BRANCH   5   6
HETATM    6  C   UNK N   1      34.779  15.219  10.642  0.00  0.00     0.191 C 
BRANCH   6   7
HETATM    7  N   UNK N   1      34.956  14.350   9.490  0.00  0.00    -0.416 N 
HETATM    8  H   UNK N   1      35.788  14.394   8.901  0.00  0.00     0.150 HD
HETATM    9  H   UNK N   1      34.226  13.676   9.262  0.00  0.00     0.150 HD
ENDBRANCH   6   7
BRANCH   6  10
HETATM   10  C   UNK N   1      35.803  16.321  10.633  0.00  0.00     0.164 C 
HETATM   11  O   UNK N   1      35.459  17.469  10.398  0.00  0.00    -0.648 OA
BRANCH  10  12
HETATM   12  O   UNK N   1      37.101  16.055  10.880  0.00  0.00    -0.775 OA
HETATM   13  H   UNK N   1      37.422  15.443  11.512  0.00  0.00     0.167 HD
ENDBRANCH  10  12
ENDBRANCH   6  10
ENDBRANCH   5   6
ENDBRANCH   1   5
BRANCH   2  14
HETATM   14  C   UNK N   1      36.195  13.087  14.307  0.00  0.00     0.032 A 
HETATM   15  C   UNK N   1      35.170  12.292  14.846  0.00  0.00     0.017 A 
HETATM   16  C   UNK N   1      34.744  12.477  16.165  0.00  0.00     0.001 A 
HETATM   17  C   UNK N   1      35.347  13.450  16.964  0.00  0.00     0.000 A 
HETATM   18  C   UNK N   1      36.374  14.240  16.444  0.00  0.00     0.001 A 
HETATM   19  C   UNK N   1      36.791  14.060  15.124  0.00  0.00     0.017 A 
ENDBRANCH   2  14
TORSDOF 6
ENDMDL
MODEL 7
REMARK VINA RESULT:      -5.3     14.693     16.923
REMARK  6 active torsions:
REMARK  status: ('A' for Active; 'I' for Inactive)
REMARK    1  A    between atoms: C_2  and  N_1 
REMARK    2  A    between atoms: C_2  and  C_3 
REMARK    3  A    between atoms: C_2  and  C_13 
REMARK    4  A    between atoms: C_3  and  N_4 
REMARK       I    between atoms: N_4  and  C_5 
REMARK    5  A    between atoms: C_5  and  C_7 
REMARK    6  A    between atoms: C_13  and  O_14 
ROOT
HETATM    1  N   UNK N   1      23.352  19.708   3.342  0.00  0.00    -0.354 N 
HETATM    2  C   UNK N   1      24.588  20.245   3.148  0.00  0.00     0.251 C 
HETATM    3  O   UNK N   1      24.748  20.988   2.193  0.00  0.00    -0.268 OA
HETATM    4  H   UNK N   1      22.631  19.999   2.738  0.00  0.00     0.162 HD
ENDROOT
BRANCH   1   5
HETATM    5  C   UNK N   1      23.016  18.747   4.364  0.00  0.00     0.158 C 
BRANCH   5   6
HETATM    6  C   UNK N   1      21.516  18.698   4.612  0.00  0.00     0.191 C 
BRANCH   6   7
HETATM    7  N   UNK N   1      21.090  17.308   4.566  0.00  0.00    -0.416 N 
HETATM    8  H   UNK N   1      21.722  16.540   4.788  0.00  0.00     0.150 HD
HETATM    9  H   UNK N   1      20.128  17.095   4.304  0.00  0.00     0.150 HD
ENDBRANCH   6   7
BRANCH   6  10
HETATM   10  C   UNK N   1      20.780  19.508   3.580  0.00  0.00     0.164 C 
HETATM   11  O   UNK N   1      20.381  20.627   3.857  0.00  0.00    -0.648 OA
BRANCH  10  12
HETATM   12  O   UNK N   1      20.555  19.010   2.348  0.00  0.00    -0.775 OA
HETATM   13  H   UNK N   1      19.956  19.360   1.719  0.00  0.00     0.167 HD
ENDBRANCH  10  12
ENDBRANCH   6  10
ENDBRANCH   5   6
ENDBRANCH   1   5
BRANCH   2  14
HETATM   14  C   UNK N   1      25.763  19.946   4.025  0.00  0.00     0.032 A 
HETATM   15  C   UNK N   1      26.587  18.852   3.712  0.00  0.00     0.017 A 
HETATM   16  C   UNK N   1      27.691  18.540   4.512  0.00  0.00     0.001 A 
HETATM   17  C   UNK N   1      27.991  19.325   5.626  0.00  0.00     0.000 A 
HETATM   18  C   UNK N   1      27.186  20.421   5.943  0.00  0.00     0.001 A 
HETATM   19  C   UNK N   1      26.079  20.726   5.149  0.00  0.00     0.017 A 
ENDBRANCH   2  14
TORSDOF 6
ENDMDL
MODEL 8
REMARK VINA RESULT:      -5.3      7.967     10.108
REMARK  6 active torsions:
REMARK  status: ('A' for Active; 'I' for Inactive)
REMARK    1  A    between atoms: C_2  and  N_1 
REMARK    2  A    between atoms: C_2  and  C_3 
REMARK    3  A    between atoms: C_2  and  C_13 
REMARK    4  A    between atoms: C_3  and  N_4 
REMARK       I    between atoms: N_4  and  C_5 
REMARK    5  A    between atoms: C_5  and  C_7 
REMARK    6  A    between atoms: C_13  and  O_14 
ROOT
HETATM    1  N   UNK N   1      31.554  17.007   8.996  0.00  0.00    -0.354 N 
HETATM    2  C   UNK N   1      32.101  16.277   7.985  0.00  0.00     0.251 C 
HETATM    3  O   UNK N   1      32.631  15.214   8.267  0.00  0.00    -0.268 OA
HETATM    4  H   UNK N   1      31.556  16.609   9.897  0.00  0.00     0.162 HD
ENDROOT
BRANCH   1   5
HETATM    5  C   UNK N   1      30.970  18.318   8.850  0.00  0.00     0.158 C 
BRANCH   5   6
HETATM    6  C   UNK N   1      29.723  18.473   9.707  0.00  0.00     0.191 C 
BRANCH   6   7
HETATM    7  N   UNK N   1      29.649  17.343  10.618  0.00  0.00    -0.416 N 
HETATM    8  H   UNK N   1      29.958  17.408  11.588  0.00  0.00     0.150 HD
HETATM    9  H   UNK N   1      29.278  16.456  10.278  0.00  0.00     0.150 HD
ENDBRANCH   6   7
BRANCH   6  10
HETATM   10  C   UNK N   1      28.492  18.534   8.844  0.00  0.00     0.164 C 
HETATM   11  O   UNK N   1      28.570  18.951   7.700  0.00  0.00    -0.648 OA
BRANCH  10  12
HETATM   12  O   UNK N   1      27.297  18.133   9.323  0.00  0.00    -0.775 OA
HETATM   13  H   UNK N   1      26.528  17.980   8.811  0.00  0.00     0.167 HD
ENDBRANCH  10  12
ENDBRANCH   6  10
ENDBRANCH   5   6
ENDBRANCH   1   5
BRANCH   2  14
HETATM   14  C   UNK N   1      32.113  16.724   6.558  0.00  0.00     0.032 A 
HETATM   15  C   UNK N   1      30.941  16.597   5.794  0.00  0.00     0.017 A 
HETATM   16  C   UNK N   1      30.916  17.001   4.455  0.00  0.00     0.001 A 
HETATM   17  C   UNK N   1      32.059  17.548   3.869  0.00  0.00     0.000 A 
HETATM   18  C   UNK N   1      33.227  17.690   4.620  0.00  0.00     0.001 A 
HETATM   19  C   UNK N   1      33.252  17.278   5.954  0.00  0.00     0.017 A 
ENDBRANCH   2  14
TORSDOF 6
ENDMDL
MODEL 9
REMARK VINA RESULT:      -5.2      6.971      9.485
REMARK  6 active torsions:
REMARK  status: ('A' for Active; 'I' for Inactive)
REMARK    1  A    between atoms: C_2  and  N_1 
REMARK    2  A    between atoms: C_2  and  C_3 
REMARK    3  A    between atoms: C_2  and  C_13 
REMARK    4  A    between atoms: C_3  and  N_4 
REMARK       I    between atoms: N_4  and  C_5 
REMARK    5  A    between atoms: C_5  and  C_7 
REMARK    6  A    between atoms: C_13  and  O_14 
ROOT
HETATM    1  N   UNK N   1      31.887  17.738   9.152  0.00  0.00    -0.354 N 
HETATM    2  C   UNK N   1      30.661  18.147   8.725  0.00  0.00     0.251 C 
HETATM    3  O   UNK N   1      30.125  19.070   9.317  0.00  0.00    -0.268 OA
HETATM    4  H   UNK N   1      32.309  18.251   9.879  0.00  0.00     0.162 HD
ENDROOT
BRANCH   1   5
HETATM    5  C   UNK N   1      32.617  16.612   8.623  0.00  0.00     0.158 C 
BRANCH   5   6
HETATM    6  C   UNK N   1      34.118  16.854   8.653  0.00  0.00     0.191 C 
BRANCH   6   7
HETATM    7  N   UNK N   1      34.525  17.043  10.036  0.00  0.00    -0.416 N 
HETATM    8  H   UNK N   1      33.920  17.496  10.722  0.00  0.00     0.150 HD
HETATM    9  H   UNK N   1      35.444  16.714  10.331  0.00  0.00     0.150 HD
ENDBRANCH   6   7
BRANCH   6  10
HETATM   10  C   UNK N   1      34.476  18.062   7.830  0.00  0.00     0.164 C 
HETATM   11  O   UNK N   1      34.906  19.065   8.377  0.00  0.00    -0.648 OA
BRANCH  10  12
HETATM   12  O   UNK N   1      34.325  18.050   6.491  0.00  0.00    -0.775 OA
HETATM   13  H   UNK N   1      34.404  17.297   5.940  0.00  0.00     0.167 HD
ENDBRANCH  10  12
ENDBRANCH   6  10
ENDBRANCH   5   6
ENDBRANCH   1   5
BRANCH   2  14
HETATM   14  C   UNK N   1      29.928  17.505   7.590  0.00  0.00     0.032 A 
HETATM   15  C   UNK N   1      30.624  17.213   6.406  0.00  0.00     0.017 A 
HETATM   16  C   UNK N   1      29.970  16.617   5.322  0.00  0.00     0.001 A 
HETATM   17  C   UNK N   1      28.615  16.294   5.416  0.00  0.00     0.000 A 
HETATM   18  C   UNK N   1      27.913  16.568   6.591  0.00  0.00     0.001 A 
HETATM   19  C   UNK N   1      28.566  17.172   7.668  0.00  0.00     0.017 A 
ENDBRANCH   2  14
TORSDOF 6
ENDMDL
