MODEL 1
REMARK VINA RESULT:      -7.1      0.000      0.000
REMARK  17 active torsions:
REMARK  status: ('A' for Active; 'I' for Inactive)
REMARK    1  A    between atoms: C_9  and  C_8 
REMARK    2  A    between atoms: C_16  and  C_8 
REMARK    3  A    between atoms: C_18  and  C_9 
REMARK    4  A    between atoms: C_19  and  C_10 
REMARK    5  A    between atoms: N_23  and  C_10 
REMARK    6  A    between atoms: C_14  and  C_11 
REMARK    7  A    between atoms: S_33  and  C_11 
REMARK    8  A    between atoms: C_17  and  C_12 
REMARK    9  A    between atoms: S_33  and  C_12 
REMARK   10  A    between atoms: C_21  and  C_16 
REMARK   11  A    between atoms: C_16  and  N_22 
REMARK   12  A    between atoms: C_20  and  C_17 
REMARK   13  A    between atoms: C_17  and  N_25 
REMARK   14  A    between atoms: C_18  and  O_27 
REMARK   15  A    between atoms: O_29  and  C_19 
REMARK   16  A    between atoms: O_30  and  C_20 
REMARK   17  A    between atoms: O_32  and  C_21 
ROOT
HETATM    1  C   UNK N   1      21.802  15.601   3.280  0.00  0.00     0.167 C 
ENDROOT
BRANCH   1   2
HETATM    2  C   UNK N   1      21.890  14.572   4.413  0.00  0.00     0.107 C 
BRANCH   2   3
HETATM    3  S   UNK N   1      21.616  15.237   6.089  0.00  0.00    -0.162 SA
BRANCH   3   4
HETATM    4  C   UNK N   1      21.591  13.577   6.842  0.00  0.00     0.113 C 
BRANCH   4   5
HETATM    5  C   UNK N   1      22.747  13.435   7.779  0.00  0.00    -0.038 A 
HETATM    6  C   UNK N   1      24.034  13.716   7.307  0.00  0.00     0.009 A 
HETATM    7  C   UNK N   1      25.145  13.560   8.140  0.00  0.00     0.001 A 
HETATM    8  C   UNK N   1      24.980  13.104   9.450  0.00  0.00     0.012 A 
HETATM    9  C   UNK N   1      23.702  12.822   9.938  0.00  0.00    -0.025 A 
HETATM   10  C   UNK N   1      23.543  12.355  11.246  0.00  0.00     0.012 A 
HETATM   11  C   UNK N   1      22.570  13.000   9.107  0.00  0.00    -0.019 A 
HETATM   12  C   UNK N   1      22.266  12.072  11.739  0.00  0.00     0.001 A 
HETATM   13  C   UNK N   1      21.143  12.268  10.931  0.00  0.00     0.001 A 
HETATM   14  C   UNK N   1      21.294  12.728   9.620  0.00  0.00     0.013 A 
ENDBRANCH   4   5
ENDBRANCH   3   4
ENDBRANCH   2   3
ENDBRANCH   1   2
BRANCH   1  15
HETATM   15  C   UNK N   1      22.106  15.029   1.906  0.00  0.00     0.136 C 
HETATM   16  N   UNK N   1      21.205  14.913   0.986  0.00  0.00    -0.363 N 
ATOM     17  HN  UNK N   1      21.486  14.519   0.088  1.00  0.00     0.161 HD
BRANCH  16  18
HETATM   18  C   UNK N   1      19.824  15.305   1.153  0.00  0.00     0.231 C 
BRANCH  18  19
HETATM   19  C   UNK N   1      19.517  16.465   0.266  0.00  0.00     0.158 C 
HETATM   20  O   UNK N   1      20.418  17.188  -0.126  0.00  0.00    -0.649 OA
BRANCH  19  21
HETATM   21  O   UNK N   1      18.247  16.719  -0.100  0.00  0.00    -0.775 OA
HETATM   22  H   UNK N   1      17.951  16.881  -0.973  0.00  0.00     0.167 HD
ENDBRANCH  19  21
ENDBRANCH  18  19
ENDBRANCH  16  18
BRANCH  15  23
HETATM   23  O   UNK N   1      23.374  14.676   1.616  0.00  0.00    -0.348 OA
HETATM   24  H   UNK N   1      23.998  14.047   1.919  0.00  0.00     0.219 HD
ENDBRANCH  15  23
ENDBRANCH   1  15
BRANCH   1  25
HETATM   25  N   UNK N   1      22.722  16.699   3.514  0.00  0.00    -0.362 N 
HETATM   26  C   UNK N   1      22.370  17.913   3.780  0.00  0.00     0.111 C 
ATOM     27  HN  UNK N   1      23.721  16.496   3.464  1.00  0.00     0.162 HD
BRANCH  26  28
HETATM   28  C   UNK N   1      20.925  18.316   3.895  0.00  0.00     0.086 C 
BRANCH  28  29
HETATM   29  C   UNK N   1      20.774  19.821   3.733  0.00  0.00     0.043 C 
BRANCH  29  30
HETATM   30  C   UNK N   1      20.047  20.176   2.438  0.00  0.00     0.173 C 
BRANCH  30  31
HETATM   31  C   UNK N   1      21.027  20.364   1.307  0.00  0.00     0.163 C 
HETATM   32  O   UNK N   1      22.184  20.704   1.539  0.00  0.00    -0.648 OA
BRANCH  31  33
HETATM   33  O   UNK N   1      20.649  20.149   0.036  0.00  0.00    -0.775 OA
HETATM   34  H   UNK N   1      20.408  20.854  -0.533  0.00  0.00     0.167 HD
ENDBRANCH  31  33
ENDBRANCH  30  31
BRANCH  30  35
HETATM   35  N   UNK N   1      19.104  19.114   2.134  0.00  0.00    -0.418 N 
HETATM   36  H   UNK N   1      18.139  19.129   2.463  0.00  0.00     0.150 HD
HETATM   37  H   UNK N   1      19.420  18.324   1.570  0.00  0.00     0.150 HD
ENDBRANCH  30  35
ENDBRANCH  29  30
ENDBRANCH  28  29
ENDBRANCH  26  28
BRANCH  26  38
HETATM   38  O   UNK N   1      23.324  18.850   3.928  0.00  0.00    -0.350 OA
HETATM   39  H   UNK N   1      23.784  19.553   3.513  0.00  0.00     0.219 HD
ENDBRANCH  26  38
ENDBRANCH   1  25
TORSDOF 17
ENDMDL
MODEL 2
REMARK VINA RESULT:      -7.0     13.430     16.401
REMARK  17 active torsions:
REMARK  status: ('A' for Active; 'I' for Inactive)
REMARK    1  A    between atoms: C_9  and  C_8 
REMARK    2  A    between atoms: C_16  and  C_8 
REMARK    3  A    between atoms: C_18  and  C_9 
REMARK    4  A    between atoms: C_19  and  C_10 
REMARK    5  A    between atoms: N_23  and  C_10 
REMARK    6  A    between atoms: C_14  and  C_11 
REMARK    7  A    between atoms: S_33  and  C_11 
REMARK    8  A    between atoms: C_17  and  C_12 
REMARK    9  A    between atoms: S_33  and  C_12 
REMARK   10  A    between atoms: C_21  and  C_16 
REMARK   11  A    between atoms: C_16  and  N_22 
REMARK   12  A    between atoms: C_20  and  C_17 
REMARK   13  A    between atoms: C_17  and  N_25 
REMARK   14  A    between atoms: C_18  and  O_27 
REMARK   15  A    between atoms: O_29  and  C_19 
REMARK   16  A    between atoms: O_30  and  C_20 
REMARK   17  A    between atoms: O_32  and  C_21 
ROOT
HETATM    1  C   UNK N   1      25.847  23.010  -7.143  0.00  0.00     0.167 C 
ENDROOT
BRANCH   1   2
HETATM    2  C   UNK N   1      25.551  24.090  -8.190  0.00  0.00     0.107 C 
BRANCH   2   3
HETATM    3  S   UNK N   1      27.003  24.689  -9.117  0.00  0.00    -0.162 SA
BRANCH   3   4
HETATM    4  C   UNK N   1      26.513  26.435  -8.937  0.00  0.00     0.113 C 
BRANCH   4   5
HETATM    5  C   UNK N   1      27.297  27.063  -7.831  0.00  0.00    -0.038 A 
HETATM    6  C   UNK N   1      28.654  27.338  -8.041  0.00  0.00     0.009 A 
HETATM    7  C   UNK N   1      29.431  27.891  -7.020  0.00  0.00     0.001 A 
HETATM    8  C   UNK N   1      28.862  28.159  -5.772  0.00  0.00     0.012 A 
HETATM    9  C   UNK N   1      27.510  27.894  -5.547  0.00  0.00    -0.025 A 
HETATM   10  C   UNK N   1      26.948  28.154  -4.294  0.00  0.00     0.012 A 
HETATM   11  C   UNK N   1      26.711  27.355  -6.584  0.00  0.00    -0.019 A 
HETATM   12  C   UNK N   1      25.594  27.890  -4.065  0.00  0.00     0.001 A 
HETATM   13  C   UNK N   1      24.795  27.380  -5.091  0.00  0.00     0.001 A 
HETATM   14  C   UNK N   1      25.351  27.112  -6.344  0.00  0.00     0.013 A 
ENDBRANCH   4   5
ENDBRANCH   3   4
ENDBRANCH   2   3
ENDBRANCH   1   2
BRANCH   1  15
HETATM   15  C   UNK N   1      25.070  21.722  -7.354  0.00  0.00     0.136 C 
HETATM   16  N   UNK N   1      25.468  20.792  -8.161  0.00  0.00    -0.363 N 
ATOM     17  HN  UNK N   1      24.892  19.956  -8.249  1.00  0.00     0.161 HD
BRANCH  16  18
HETATM   18  C   UNK N   1      26.679  20.868  -8.946  0.00  0.00     0.231 C 
BRANCH  18  19
HETATM   19  C   UNK N   1      26.340  21.135 -10.374  0.00  0.00     0.158 C 
HETATM   20  O   UNK N   1      27.179  21.607 -11.123  0.00  0.00    -0.649 OA
BRANCH  19  21
HETATM   21  O   UNK N   1      25.107  20.858 -10.839  0.00  0.00    -0.775 OA
HETATM   22  H   UNK N   1      24.910  20.364 -11.609  0.00  0.00     0.167 HD
ENDBRANCH  19  21
ENDBRANCH  18  19
ENDBRANCH  16  18
BRANCH  15  23
HETATM   23  O   UNK N   1      23.948  21.514  -6.636  0.00  0.00    -0.348 OA
HETATM   24  H   UNK N   1      23.708  21.480  -5.732  0.00  0.00     0.219 HD
ENDBRANCH  15  23
ENDBRANCH   1  15
BRANCH   1  25
HETATM   25  N   UNK N   1      25.544  23.493  -5.809  0.00  0.00    -0.362 N 
HETATM   26  C   UNK N   1      26.416  23.954  -4.974  0.00  0.00     0.111 C 
ATOM     27  HN  UNK N   1      24.569  23.468  -5.508  1.00  0.00     0.162 HD
BRANCH  26  28
HETATM   28  C   UNK N   1      27.876  24.052  -5.323  0.00  0.00     0.086 C 
BRANCH  28  29
HETATM   29  C   UNK N   1      28.667  24.631  -4.160  0.00  0.00     0.043 C 
BRANCH  29  30
HETATM   30  C   UNK N   1      29.705  23.639  -3.638  0.00  0.00     0.173 C 
BRANCH  30  31
HETATM   31  C   UNK N   1      29.375  23.209  -2.230  0.00  0.00     0.163 C 
HETATM   32  O   UNK N   1      30.275  22.989  -1.422  0.00  0.00    -0.648 OA
BRANCH  31  33
HETATM   33  O   UNK N   1      28.097  23.073  -1.841  0.00  0.00    -0.775 OA
HETATM   34  H   UNK N   1      27.778  22.278  -1.462  0.00  0.00     0.167 HD
ENDBRANCH  31  33
ENDBRANCH  30  31
BRANCH  30  35
HETATM   35  N   UNK N   1      29.740  22.496  -4.533  0.00  0.00    -0.418 N 
HETATM   36  H   UNK N   1      29.229  21.634  -4.340  0.00  0.00     0.150 HD
HETATM   37  H   UNK N   1      30.295  22.558  -5.386  0.00  0.00     0.150 HD
ENDBRANCH  30  35
ENDBRANCH  29  30
ENDBRANCH  28  29
ENDBRANCH  26  28
BRANCH  26  38
HETATM   38  O   UNK N   1      26.011  24.325  -3.747  0.00  0.00    -0.350 OA
HETATM   39  H   UNK N   1      25.307  24.306  -3.129  0.00  0.00     0.219 HD
ENDBRANCH  26  38
ENDBRANCH   1  25
TORSDOF 17
ENDMDL
MODEL 3
REMARK VINA RESULT:      -6.9     11.333     14.430
REMARK  17 active torsions:
REMARK  status: ('A' for Active; 'I' for Inactive)
REMARK    1  A    between atoms: C_9  and  C_8 
REMARK    2  A    between atoms: C_16  and  C_8 
REMARK    3  A    between atoms: C_18  and  C_9 
REMARK    4  A    between atoms: C_19  and  C_10 
REMARK    5  A    between atoms: N_23  and  C_10 
REMARK    6  A    between atoms: C_14  and  C_11 
REMARK    7  A    between atoms: S_33  and  C_11 
REMARK    8  A    between atoms: C_17  and  C_12 
REMARK    9  A    between atoms: S_33  and  C_12 
REMARK   10  A    between atoms: C_21  and  C_16 
REMARK   11  A    between atoms: C_16  and  N_22 
REMARK   12  A    between atoms: C_20  and  C_17 
REMARK   13  A    between atoms: C_17  and  N_25 
REMARK   14  A    between atoms: C_18  and  O_27 
REMARK   15  A    between atoms: O_29  and  C_19 
REMARK   16  A    between atoms: O_30  and  C_20 
REMARK   17  A    between atoms: O_32  and  C_21 
ROOT
HETATM    1  C   UNK N   1      35.375  14.847   9.523  0.00  0.00     0.167 C 
ENDROOT
BRANCH   1   2
HETATM    2  C   UNK N   1      36.647  14.013   9.717  0.00  0.00     0.107 C 
BRANCH   2   3
HETATM    3  S   UNK N   1      36.374  12.304  10.292  0.00  0.00    -0.162 SA
BRANCH   3   4
HETATM    4  C   UNK N   1      36.864  12.703  12.001  0.00  0.00     0.113 C 
BRANCH   4   5
HETATM    5  C   UNK N   1      35.858  12.144  12.954  0.00  0.00    -0.038 A 
HETATM    6  C   UNK N   1      34.982  11.151  12.502  0.00  0.00     0.009 A 
HETATM    7  C   UNK N   1      34.003  10.629  13.351  0.00  0.00     0.001 A 
HETATM    8  C   UNK N   1      33.879  11.109  14.657  0.00  0.00     0.012 A 
HETATM    9  C   UNK N   1      34.746  12.098  15.125  0.00  0.00    -0.025 A 
HETATM   10  C   UNK N   1      34.611  12.583  16.429  0.00  0.00     0.012 A 
HETATM   11  C   UNK N   1      35.755  12.615  14.278  0.00  0.00    -0.019 A 
HETATM   12  C   UNK N   1      35.478  13.573  16.903  0.00  0.00     0.001 A 
HETATM   13  C   UNK N   1      36.490  14.070  16.079  0.00  0.00     0.001 A 
HETATM   14  C   UNK N   1      36.628  13.596  14.772  0.00  0.00     0.013 A 
ENDBRANCH   4   5
ENDBRANCH   3   4
ENDBRANCH   2   3
ENDBRANCH   1   2
BRANCH   1  15
HETATM   15  C   UNK N   1      35.275  16.039  10.460  0.00  0.00     0.136 C 
HETATM   16  N   UNK N   1      34.589  17.096  10.171  0.00  0.00    -0.363 N 
ATOM     17  HN  UNK N   1      34.570  17.855  10.851  1.00  0.00     0.161 HD
BRANCH  16  18
HETATM   18  C   UNK N   1      33.850  17.268   8.941  0.00  0.00     0.231 C 
BRANCH  18  19
HETATM   19  C   UNK N   1      34.585  18.198   8.035  0.00  0.00     0.158 C 
HETATM   20  O   UNK N   1      34.544  18.033   6.827  0.00  0.00    -0.649 OA
BRANCH  19  21
HETATM   21  O   UNK N   1      35.297  19.219   8.548  0.00  0.00    -0.775 OA
HETATM   22  H   UNK N   1      36.197  19.404   8.366  0.00  0.00     0.167 HD
ENDBRANCH  19  21
ENDBRANCH  18  19
ENDBRANCH  16  18
BRANCH  15  23
HETATM   23  O   UNK N   1      35.882  15.973  11.662  0.00  0.00    -0.348 OA
HETATM   24  H   UNK N   1      36.679  16.279  12.046  0.00  0.00     0.219 HD
ENDBRANCH  15  23
ENDBRANCH   1  15
BRANCH   1  25
HETATM   25  N   UNK N   1      34.193  14.030   9.722  0.00  0.00    -0.362 N 
HETATM   26  C   UNK N   1      33.427  13.597   8.775  0.00  0.00     0.111 C 
ATOM     27  HN  UNK N   1      33.948  13.778  10.680  1.00  0.00     0.162 HD
BRANCH  26  28
HETATM   28  C   UNK N   1      33.706  13.895   7.327  0.00  0.00     0.086 C 
BRANCH  28  29
HETATM   29  C   UNK N   1      32.415  13.903   6.523  0.00  0.00     0.043 C 
BRANCH  29  30
HETATM   30  C   UNK N   1      32.371  15.075   5.544  0.00  0.00     0.173 C 
BRANCH  30  31
HETATM   31  C   UNK N   1      31.578  16.223   6.117  0.00  0.00     0.163 C 
HETATM   32  O   UNK N   1      30.646  16.009   6.888  0.00  0.00    -0.648 OA
BRANCH  31  33
HETATM   33  O   UNK N   1      31.890  17.490   5.801  0.00  0.00    -0.775 OA
HETATM   34  H   UNK N   1      31.246  18.094   5.488  0.00  0.00     0.167 HD
ENDBRANCH  31  33
ENDBRANCH  30  31
BRANCH  30  35
HETATM   35  N   UNK N   1      33.733  15.482   5.252  0.00  0.00    -0.418 N 
HETATM   36  H   UNK N   1      34.459  15.519   5.968  0.00  0.00     0.150 HD
HETATM   37  H   UNK N   1      33.974  15.740   4.295  0.00  0.00     0.150 HD
ENDBRANCH  30  35
ENDBRANCH  29  30
ENDBRANCH  28  29
ENDBRANCH  26  28
BRANCH  26  38
HETATM   38  O   UNK N   1      32.330  12.888   9.097  0.00  0.00    -0.350 OA
HETATM   39  H   UNK N   1      31.937  12.038   9.103  0.00  0.00     0.219 HD
ENDBRANCH  26  38
ENDBRANCH   1  25
TORSDOF 17
ENDMDL
MODEL 4
REMARK VINA RESULT:      -6.8      9.762     12.753
REMARK  17 active torsions:
REMARK  status: ('A' for Active; 'I' for Inactive)
REMARK    1  A    between atoms: C_9  and  C_8 
REMARK    2  A    between atoms: C_16  and  C_8 
REMARK    3  A    between atoms: C_18  and  C_9 
REMARK    4  A    between atoms: C_19  and  C_10 
REMARK    5  A    between atoms: N_23  and  C_10 
REMARK    6  A    between atoms: C_14  and  C_11 
REMARK    7  A    between atoms: S_33  and  C_11 
REMARK    8  A    between atoms: C_17  and  C_12 
REMARK    9  A    between atoms: S_33  and  C_12 
REMARK   10  A    between atoms: C_21  and  C_16 
REMARK   11  A    between atoms: C_16  and  N_22 
REMARK   12  A    between atoms: C_20  and  C_17 
REMARK   13  A    between atoms: C_17  and  N_25 
REMARK   14  A    between atoms: C_18  and  O_27 
REMARK   15  A    between atoms: O_29  and  C_19 
REMARK   16  A    between atoms: O_30  and  C_20 
REMARK   17  A    between atoms: O_32  and  C_21 
ROOT
HETATM    1  C   UNK N   1      32.196  14.713   5.808  0.00  0.00     0.167 C 
ENDROOT
BRANCH   1   2
HETATM    2  C   UNK N   1      31.177  14.533   4.676  0.00  0.00     0.107 C 
BRANCH   2   3
HETATM    3  S   UNK N   1      29.440  14.839   5.141  0.00  0.00    -0.162 SA
BRANCH   3   4
HETATM    4  C   UNK N   1      29.547  16.612   4.729  0.00  0.00     0.113 C 
BRANCH   4   5
HETATM    5  C   UNK N   1      29.139  17.426   5.914  0.00  0.00    -0.038 A 
HETATM    6  C   UNK N   1      29.507  16.988   7.191  0.00  0.00     0.009 A 
HETATM    7  C   UNK N   1      29.114  17.701   8.326  0.00  0.00     0.001 A 
HETATM    8  C   UNK N   1      28.332  18.851   8.196  0.00  0.00     0.012 A 
HETATM    9  C   UNK N   1      27.957  19.304   6.929  0.00  0.00    -0.025 A 
HETATM   10  C   UNK N   1      27.165  20.449   6.805  0.00  0.00     0.012 A 
HETATM   11  C   UNK N   1      28.372  18.599   5.773  0.00  0.00    -0.019 A 
HETATM   12  C   UNK N   1      26.789  20.906   5.538  0.00  0.00     0.001 A 
HETATM   13  C   UNK N   1      27.214  20.229   4.393  0.00  0.00     0.001 A 
HETATM   14  C   UNK N   1      28.001  19.079   4.509  0.00  0.00     0.013 A 
ENDBRANCH   4   5
ENDBRANCH   3   4
ENDBRANCH   2   3
ENDBRANCH   1   2
BRANCH   1  15
HETATM   15  C   UNK N   1      33.549  15.222   5.340  0.00  0.00     0.136 C 
HETATM   16  N   UNK N   1      33.884  16.469   5.403  0.00  0.00    -0.363 N 
ATOM     17  HN  UNK N   1      34.811  16.732   5.069  1.00  0.00     0.161 HD
BRANCH  16  18
HETATM   18  C   UNK N   1      33.024  17.511   5.916  0.00  0.00     0.231 C 
BRANCH  18  19
HETATM   19  C   UNK N   1      33.493  17.932   7.269  0.00  0.00     0.158 C 
HETATM   20  O   UNK N   1      32.699  18.012   8.191  0.00  0.00    -0.649 OA
BRANCH  19  21
HETATM   21  O   UNK N   1      34.790  18.226   7.474  0.00  0.00    -0.775 OA
HETATM   22  H   UNK N   1      35.464  17.612   7.685  0.00  0.00     0.167 HD
ENDBRANCH  19  21
ENDBRANCH  18  19
ENDBRANCH  16  18
BRANCH  15  23
HETATM   23  O   UNK N   1      34.456  14.332   4.888  0.00  0.00    -0.348 OA
HETATM   24  H   UNK N   1      35.271  14.357   4.427  0.00  0.00     0.219 HD
ENDBRANCH  15  23
ENDBRANCH   1  15
BRANCH   1  25
HETATM   25  N   UNK N   1      32.414  13.459   6.504  0.00  0.00    -0.362 N 
HETATM   26  C   UNK N   1      32.805  13.354   7.731  0.00  0.00     0.111 C 
ATOM     27  HN  UNK N   1      32.245  12.596   5.987  1.00  0.00     0.162 HD
BRANCH  26  28
HETATM   28  C   UNK N   1      33.064  14.563   8.589  0.00  0.00     0.086 C 
BRANCH  28  29
HETATM   29  C   UNK N   1      34.550  14.703   8.882  0.00  0.00     0.043 C 
BRANCH  29  30
HETATM   30  C   UNK N   1      34.808  14.970  10.363  0.00  0.00     0.173 C 
BRANCH  30  31
HETATM   31  C   UNK N   1      35.628  16.223  10.548  0.00  0.00     0.163 C 
HETATM   32  O   UNK N   1      35.106  17.328  10.428  0.00  0.00    -0.648 OA
BRANCH  31  33
HETATM   33  O   UNK N   1      36.933  16.143  10.859  0.00  0.00    -0.775 OA
HETATM   34  H   UNK N   1      37.470  16.907  10.932  0.00  0.00     0.167 HD
ENDBRANCH  31  33
ENDBRANCH  30  31
BRANCH  30  35
HETATM   35  N   UNK N   1      33.528  15.086  11.039  0.00  0.00    -0.418 N 
HETATM   36  H   UNK N   1      33.272  15.905  11.590  0.00  0.00     0.150 HD
HETATM   37  H   UNK N   1      32.861  14.319  10.960  0.00  0.00     0.150 HD
ENDBRANCH  30  35
ENDBRANCH  29  30
ENDBRANCH  28  29
ENDBRANCH  26  28
BRANCH  26  38
HETATM   38  O   UNK N   1      33.017  12.130   8.245  0.00  0.00    -0.350 OA
HETATM   39  H   UNK N   1      33.256  11.244   8.054  0.00  0.00     0.219 HD
ENDBRANCH  26  38
ENDBRANCH   1  25
TORSDOF 17
ENDMDL
MODEL 5
REMARK VINA RESULT:      -6.8      3.885      6.573
REMARK  17 active torsions:
REMARK  status: ('A' for Active; 'I' for Inactive)
REMARK    1  A    between atoms: C_9  and  C_8 
REMARK    2  A    between atoms: C_16  and  C_8 
REMARK    3  A    between atoms: C_18  and  C_9 
REMARK    4  A    between atoms: C_19  and  C_10 
REMARK    5  A    between atoms: N_23  and  C_10 
REMARK    6  A    between atoms: C_14  and  C_11 
REMARK    7  A    between atoms: S_33  and  C_11 
REMARK    8  A    between atoms: C_17  and  C_12 
REMARK    9  A    between atoms: S_33  and  C_12 
REMARK   10  A    between atoms: C_21  and  C_16 
REMARK   11  A    between atoms: C_16  and  N_22 
REMARK   12  A    between atoms: C_20  and  C_17 
REMARK   13  A    between atoms: C_17  and  N_25 
REMARK   14  A    between atoms: C_18  and  O_27 
REMARK   15  A    between atoms: O_29  and  C_19 
REMARK   16  A    between atoms: O_30  and  C_20 
REMARK   17  A    between atoms: O_32  and  C_21 
ROOT
HETATM    1  C   UNK N   1      21.340  15.394   6.377  0.00  0.00     0.167 C 
ENDROOT
BRANCH   1   2
HETATM    2  C   UNK N   1      22.603  14.530   6.274  0.00  0.00     0.107 C 
BRANCH   2   3
HETATM    3  S   UNK N   1      23.690  14.912   4.860  0.00  0.00    -0.162 SA
BRANCH   3   4
HETATM    4  C   UNK N   1      23.845  16.665   5.335  0.00  0.00     0.113 C 
BRANCH   4   5
HETATM    5  C   UNK N   1      25.249  17.123   5.106  0.00  0.00    -0.038 A 
HETATM    6  C   UNK N   1      26.300  16.362   5.631  0.00  0.00     0.009 A 
HETATM    7  C   UNK N   1      27.624  16.777   5.469  0.00  0.00     0.001 A 
HETATM    8  C   UNK N   1      27.910  17.967   4.796  0.00  0.00     0.012 A 
HETATM    9  C   UNK N   1      26.874  18.736   4.263  0.00  0.00    -0.025 A 
HETATM   10  C   UNK N   1      27.164  19.932   3.600  0.00  0.00     0.012 A 
HETATM   11  C   UNK N   1      25.531  18.311   4.403  0.00  0.00    -0.019 A 
HETATM   12  C   UNK N   1      26.129  20.705   3.064  0.00  0.00     0.001 A 
HETATM   13  C   UNK N   1      24.804  20.279   3.178  0.00  0.00     0.001 A 
HETATM   14  C   UNK N   1      24.505  19.088   3.846  0.00  0.00     0.013 A 
ENDBRANCH   4   5
ENDBRANCH   3   4
ENDBRANCH   2   3
ENDBRANCH   1   2
BRANCH   1  15
HETATM   15  C   UNK N   1      20.496  15.101   7.605  0.00  0.00     0.136 C 
HETATM   16  N   UNK N   1      20.016  16.035   8.360  0.00  0.00    -0.363 N 
ATOM     17  HN  UNK N   1      19.458  15.758   9.167  1.00  0.00     0.161 HD
BRANCH  16  18
HETATM   18  C   UNK N   1      20.226  17.446   8.130  0.00  0.00     0.231 C 
BRANCH  18  19
HETATM   19  C   UNK N   1      19.469  18.241   9.142  0.00  0.00     0.158 C 
HETATM   20  O   UNK N   1      20.028  19.130   9.761  0.00  0.00    -0.649 OA
BRANCH  19  21
HETATM   21  O   UNK N   1      18.171  17.975   9.376  0.00  0.00    -0.775 OA
HETATM   22  H   UNK N   1      17.804  17.128   9.531  0.00  0.00     0.167 HD
ENDBRANCH  19  21
ENDBRANCH  18  19
ENDBRANCH  16  18
BRANCH  15  23
HETATM   23  O   UNK N   1      20.190  13.820   7.893  0.00  0.00    -0.348 OA
HETATM   24  H   UNK N   1      20.179  13.269   8.650  0.00  0.00     0.219 HD
ENDBRANCH  15  23
ENDBRANCH   1  15
BRANCH   1  25
HETATM   25  N   UNK N   1      20.498  15.211   5.210  0.00  0.00    -0.362 N 
HETATM   26  C   UNK N   1      20.113  16.160   4.422  0.00  0.00     0.111 C 
ATOM     27  HN  UNK N   1      20.188  14.263   4.995  1.00  0.00     0.162 HD
BRANCH  26  28
HETATM   28  C   UNK N   1      20.527  17.590   4.637  0.00  0.00     0.086 C 
BRANCH  28  29
HETATM   29  C   UNK N   1      21.010  18.209   3.334  0.00  0.00     0.043 C 
BRANCH  29  30
HETATM   30  C   UNK N   1      20.113  19.365   2.895  0.00  0.00     0.173 C 
BRANCH  30  31
HETATM   31  C   UNK N   1      20.872  20.332   2.021  0.00  0.00     0.163 C 
HETATM   32  O   UNK N   1      20.921  20.162   0.806  0.00  0.00    -0.648 OA
BRANCH  31  33
HETATM   33  O   UNK N   1      21.491  21.396   2.561  0.00  0.00    -0.775 OA
HETATM   34  H   UNK N   1      22.121  21.896   2.080  0.00  0.00     0.167 HD
ENDBRANCH  31  33
ENDBRANCH  30  31
BRANCH  30  35
HETATM   35  N   UNK N   1      18.970  18.817   2.187  0.00  0.00    -0.418 N 
HETATM   36  H   UNK N   1      18.488  19.327   1.447  0.00  0.00     0.150 HD
HETATM   37  H   UNK N   1      18.637  17.886   2.440  0.00  0.00     0.150 HD
ENDBRANCH  30  35
ENDBRANCH  29  30
ENDBRANCH  28  29
ENDBRANCH  26  28
BRANCH  26  38
HETATM   38  O   UNK N   1      19.291  15.865   3.399  0.00  0.00    -0.350 OA
HETATM   39  H   UNK N   1      18.439  15.556   3.160  0.00  0.00     0.219 HD
ENDBRANCH  26  38
ENDBRANCH   1  25
TORSDOF 17
ENDMDL
MODEL 6
REMARK VINA RESULT:      -6.8      2.985      4.463
REMARK  17 active torsions:
REMARK  status: ('A' for Active; 'I' for Inactive)
REMARK    1  A    between atoms: C_9  and  C_8 
REMARK    2  A    between atoms: C_16  and  C_8 
REMARK    3  A    between atoms: C_18  and  C_9 
REMARK    4  A    between atoms: C_19  and  C_10 
REMARK    5  A    between atoms: N_23  and  C_10 
REMARK    6  A    between atoms: C_14  and  C_11 
REMARK    7  A    between atoms: S_33  and  C_11 
REMARK    8  A    between atoms: C_17  and  C_12 
REMARK    9  A    between atoms: S_33  and  C_12 
REMARK   10  A    between atoms: C_21  and  C_16 
REMARK   11  A    between atoms: C_16  and  N_22 
REMARK   12  A    between atoms: C_20  and  C_17 
REMARK   13  A    between atoms: C_17  and  N_25 
REMARK   14  A    between atoms: C_18  and  O_27 
REMARK   15  A    between atoms: O_29  and  C_19 
REMARK   16  A    between atoms: O_30  and  C_20 
REMARK   17  A    between atoms: O_32  and  C_21 
ROOT
HETATM    1  C   UNK N   1      20.494  16.425   5.227  0.00  0.00     0.167 C 
ENDROOT
BRANCH   1   2
HETATM    2  C   UNK N   1      21.852  15.815   5.596  0.00  0.00     0.107 C 
BRANCH   2   3
HETATM    3  S   UNK N   1      21.803  14.065   6.108  0.00  0.00    -0.162 SA
BRANCH   3   4
HETATM    4  C   UNK N   1      22.793  14.381   7.605  0.00  0.00     0.113 C 
BRANCH   4   5
HETATM    5  C   UNK N   1      22.121  13.766   8.789  0.00  0.00    -0.038 A 
HETATM    6  C   UNK N   1      20.733  13.893   8.917  0.00  0.00     0.009 A 
HETATM    7  C   UNK N   1      20.071  13.364  10.028  0.00  0.00     0.001 A 
HETATM    8  C   UNK N   1      20.795  12.717  11.032  0.00  0.00     0.012 A 
HETATM    9  C   UNK N   1      22.180  12.579  10.920  0.00  0.00    -0.025 A 
HETATM   10  C   UNK N   1      22.901  11.941  11.934  0.00  0.00     0.012 A 
HETATM   11  C   UNK N   1      22.854  13.092   9.786  0.00  0.00    -0.019 A 
HETATM   12  C   UNK N   1      24.288  11.799  11.825  0.00  0.00     0.001 A 
HETATM   13  C   UNK N   1      24.955  12.283  10.697  0.00  0.00     0.001 A 
HETATM   14  C   UNK N   1      24.243  12.928   9.683  0.00  0.00     0.013 A 
ENDBRANCH   4   5
ENDBRANCH   3   4
ENDBRANCH   2   3
ENDBRANCH   1   2
BRANCH   1  15
HETATM   15  C   UNK N   1      19.366  16.017   6.159  0.00  0.00     0.136 C 
HETATM   16  N   UNK N   1      19.231  16.509   7.347  0.00  0.00    -0.363 N 
ATOM     17  HN  UNK N   1      18.447  16.185   7.912  1.00  0.00     0.161 HD
BRANCH  16  18
HETATM   18  C   UNK N   1      20.124  17.489   7.921  0.00  0.00     0.231 C 
BRANCH  18  19
HETATM   19  C   UNK N   1      19.471  18.142   9.094  0.00  0.00     0.158 C 
HETATM   20  O   UNK N   1      18.377  17.760   9.473  0.00  0.00    -0.649 OA
BRANCH  19  21
HETATM   21  O   UNK N   1      20.086  19.155   9.732  0.00  0.00    -0.775 OA
HETATM   22  H   UNK N   1      20.952  19.465   9.559  0.00  0.00     0.167 HD
ENDBRANCH  19  21
ENDBRANCH  18  19
ENDBRANCH  16  18
BRANCH  15  23
HETATM   23  O   UNK N   1      18.439  15.145   5.713  0.00  0.00    -0.348 OA
HETATM   24  H   UNK N   1      17.668  14.731   6.048  0.00  0.00     0.219 HD
ENDBRANCH  15  23
ENDBRANCH   1  15
BRANCH   1  25
HETATM   25  N   UNK N   1      20.112  16.045   3.880  0.00  0.00    -0.362 N 
HETATM   26  C   UNK N   1      19.865  16.876   2.921  0.00  0.00     0.111 C 
ATOM     27  HN  UNK N   1      20.034  15.049   3.674  1.00  0.00     0.162 HD
BRANCH  26  28
HETATM   28  C   UNK N   1      19.969  18.365   3.112  0.00  0.00     0.086 C 
BRANCH  28  29
HETATM   29  C   UNK N   1      21.257  18.894   2.502  0.00  0.00     0.043 C 
BRANCH  29  30
HETATM   30  C   UNK N   1      21.235  20.416   2.376  0.00  0.00     0.173 C 
BRANCH  30  31
HETATM   31  C   UNK N   1      20.821  20.834   0.987  0.00  0.00     0.163 C 
HETATM   32  O   UNK N   1      20.660  22.022   0.719  0.00  0.00    -0.648 OA
BRANCH  31  33
HETATM   33  O   UNK N   1      20.638  19.913   0.025  0.00  0.00    -0.775 OA
HETATM   34  H   UNK N   1      21.254  19.223  -0.121  0.00  0.00     0.167 HD
ENDBRANCH  31  33
ENDBRANCH  30  31
BRANCH  30  35
HETATM   35  N   UNK N   1      20.318  20.947   3.369  0.00  0.00    -0.418 N 
HETATM   36  H   UNK N   1      19.325  20.715   3.376  0.00  0.00     0.150 HD
HETATM   37  H   UNK N   1      20.681  21.574   4.087  0.00  0.00     0.150 HD
ENDBRANCH  30  35
ENDBRANCH  29  30
ENDBRANCH  28  29
ENDBRANCH  26  28
BRANCH  26  38
HETATM   38  O   UNK N   1      19.471  16.396   1.728  0.00  0.00    -0.350 OA
HETATM   39  H   UNK N   1      19.723  15.893   0.979  0.00  0.00     0.219 HD
ENDBRANCH  26  38
ENDBRANCH   1  25
TORSDOF 17
ENDMDL
MODEL 7
REMARK VINA RESULT:      -6.7     13.772     17.019
REMARK  17 active torsions:
REMARK  status: ('A' for Active; 'I' for Inactive)
REMARK    1  A    between atoms: C_9  and  C_8 
REMARK    2  A    between atoms: C_16  and  C_8 
REMARK    3  A    between atoms: C_18  and  C_9 
REMARK    4  A    between atoms: C_19  and  C_10 
REMARK    5  A    between atoms: N_23  and  C_10 
REMARK    6  A    between atoms: C_14  and  C_11 
REMARK    7  A    between atoms: S_33  and  C_11 
REMARK    8  A    between atoms: C_17  and  C_12 
REMARK    9  A    between atoms: S_33  and  C_12 
REMARK   10  A    between atoms: C_21  and  C_16 
REMARK   11  A    between atoms: C_16  and  N_22 
REMARK   12  A    between atoms: C_20  and  C_17 
REMARK   13  A    between atoms: C_17  and  N_25 
REMARK   14  A    between atoms: C_18  and  O_27 
REMARK   15  A    between atoms: O_29  and  C_19 
REMARK   16  A    between atoms: O_30  and  C_20 
REMARK   17  A    between atoms: O_32  and  C_21 
ROOT
HETATM    1  C   UNK N   1      28.304  24.263  -4.657  0.00  0.00     0.167 C 
ENDROOT
BRANCH   1   2
HETATM    2  C   UNK N   1      28.851  25.538  -5.310  0.00  0.00     0.107 C 
BRANCH   2   3
HETATM    3  S   UNK N   1      28.923  25.505  -7.133  0.00  0.00    -0.162 SA
BRANCH   3   4
HETATM    4  C   UNK N   1      27.504  26.637  -7.300  0.00  0.00     0.113 C 
BRANCH   4   5
HETATM    5  C   UNK N   1      27.932  28.029  -6.964  0.00  0.00    -0.038 A 
HETATM    6  C   UNK N   1      28.896  28.649  -7.767  0.00  0.00     0.009 A 
HETATM    7  C   UNK N   1      29.350  29.935  -7.465  0.00  0.00     0.001 A 
HETATM    8  C   UNK N   1      28.855  30.608  -6.345  0.00  0.00     0.012 A 
HETATM    9  C   UNK N   1      27.891  30.006  -5.535  0.00  0.00    -0.025 A 
HETATM   10  C   UNK N   1      27.407  30.679  -4.409  0.00  0.00     0.012 A 
HETATM   11  C   UNK N   1      27.409  28.712  -5.848  0.00  0.00    -0.019 A 
HETATM   12  C   UNK N   1      26.440  30.080  -3.596  0.00  0.00     0.001 A 
HETATM   13  C   UNK N   1      25.945  28.813  -3.913  0.00  0.00     0.001 A 
HETATM   14  C   UNK N   1      26.428  28.131  -5.032  0.00  0.00     0.013 A 
ENDBRANCH   4   5
ENDBRANCH   3   4
ENDBRANCH   2   3
ENDBRANCH   1   2
BRANCH   1  15
HETATM   15  C   UNK N   1      26.803  24.289  -4.423  0.00  0.00     0.136 C 
HETATM   16  N   UNK N   1      25.963  23.728  -5.229  0.00  0.00    -0.363 N 
ATOM     17  HN  UNK N   1      24.970  23.789  -5.004  1.00  0.00     0.161 HD
BRANCH  16  18
HETATM   18  C   UNK N   1      26.345  23.021  -6.431  0.00  0.00     0.231 C 
BRANCH  18  19
HETATM   19  C   UNK N   1      25.125  22.533  -7.139  0.00  0.00     0.158 C 
HETATM   20  O   UNK N   1      24.473  21.616  -6.669  0.00  0.00    -0.649 OA
BRANCH  19  21
HETATM   21  O   UNK N   1      24.745  23.101  -8.299  0.00  0.00    -0.775 OA
HETATM   22  H   UNK N   1      25.140  22.956  -9.135  0.00  0.00     0.167 HD
ENDBRANCH  19  21
ENDBRANCH  18  19
ENDBRANCH  16  18
BRANCH  15  23
HETATM   23  O   UNK N   1      26.331  24.877  -3.305  0.00  0.00    -0.348 OA
HETATM   24  H   UNK N   1      26.637  25.496  -2.673  0.00  0.00     0.219 HD
ENDBRANCH  15  23
ENDBRANCH   1  15
BRANCH   1  25
HETATM   25  N   UNK N   1      28.945  24.029  -3.377  0.00  0.00    -0.362 N 
HETATM   26  C   UNK N   1      29.874  23.156  -3.165  0.00  0.00     0.111 C 
ATOM     27  HN  UNK N   1      28.641  24.596  -2.585  1.00  0.00     0.162 HD
BRANCH  26  28
HETATM   28  C   UNK N   1      30.409  22.281  -4.266  0.00  0.00     0.086 C 
BRANCH  28  29
HETATM   29  C   UNK N   1      30.862  20.938  -3.711  0.00  0.00     0.043 C 
BRANCH  29  30
HETATM   30  C   UNK N   1      32.278  20.592  -4.167  0.00  0.00     0.173 C 
BRANCH  30  31
HETATM   31  C   UNK N   1      33.284  20.932  -3.096  0.00  0.00     0.163 C 
HETATM   32  O   UNK N   1      34.486  20.922  -3.350  0.00  0.00    -0.648 OA
BRANCH  31  33
HETATM   33  O   UNK N   1      32.878  21.261  -1.859  0.00  0.00    -0.775 OA
HETATM   34  H   UNK N   1      32.039  21.648  -1.702  0.00  0.00     0.167 HD
ENDBRANCH  31  33
ENDBRANCH  30  31
BRANCH  30  35
HETATM   35  N   UNK N   1      32.324  19.176  -4.488  0.00  0.00    -0.418 N 
HETATM   36  H   UNK N   1      32.204  18.450  -3.782  0.00  0.00     0.150 HD
HETATM   37  H   UNK N   1      32.481  18.898  -5.457  0.00  0.00     0.150 HD
ENDBRANCH  30  35
ENDBRANCH  29  30
ENDBRANCH  28  29
ENDBRANCH  26  28
BRANCH  26  38
HETATM   38  O   UNK N   1      30.353  23.002  -1.917  0.00  0.00    -0.350 OA
HETATM   39  H   UNK N   1      30.304  22.497  -1.130  0.00  0.00     0.219 HD
ENDBRANCH  26  38
ENDBRANCH   1  25
TORSDOF 17
ENDMDL
MODEL 8
REMARK VINA RESULT:      -6.6     12.771     16.027
REMARK  17 active torsions:
REMARK  status: ('A' for Active; 'I' for Inactive)
REMARK    1  A    between atoms: C_9  and  C_8 
REMARK    2  A    between atoms: C_16  and  C_8 
REMARK    3  A    between atoms: C_18  and  C_9 
REMARK    4  A    between atoms: C_19  and  C_10 
REMARK    5  A    between atoms: N_23  and  C_10 
REMARK    6  A    between atoms: C_14  and  C_11 
REMARK    7  A    between atoms: S_33  and  C_11 
REMARK    8  A    between atoms: C_17  and  C_12 
REMARK    9  A    between atoms: S_33  and  C_12 
REMARK   10  A    between atoms: C_21  and  C_16 
REMARK   11  A    between atoms: C_16  and  N_22 
REMARK   12  A    between atoms: C_20  and  C_17 
REMARK   13  A    between atoms: C_17  and  N_25 
REMARK   14  A    between atoms: C_18  and  O_27 
REMARK   15  A    between atoms: O_29  and  C_19 
REMARK   16  A    between atoms: O_30  and  C_20 
REMARK   17  A    between atoms: O_32  and  C_21 
ROOT
HETATM    1  C   UNK N   1      35.002  14.046  11.154  0.00  0.00     0.167 C 
ENDROOT
BRANCH   1   2
HETATM    2  C   UNK N   1      34.847  13.069  12.325  0.00  0.00     0.107 C 
BRANCH   2   3
HETATM    3  S   UNK N   1      35.977  11.637  12.296  0.00  0.00    -0.162 SA
BRANCH   3   4
HETATM    4  C   UNK N   1      37.068  12.355  13.566  0.00  0.00     0.113 C 
BRANCH   4   5
HETATM    5  C   UNK N   1      36.386  12.311  14.895  0.00  0.00    -0.038 A 
HETATM    6  C   UNK N   1      35.660  11.165  15.241  0.00  0.00     0.009 A 
HETATM    7  C   UNK N   1      34.978  11.099  16.458  0.00  0.00     0.001 A 
HETATM    8  C   UNK N   1      35.001  12.186  17.335  0.00  0.00     0.012 A 
HETATM    9  C   UNK N   1      35.723  13.336  17.007  0.00  0.00    -0.025 A 
HETATM   10  C   UNK N   1      35.734  14.425  17.883  0.00  0.00     0.012 A 
HETATM   11  C   UNK N   1      36.435  13.401  15.786  0.00  0.00    -0.019 A 
HETATM   12  C   UNK N   1      36.456  15.578  17.559  0.00  0.00     0.001 A 
HETATM   13  C   UNK N   1      37.180  15.639  16.366  0.00  0.00     0.001 A 
HETATM   14  C   UNK N   1      37.169  14.557  15.482  0.00  0.00     0.013 A 
ENDBRANCH   4   5
ENDBRANCH   3   4
ENDBRANCH   2   3
ENDBRANCH   1   2
BRANCH   1  15
HETATM   15  C   UNK N   1      36.141  15.036  11.329  0.00  0.00     0.136 C 
HETATM   16  N   UNK N   1      37.167  15.064  10.543  0.00  0.00    -0.363 N 
ATOM     17  HN  UNK N   1      37.891  15.759  10.725  1.00  0.00     0.161 HD
BRANCH  16  18
HETATM   18  C   UNK N   1      37.351  14.169   9.423  0.00  0.00     0.231 C 
BRANCH  18  19
HETATM   19  C   UNK N   1      38.620  13.402   9.593  0.00  0.00     0.158 C 
HETATM   20  O   UNK N   1      39.175  12.918   8.621  0.00  0.00    -0.649 OA
BRANCH  19  21
HETATM   21  O   UNK N   1      39.153  13.239  10.819  0.00  0.00    -0.775 OA
HETATM   22  H   UNK N   1      40.055  13.074  11.006  0.00  0.00     0.167 HD
ENDBRANCH  19  21
ENDBRANCH  18  19
ENDBRANCH  16  18
BRANCH  15  23
HETATM   23  O   UNK N   1      36.056  15.957  12.311  0.00  0.00    -0.348 OA
HETATM   24  H   UNK N   1      36.466  16.771  12.526  0.00  0.00     0.219 HD
ENDBRANCH  15  23
ENDBRANCH   1  15
BRANCH   1  25
HETATM   25  N   UNK N   1      33.783  14.807  10.958  0.00  0.00    -0.362 N 
HETATM   26  C   UNK N   1      33.221  15.018   9.813  0.00  0.00     0.111 C 
ATOM     27  HN  UNK N   1      33.336  15.204  11.784  1.00  0.00     0.162 HD
BRANCH  26  28
HETATM   28  C   UNK N   1      33.787  14.463   8.535  0.00  0.00     0.086 C 
BRANCH  28  29
HETATM   29  C   UNK N   1      32.935  14.881   7.346  0.00  0.00     0.043 C 
BRANCH  29  30
HETATM   30  C   UNK N   1      33.693  15.827   6.417  0.00  0.00     0.173 C 
BRANCH  30  31
HETATM   31  C   UNK N   1      33.568  17.255   6.885  0.00  0.00     0.163 C 
HETATM   32  O   UNK N   1      34.501  18.040   6.733  0.00  0.00    -0.648 OA
BRANCH  31  33
HETATM   33  O   UNK N   1      32.434  17.686   7.462  0.00  0.00    -0.775 OA
HETATM   34  H   UNK N   1      31.974  17.169   8.093  0.00  0.00     0.167 HD
ENDBRANCH  31  33
ENDBRANCH  30  31
BRANCH  30  35
HETATM   35  N   UNK N   1      35.085  15.415   6.378  0.00  0.00    -0.418 N 
HETATM   36  H   UNK N   1      35.823  16.015   6.011  0.00  0.00     0.150 HD
HETATM   37  H   UNK N   1      35.333  14.491   6.731  0.00  0.00     0.150 HD
ENDBRANCH  30  35
ENDBRANCH  29  30
ENDBRANCH  28  29
ENDBRANCH  26  28
BRANCH  26  38
HETATM   38  O   UNK N   1      32.116  15.784   9.761  0.00  0.00    -0.350 OA
HETATM   39  H   UNK N   1      31.602  16.360   9.230  0.00  0.00     0.219 HD
ENDBRANCH  26  38
ENDBRANCH   1  25
TORSDOF 17
ENDMDL
MODEL 9
REMARK VINA RESULT:      -6.6      4.262      6.767
REMARK  17 active torsions:
REMARK  status: ('A' for Active; 'I' for Inactive)
REMARK    1  A    between atoms: C_9  and  C_8 
REMARK    2  A    between atoms: C_16  and  C_8 
REMARK    3  A    between atoms: C_18  and  C_9 
REMARK    4  A    between atoms: C_19  and  C_10 
REMARK    5  A    between atoms: N_23  and  C_10 
REMARK    6  A    between atoms: C_14  and  C_11 
REMARK    7  A    between atoms: S_33  and  C_11 
REMARK    8  A    between atoms: C_17  and  C_12 
REMARK    9  A    between atoms: S_33  and  C_12 
REMARK   10  A    between atoms: C_21  and  C_16 
REMARK   11  A    between atoms: C_16  and  N_22 
REMARK   12  A    between atoms: C_20  and  C_17 
REMARK   13  A    between atoms: C_17  and  N_25 
REMARK   14  A    between atoms: C_18  and  O_27 
REMARK   15  A    between atoms: O_29  and  C_19 
REMARK   16  A    between atoms: O_30  and  C_20 
REMARK   17  A    between atoms: O_32  and  C_21 
ROOT
HETATM    1  C   UNK N   1      21.584  18.708   3.983  0.00  0.00     0.167 C 
ENDROOT
BRANCH   1   2
HETATM    2  C   UNK N   1      23.067  18.811   3.609  0.00  0.00     0.107 C 
BRANCH   2   3
HETATM    3  S   UNK N   1      24.125  17.472   4.253  0.00  0.00    -0.162 SA
BRANCH   3   4
HETATM    4  C   UNK N   1      25.649  18.250   3.626  0.00  0.00     0.113 C 
BRANCH   4   5
HETATM    5  C   UNK N   1      26.299  19.032   4.722  0.00  0.00    -0.038 A 
HETATM    6  C   UNK N   1      26.047  20.406   4.808  0.00  0.00     0.009 A 
HETATM    7  C   UNK N   1      26.664  21.178   5.795  0.00  0.00     0.001 A 
HETATM    8  C   UNK N   1      27.554  20.587   6.695  0.00  0.00     0.012 A 
HETATM    9  C   UNK N   1      27.814  19.217   6.624  0.00  0.00    -0.025 A 
HETATM   10  C   UNK N   1      28.714  18.632   7.520  0.00  0.00     0.012 A 
HETATM   11  C   UNK N   1      27.175  18.423   5.642  0.00  0.00    -0.019 A 
HETATM   12  C   UNK N   1      28.977  17.260   7.453  0.00  0.00     0.001 A 
HETATM   13  C   UNK N   1      28.332  16.468   6.501  0.00  0.00     0.001 A 
HETATM   14  C   UNK N   1      27.436  17.046   5.598  0.00  0.00     0.013 A 
ENDBRANCH   4   5
ENDBRANCH   3   4
ENDBRANCH   2   3
ENDBRANCH   1   2
BRANCH   1  15
HETATM   15  C   UNK N   1      20.671  19.549   3.108  0.00  0.00     0.136 C 
HETATM   16  N   UNK N   1      19.834  19.027   2.271  0.00  0.00    -0.363 N 
ATOM     17  HN  UNK N   1      19.254  19.658   1.718  1.00  0.00     0.161 HD
BRANCH  16  18
HETATM   18  C   UNK N   1      19.672  17.605   2.072  0.00  0.00     0.231 C 
BRANCH  18  19
HETATM   19  C   UNK N   1      20.273  17.206   0.765  0.00  0.00     0.158 C 
HETATM   20  O   UNK N   1      20.704  16.076   0.612  0.00  0.00    -0.649 OA
BRANCH  19  21
HETATM   21  O   UNK N   1      20.343  18.093  -0.245  0.00  0.00    -0.775 OA
HETATM   22  H   UNK N   1      19.661  18.677  -0.509  0.00  0.00     0.167 HD
ENDBRANCH  19  21
ENDBRANCH  18  19
ENDBRANCH  16  18
BRANCH  15  23
HETATM   23  O   UNK N   1      20.696  20.890   3.242  0.00  0.00    -0.348 OA
HETATM   24  H   UNK N   1      20.372  21.525   3.850  0.00  0.00     0.219 HD
ENDBRANCH  15  23
ENDBRANCH   1  15
BRANCH   1  25
HETATM   25  N   UNK N   1      21.374  19.117   5.359  0.00  0.00    -0.362 N 
HETATM   26  C   UNK N   1      21.069  18.319   6.328  0.00  0.00     0.111 C 
ATOM     27  HN  UNK N   1      21.475  20.109   5.578  1.00  0.00     0.162 HD
BRANCH  26  28
HETATM   28  C   UNK N   1      20.914  16.837   6.120  0.00  0.00     0.086 C 
BRANCH  28  29
HETATM   29  C   UNK N   1      21.256  16.078   7.393  0.00  0.00     0.043 C 
BRANCH  29  30
HETATM   30  C   UNK N   1      20.014  15.450   8.023  0.00  0.00     0.173 C 
BRANCH  30  31
HETATM   31  C   UNK N   1      20.387  14.593   9.206  0.00  0.00     0.163 C 
HETATM   32  O   UNK N   1      21.561  14.499   9.558  0.00  0.00    -0.648 OA
BRANCH  31  33
HETATM   33  O   UNK N   1      19.441  13.933   9.895  0.00  0.00    -0.775 OA
HETATM   34  H   UNK N   1      19.538  13.742  10.807  0.00  0.00     0.167 HD
ENDBRANCH  31  33
ENDBRANCH  30  31
BRANCH  30  35
HETATM   35  N   UNK N   1      19.111  16.516   8.421  0.00  0.00    -0.418 N 
HETATM   36  H   UNK N   1      19.417  17.484   8.518  0.00  0.00     0.150 HD
HETATM   37  H   UNK N   1      18.135  16.287   8.609  0.00  0.00     0.150 HD
ENDBRANCH  30  35
ENDBRANCH  29  30
ENDBRANCH  28  29
ENDBRANCH  26  28
BRANCH  26  38
HETATM   38  O   UNK N   1      20.852  18.833   7.553  0.00  0.00    -0.350 OA
HETATM   39  H   UNK N   1      21.239  19.277   8.281  0.00  0.00     0.219 HD
ENDBRANCH  26  38
ENDBRANCH   1  25
TORSDOF 17
ENDMDL
