REMARK WARNING: 32 MAX_TORS EXCEEDED!!!
REMARK  33 active torsions:
REMARK  status: ('A' for Active; 'I' for Inactive)
REMARK    1  A    between atoms: O_2  and  C_3 
REMARK    2  A    between atoms: C_5  and  C_6 
REMARK    3  A    between atoms: C_6  and  C_7 
REMARK    4  A    between atoms: C_7  and  C_8 
REMARK    5  A    between atoms: C_8  and  S_10 
REMARK    6  A    between atoms: S_10  and  C_11 
REMARK    7  A    between atoms: C_11  and  C_12 
REMARK    8  A    between atoms: C_12  and  N_13 
REMARK       I    between atoms: N_13  and  C_14 
REMARK    9  A    between atoms: C_14  and  C_16 
REMARK   10  A    between atoms: C_16  and  C_17 
REMARK   11  A    between atoms: C_17  and  N_18 
REMARK       I    between atoms: N_18  and  C_19 
REMARK   12  A    between atoms: C_19  and  C_21 
REMARK   13  A    between atoms: C_21  and  O_22 
REMARK   14  A    between atoms: C_21  and  C_23 
REMARK   15  A    between atoms: C_23  and  C_26 
REMARK   16  A    between atoms: C_26  and  O_27 
REMARK   17  A    between atoms: P_28  and  O_27 
REMARK   18  A    between atoms: P_28  and  O_29 
REMARK   19  A    between atoms: P_28  and  O_31 
REMARK   20  A    between atoms: P_32  and  O_31 
REMARK   21  A    between atoms: P_32  and  O_33 
REMARK   22  A    between atoms: P_32  and  O_35 
REMARK   23  A    between atoms: O_35  and  C_36 
REMARK   24  A    between atoms: C_37  and  C_36 
REMARK   25  A    between atoms: C_39  and  N_48 
REMARK   26  A    between atoms: C_40  and  O_41 
REMARK   27  A    between atoms: C_42  and  O_43 
REMARK   28  A    between atoms: O_43  and  P_44 
REMARK   29  A    between atoms: P_44  and  O_45 
REMARK   30  A    between atoms: P_44  and  O_46 
REMARK   31  A    between atoms: C_53  and  N_54 
REMARK   32  A    between atoms: C_62  and  O_63 
REMARK   33  A    between atoms: C_64  and  O_65 
ROOT
HETATM    1  P   UNK N   1      26.849   4.013   1.082  0.00  0.00     0.401 P 
HETATM    2  O   UNK N   1      25.540   4.844   0.992  0.00  0.00    -0.631 OA
ENDROOT
BRANCH   1   3
HETATM    3  O   UNK N   1      26.453   2.353   0.749  0.00  0.00    -0.296 OA
BRANCH   3   4
HETATM    4  C   UNK N   1      25.701   2.315  -0.430  0.00  0.00     0.192 C 
BRANCH   4   5
HETATM    5  C   UNK N   1      25.421   0.858  -0.804  0.00  0.00     0.009 C 
HETATM    6  C   UNK N   1      26.675   0.251  -1.403  0.00  0.00     0.020 C 
HETATM    7  C   UNK N   1      24.351   0.832  -1.876  0.00  0.00     0.020 C 
BRANCH   5   8
HETATM    8  C   UNK N   1      25.026   0.061   0.462  0.00  0.00     0.219 C 
BRANCH   8   9
HETATM    9  C   UNK N   1      23.945   0.692   1.312  0.00  0.00     0.247 C 
HETATM   10  N   UNK N   1      22.630   0.574   1.021  0.00  0.00    -0.358 N 
HETATM   11  H   UNK N   1      21.982   1.074   1.566  0.00  0.00     0.162 HD
HETATM   12  O   UNK N   1      24.276   1.332   2.297  0.00  0.00    -0.271 OA
BRANCH  10  13
HETATM   13  C   UNK N   1      22.135  -0.251  -0.052  0.00  0.00     0.132 C 
BRANCH  13  14
HETATM   14  C   UNK N   1      21.337   0.535  -1.091  0.00  0.00     0.122 C 
BRANCH  14  15
HETATM   15  C   UNK N   1      20.715   1.829  -0.636  0.00  0.00     0.219 C 
HETATM   16  N   UNK N   1      19.886   1.914   0.444  0.00  0.00    -0.360 N 
HETATM   17  H   UNK N   1      19.440   2.778   0.599  0.00  0.00     0.162 HD
HETATM   18  O   UNK N   1      20.937   2.834  -1.292  0.00  0.00    -0.274 OA
BRANCH  16  19
HETATM   19  C   UNK N   1      19.603   0.844   1.385  0.00  0.00     0.133 C 
BRANCH  19  20
HETATM   20  C   UNK N   1      19.199  -0.456   0.705  0.00  0.00     0.102 C 
BRANCH  20  21
HETATM   21  S   UNK N   1      17.611  -1.085   1.327  0.00  0.00    -0.086 SA
BRANCH  21  22
HETATM   22  C   UNK N   1      16.578  -0.142   0.189  0.00  0.00     0.208 C 
HETATM   23  O   UNK N   1      15.375  -0.120   0.378  0.00  0.00    -0.281 OA
BRANCH  22  24
HETATM   24  C   UNK N   1      17.188   0.567  -0.963  0.00  0.00     0.063 C 
BRANCH  24  25
HETATM   25  C   UNK N   1      16.908   1.799  -1.423  0.00  0.00     0.016 C 
BRANCH  25  26
HETATM   26  C   UNK N   1      15.914   2.768  -0.920  0.00  0.00    -0.031 A 
HETATM   27  C   UNK N   1      16.172   4.127  -1.109  0.00  0.00     0.051 A 
HETATM   28  C   UNK N   1      15.277   5.104  -0.664  0.00  0.00     0.104 A 
HETATM   29  C   UNK N   1      14.074   4.696  -0.029  0.00  0.00     0.132 A 
HETATM   30  C   UNK N   1      13.812   3.330   0.147  0.00  0.00     0.102 A 
HETATM   31  C   UNK N   1      14.730   2.379  -0.292  0.00  0.00     0.051 A 
BRANCH  28  32
HETATM   32  O   UNK N   1      15.614   6.404  -0.869  0.00  0.00    -0.353 OA
HETATM   33  C   UNK N   1      14.858   7.492  -0.501  0.00  0.00     0.210 C 
ENDBRANCH  28  32
BRANCH  29  34
HETATM   34  O   UNK N   1      13.173   5.595   0.406  0.00  0.00    -0.356 OA
HETATM   35  H   UNK N   1      13.402   6.451   0.710  0.00  0.00     0.218 HD
ENDBRANCH  29  34
BRANCH  30  36
HETATM   36  O   UNK N   1      12.674   2.928   0.738  0.00  0.00    -0.358 OA
HETATM   37  H   UNK N   1      12.034   3.475   1.150  0.00  0.00     0.217 HD
ENDBRANCH  30  36
ENDBRANCH  25  26
ENDBRANCH  24  25
ENDBRANCH  22  24
ENDBRANCH  21  22
ENDBRANCH  20  21
ENDBRANCH  19  20
ENDBRANCH  16  19
ENDBRANCH  14  15
ENDBRANCH  13  14
ENDBRANCH  10  13
ENDBRANCH   8   9
BRANCH   8  38
HETATM   38  O   UNK N   1      24.787  -1.295   0.218  0.00  0.00    -0.385 OA
HETATM   39  H   UNK N   1      23.889  -1.621   0.049  0.00  0.00     0.210 HD
ENDBRANCH   8  38
ENDBRANCH   5   8
ENDBRANCH   4   5
ENDBRANCH   3   4
ENDBRANCH   1   3
BRANCH   1  40
HETATM   40  O   UNK N   1      27.398   4.155   2.722  0.00  0.00    -0.307 OA
HETATM   41  H   UNK N   1      27.620   3.928   3.638  0.00  0.00     0.222 HD
ENDBRANCH   1  40
BRANCH   1  42
HETATM   42  O   UNK N   1      28.013   4.716  -0.009  0.00  0.00    -0.195 OA
BRANCH  42  43
HETATM   43  P   UNK N   1      28.914   3.408  -0.727  0.00  0.00     0.401 P 
HETATM   44  O   UNK N   1      30.383   3.892  -0.880  0.00  0.00    -0.631 OA
BRANCH  43  45
HETATM   45  O   UNK N   1      28.346   3.114  -2.341  0.00  0.00    -0.307 OA
HETATM   46  H   UNK N   1      28.045   3.307  -3.243  0.00  0.00     0.222 HD
ENDBRANCH  43  45
BRANCH  43  47
HETATM   47  O   UNK N   1      28.878   1.919   0.205  0.00  0.00    -0.294 OA
BRANCH  47  48
HETATM   48  C   UNK N   1      30.026   1.864   0.993  0.00  0.00     0.215 C 
BRANCH  48  49
HETATM   49  C   UNK N   1      31.106   1.224   0.161  0.00  0.00     0.180 C 
HETATM   50  O   UNK N   1      32.385   1.398   0.675  0.00  0.00    -0.353 OA
HETATM   51  C   UNK N   1      33.067   0.689  -0.309  0.00  0.00     0.262 C 
HETATM   52  C   UNK N   1      32.278  -0.503  -0.842  0.00  0.00     0.199 C 
HETATM   53  C   UNK N   1      30.966  -0.256  -0.134  0.00  0.00     0.197 C 
BRANCH  51  54
HETATM   54  N   UNK N   1      34.517   0.772  -0.289  0.00  0.00    -0.297 N 
HETATM   55  C   UNK N   1      35.246   1.830  -0.721  0.00  0.00     0.188 A 
HETATM   56  N   UNK N   1      36.580   1.613  -0.555  0.00  0.00    -0.346 N 
HETATM   57  C   UNK N   1      36.650   0.388  -0.005  0.00  0.00     0.122 A 
ATOM     58  HN  UNK N   1      37.351   2.237  -0.793  1.00  0.00     0.167 HD
HETATM   59  C   UNK N   1      37.753  -0.353   0.381  0.00  0.00     0.131 A 
HETATM   60  C   UNK N   1      35.412  -0.114   0.159  0.00  0.00     0.142 A 
HETATM   61  N   UNK N   1      37.539  -1.590   0.920  0.00  0.00    -0.337 N 
HETATM   62  C   UNK N   1      36.265  -2.080   1.081  0.00  0.00     0.183 A 
ATOM     63  HN  UNK N   1      38.336  -2.158   1.208  1.00  0.00     0.168 HD
HETATM   64  N   UNK N   1      35.184  -1.333   0.700  0.00  0.00    -0.336 N 
ATOM     65  HN  UNK N   1      34.234  -1.685   0.821  1.00  0.00     0.168 HD
BRANCH  59  66
HETATM   66  N   UNK N   1      39.061   0.148   0.223  0.00  0.00    -0.383 N 
HETATM   67  H   UNK N   1      39.820  -0.469   0.113  0.00  0.00     0.157 HD
HETATM   68  H   UNK N   1      39.216   1.120   0.223  0.00  0.00     0.157 HD
ENDBRANCH  59  66
ENDBRANCH  51  54
BRANCH  52  69
HETATM   69  O   UNK N   1      32.793  -1.725  -0.420  0.00  0.00    -0.388 OA
HETATM   70  H   UNK N   1      32.235  -2.462  -0.126  0.00  0.00     0.210 HD
ENDBRANCH  52  69
BRANCH  53  71
HETATM   71  O   UNK N   1      29.876  -0.529  -0.966  0.00  0.00    -0.286 OA
BRANCH  71  72
HETATM   72  P   UNK N   1      29.234  -2.072  -0.454  0.00  0.00     0.391 P 
HETATM   73  O   UNK N   1      28.023  -1.805   0.479  0.00  0.00    -0.632 OA
BRANCH  72  74
HETATM   74  O   UNK N   1      28.631  -2.961  -1.817  0.00  0.00    -0.307 OA
HETATM   75  H   UNK N   1      28.032  -2.918  -2.579  0.00  0.00     0.222 HD
ENDBRANCH  72  74
BRANCH  72  76
HETATM   76  O   UNK N   1      30.368  -3.036   0.441  0.00  0.00    -0.307 OA
HETATM   77  H   UNK N   1      30.218  -3.854   0.941  0.00  0.00     0.222 HD
ENDBRANCH  72  76
ENDBRANCH  71  72
ENDBRANCH  53  71
ENDBRANCH  48  49
ENDBRANCH  47  48
ENDBRANCH  43  47
ENDBRANCH  42  43
ENDBRANCH   1  42
TORSDOF 33
