MODEL 1
REMARK VINA RESULT:      -4.5      0.000      0.000
REMARK  2 active torsions:
REMARK  status: ('A' for Active; 'I' for Inactive)
REMARK    1  A    between atoms: C_3  and  O_8 
REMARK    2  A    between atoms: O_9  and  C_4 
ROOT
HETATM    1  C   UNK N   1      21.976  20.406   2.384  0.00  0.00     0.043 A 
HETATM    2  C   UNK N   1      21.859  19.687   3.513  0.00  0.00     0.092 A 
HETATM    3  C   UNK N   1      20.967  20.316   1.257  0.00  0.00     0.246 A 
HETATM    4  C   UNK N   1      19.857  18.648   2.810  0.00  0.00     0.218 A 
HETATM    5  N   UNK N   1      20.769  18.798   3.705  0.00  0.00    -0.333 N 
ATOM      6  HN  UNK N   1      20.707  18.266   4.573  1.00  0.00     0.168 HD
HETATM    7  N   UNK N   1      19.912  19.373   1.589  0.00  0.00    -0.327 N 
HETATM    8  H   UNK N   1      19.195  19.229   0.930  0.00  0.00     0.166 HD
ENDROOT
BRANCH   3   9
HETATM    9  O   UNK N   1      20.775  20.885  -0.001  0.00  0.00    -0.373 OA
HETATM   10  H   UNK N   1      20.400  21.776  -0.077  0.00  0.00     0.212 HD
ENDBRANCH   3   9
BRANCH   4  11
HETATM   11  O   UNK N   1      18.840  17.795   3.031  0.00  0.00    -0.332 OA
HETATM   12  H   UNK N   1      18.938  17.098   3.649  0.00  0.00     0.220 HD
ENDBRANCH   4  11
TORSDOF 2
ENDMDL
MODEL 2
REMARK VINA RESULT:      -4.5      0.909      2.950
REMARK  2 active torsions:
REMARK  status: ('A' for Active; 'I' for Inactive)
REMARK    1  A    between atoms: C_3  and  O_8 
REMARK    2  A    between atoms: O_9  and  C_4 
ROOT
HETATM    1  C   UNK N   1      21.168  19.029   3.666  0.00  0.00     0.043 A 
HETATM    2  C   UNK N   1      22.072  19.907   3.200  0.00  0.00     0.092 A 
HETATM    3  C   UNK N   1      19.930  18.646   2.880  0.00  0.00     0.246 A 
HETATM    4  C   UNK N   1      20.891  20.268   1.186  0.00  0.00     0.218 A 
HETATM    5  N   UNK N   1      21.907  20.525   1.933  0.00  0.00    -0.333 N 
ATOM      6  HN  UNK N   1      22.610  21.188   1.605  1.00  0.00     0.168 HD
HETATM    7  N   UNK N   1      19.892  19.350   1.610  0.00  0.00    -0.327 N 
HETATM    8  H   UNK N   1      19.131  19.182   1.009  0.00  0.00     0.166 HD
ENDROOT
BRANCH   3   9
HETATM    9  O   UNK N   1      18.827  17.809   3.040  0.00  0.00    -0.373 OA
HETATM   10  H   UNK N   1      18.293  17.559   2.270  0.00  0.00     0.212 HD
ENDBRANCH   3   9
BRANCH   4  11
HETATM   11  O   UNK N   1      20.772  20.876  -0.010  0.00  0.00    -0.332 OA
HETATM   12  H   UNK N   1      19.924  21.088  -0.345  0.00  0.00     0.220 HD
ENDBRANCH   4  11
TORSDOF 2
ENDMDL
MODEL 3
REMARK VINA RESULT:      -4.4     10.860     11.819
REMARK  2 active torsions:
REMARK  status: ('A' for Active; 'I' for Inactive)
REMARK    1  A    between atoms: C_3  and  O_8 
REMARK    2  A    between atoms: O_9  and  C_4 
ROOT
HETATM    1  C   UNK N   1      21.415  13.108  10.101  0.00  0.00     0.043 A 
HETATM    2  C   UNK N   1      22.607  13.491   9.614  0.00  0.00     0.092 A 
HETATM    3  C   UNK N   1      21.286  12.193  11.303  0.00  0.00     0.246 A 
HETATM    4  C   UNK N   1      23.819  12.271  11.235  0.00  0.00     0.218 A 
HETATM    5  N   UNK N   1      23.817  13.050  10.210  0.00  0.00    -0.333 N 
ATOM      6  HN  UNK N   1      24.708  13.358   9.818  1.00  0.00     0.168 HD
HETATM    7  N   UNK N   1      22.597  11.824  11.807  0.00  0.00    -0.327 N 
HETATM    8  H   UNK N   1      22.642  11.229  12.591  0.00  0.00     0.166 HD
ENDROOT
BRANCH   3   9
HETATM    9  O   UNK N   1      20.263  11.614  12.051  0.00  0.00    -0.373 OA
HETATM   10  H   UNK N   1      20.190  10.649  12.107  0.00  0.00     0.212 HD
ENDBRANCH   3   9
BRANCH   4  11
HETATM   11  O   UNK N   1      24.989  11.877  11.771  0.00  0.00    -0.332 OA
HETATM   12  H   UNK N   1      25.719  11.688  11.216  0.00  0.00     0.220 HD
ENDBRANCH   4  11
TORSDOF 2
ENDMDL
MODEL 4
REMARK VINA RESULT:      -4.1     14.573     15.107
REMARK  2 active torsions:
REMARK  status: ('A' for Active; 'I' for Inactive)
REMARK    1  A    between atoms: C_3  and  O_8 
REMARK    2  A    between atoms: O_9  and  C_4 
ROOT
HETATM    1  C   UNK N   1      33.921  17.607   7.047  0.00  0.00     0.043 A 
HETATM    2  C   UNK N   1      33.236  16.452   7.094  0.00  0.00     0.092 A 
HETATM    3  C   UNK N   1      34.588  18.204   8.270  0.00  0.00     0.246 A 
HETATM    4  C   UNK N   1      33.633  16.148   9.403  0.00  0.00     0.218 A 
HETATM    5  N   UNK N   1      33.104  15.728   8.308  0.00  0.00    -0.333 N 
ATOM      6  HN  UNK N   1      32.578  14.854   8.313  1.00  0.00     0.168 HD
HETATM    7  N   UNK N   1      34.372  17.362   9.433  0.00  0.00    -0.327 N 
HETATM    8  H   UNK N   1      34.761  17.648  10.291  0.00  0.00     0.166 HD
ENDROOT
BRANCH   3   9
HETATM    9  O   UNK N   1      35.346  19.332   8.581  0.00  0.00    -0.373 OA
HETATM   10  H   UNK N   1      36.283  19.237   8.813  0.00  0.00     0.212 HD
ENDBRANCH   3   9
BRANCH   4  11
HETATM   11  O   UNK N   1      33.485  15.432  10.533  0.00  0.00    -0.332 OA
HETATM   12  H   UNK N   1      34.223  15.270  11.086  0.00  0.00     0.220 HD
ENDBRANCH   4  11
TORSDOF 2
ENDMDL
MODEL 5
REMARK VINA RESULT:      -4.0      1.832      2.618
REMARK  2 active torsions:
REMARK  status: ('A' for Active; 'I' for Inactive)
REMARK    1  A    between atoms: C_3  and  O_8 
REMARK    2  A    between atoms: O_9  and  C_4 
ROOT
HETATM    1  C   UNK N   1      20.356  17.614   2.666  0.00  0.00     0.043 A 
HETATM    2  C   UNK N   1      20.577  18.326   3.785  0.00  0.00     0.092 A 
HETATM    3  C   UNK N   1      20.410  18.237   1.286  0.00  0.00     0.246 A 
HETATM    4  C   UNK N   1      20.944  20.337   2.600  0.00  0.00     0.218 A 
HETATM    5  N   UNK N   1      20.874  19.713   3.723  0.00  0.00    -0.333 N 
ATOM      6  HN  UNK N   1      21.037  20.227   4.589  1.00  0.00     0.168 HD
HETATM    7  N   UNK N   1      20.723  19.652   1.374  0.00  0.00    -0.327 N 
HETATM    8  H   UNK N   1      20.785  20.167   0.537  0.00  0.00     0.166 HD
ENDROOT
BRANCH   3   9
HETATM    9  O   UNK N   1      20.243  17.826  -0.036  0.00  0.00    -0.373 OA
HETATM   10  H   UNK N   1      19.881  16.947  -0.228  0.00  0.00     0.212 HD
ENDBRANCH   3   9
BRANCH   4  11
HETATM   11  O   UNK N   1      21.228  21.653   2.585  0.00  0.00    -0.332 OA
HETATM   12  H   UNK N   1      22.078  21.951   2.841  0.00  0.00     0.220 HD
ENDBRANCH   4  11
TORSDOF 2
ENDMDL
MODEL 6
REMARK VINA RESULT:      -4.0      1.712      3.328
REMARK  2 active torsions:
REMARK  status: ('A' for Active; 'I' for Inactive)
REMARK    1  A    between atoms: C_3  and  O_8 
REMARK    2  A    between atoms: O_9  and  C_4 
ROOT
HETATM    1  C   UNK N   1      20.276  17.887   2.875  0.00  0.00     0.043 A 
HETATM    2  C   UNK N   1      20.140  17.641   1.560  0.00  0.00     0.092 A 
HETATM    3  C   UNK N   1      20.639  19.257   3.410  0.00  0.00     0.246 A 
HETATM    4  C   UNK N   1      20.644  19.868   0.951  0.00  0.00     0.218 A 
HETATM    5  N   UNK N   1      20.333  18.669   0.600  0.00  0.00    -0.333 N 
ATOM      6  HN  UNK N   1      20.223  18.453  -0.390  1.00  0.00     0.168 HD
HETATM    7  N   UNK N   1      20.805  20.205   2.322  0.00  0.00    -0.327 N 
HETATM    8  H   UNK N   1      21.042  21.133   2.547  0.00  0.00     0.166 HD
ENDROOT
BRANCH   3   9
HETATM    9  O   UNK N   1      20.855  19.853   4.652  0.00  0.00    -0.373 OA
HETATM   10  H   UNK N   1      21.418  20.639   4.720  0.00  0.00     0.212 HD
ENDBRANCH   3   9
BRANCH   4  11
HETATM   11  O   UNK N   1      20.818  20.813   0.008  0.00  0.00    -0.332 OA
HETATM   12  H   UNK N   1      20.848  20.574  -0.896  0.00  0.00     0.220 HD
ENDBRANCH   4  11
TORSDOF 2
ENDMDL
MODEL 7
REMARK VINA RESULT:      -4.0     10.695     11.571
REMARK  2 active torsions:
REMARK  status: ('A' for Active; 'I' for Inactive)
REMARK    1  A    between atoms: C_3  and  O_8 
REMARK    2  A    between atoms: O_9  and  C_4 
ROOT
HETATM    1  C   UNK N   1      23.567  13.097   9.773  0.00  0.00     0.043 A 
HETATM    2  C   UNK N   1      22.290  13.349   9.437  0.00  0.00     0.092 A 
HETATM    3  C   UNK N   1      23.937  12.280  10.994  0.00  0.00     0.246 A 
HETATM    4  C   UNK N   1      21.422  12.149  11.278  0.00  0.00     0.218 A 
HETATM    5  N   UNK N   1      21.216  12.854  10.221  0.00  0.00    -0.333 N 
ATOM      6  HN  UNK N   1      20.257  13.061   9.941  1.00  0.00     0.168 HD
HETATM    7  N   UNK N   1      22.745  11.841  11.698  0.00  0.00    -0.327 N 
HETATM    8  H   UNK N   1      22.859  11.299  12.512  0.00  0.00     0.166 HD
ENDROOT
BRANCH   3   9
HETATM    9  O   UNK N   1      25.100  11.837  11.623  0.00  0.00    -0.373 OA
HETATM   10  H   UNK N   1      25.697  11.227  11.164  0.00  0.00     0.212 HD
ENDBRANCH   3   9
BRANCH   4  11
HETATM   11  O   UNK N   1      20.375  11.698  11.993  0.00  0.00    -0.332 OA
HETATM   12  H   UNK N   1      20.325  10.794  12.232  0.00  0.00     0.220 HD
ENDBRANCH   4  11
TORSDOF 2
ENDMDL
MODEL 8
REMARK VINA RESULT:      -4.0     10.503     11.557
REMARK  2 active torsions:
REMARK  status: ('A' for Active; 'I' for Inactive)
REMARK    1  A    between atoms: C_3  and  O_8 
REMARK    2  A    between atoms: O_9  and  C_4 
ROOT
HETATM    1  C   UNK N   1      23.397  12.898   9.505  0.00  0.00     0.043 A 
HETATM    2  C   UNK N   1      24.404  12.642  10.358  0.00  0.00     0.092 A 
HETATM    3  C   UNK N   1      21.947  12.645   9.864  0.00  0.00     0.246 A 
HETATM    4  C   UNK N   1      22.954  11.867  12.055  0.00  0.00     0.218 A 
HETATM    5  N   UNK N   1      24.151  12.117  11.652  0.00  0.00    -0.333 N 
ATOM      6  HN  UNK N   1      24.935  11.933  12.278  1.00  0.00     0.168 HD
HETATM    7  N   UNK N   1      21.838  12.111  11.210  0.00  0.00    -0.327 N 
HETATM    8  H   UNK N   1      20.939  11.907  11.557  0.00  0.00     0.166 HD
ENDROOT
BRANCH   3   9
HETATM    9  O   UNK N   1      20.698  12.785   9.260  0.00  0.00    -0.373 OA
HETATM   10  H   UNK N   1      20.627  13.183   8.380  0.00  0.00     0.212 HD
ENDBRANCH   3   9
BRANCH   4  11
HETATM   11  O   UNK N   1      22.757  11.370  13.291  0.00  0.00    -0.332 OA
HETATM   12  H   UNK N   1      22.171  10.651  13.418  0.00  0.00     0.220 HD
ENDBRANCH   4  11
TORSDOF 2
ENDMDL
MODEL 9
REMARK VINA RESULT:      -3.9     10.690     12.060
REMARK  2 active torsions:
REMARK  status: ('A' for Active; 'I' for Inactive)
REMARK    1  A    between atoms: C_3  and  O_8 
REMARK    2  A    between atoms: O_9  and  C_4 
ROOT
HETATM    1  C   UNK N   1      21.785  12.175  10.835  0.00  0.00     0.043 A 
HETATM    2  C   UNK N   1      22.221  12.789   9.722  0.00  0.00     0.092 A 
HETATM    3  C   UNK N   1      22.700  11.872  12.005  0.00  0.00     0.246 A 
HETATM    4  C   UNK N   1      24.436  12.974  10.524  0.00  0.00     0.218 A 
HETATM    5  N   UNK N   1      23.577  13.186   9.588  0.00  0.00    -0.333 N 
ATOM      6  HN  UNK N   1      23.880  13.649   8.731  1.00  0.00     0.168 HD
HETATM    7  N   UNK N   1      24.051  12.331  11.731  0.00  0.00    -0.327 N 
HETATM    8  H   UNK N   1      24.738  12.188  12.421  0.00  0.00     0.166 HD
ENDROOT
BRANCH   3   9
HETATM    9  O   UNK N   1      22.602  11.277  13.261  0.00  0.00    -0.373 OA
HETATM   10  H   UNK N   1      22.210  11.768  14.000  0.00  0.00     0.212 HD
ENDBRANCH   3   9
BRANCH   4  11
HETATM   11  O   UNK N   1      25.713  13.367  10.357  0.00  0.00    -0.332 OA
HETATM   12  H   UNK N   1      26.000  14.188  10.702  0.00  0.00     0.220 HD
ENDBRANCH   4  11
TORSDOF 2
ENDMDL
