MODEL 1
REMARK VINA RESULT:      -5.6      0.000      0.000
REMARK  8 active torsions:
REMARK  status: ('A' for Active; 'I' for Inactive)
REMARK    1  A    between atoms: C_1  and  O_7 
REMARK    2  A    between atoms: C_2  and  O_8 
REMARK    3  A    between atoms: C_3  and  C_5 
REMARK    4  A    between atoms: C_4  and  O_16 
REMARK    5  A    between atoms: O_10  and  C_5 
REMARK    6  A    between atoms: C_6  and  O_11 
REMARK    7  A    between atoms: S_17  and  O_12 
REMARK    8  A    between atoms: S_17  and  O_16 
ROOT
HETATM    1  C   UNK N   1      34.396  14.048  10.880  0.00  0.00     0.189 C 
HETATM    2  C   UNK N   1      33.601  14.808   9.789  0.00  0.00     0.185 C 
HETATM    3  C   UNK N   1      35.875  14.505  10.923  0.00  0.00     0.253 C 
HETATM    4  C   UNK N   1      34.352  16.075   9.333  0.00  0.00     0.230 C 
HETATM    5  C   UNK N   1      35.062  16.751  10.542  0.00  0.00     0.291 C 
HETATM    6  O   UNK N   1      35.958  15.890  11.245  0.00  0.00    -0.340 OA
ENDROOT
BRANCH   4   7
HETATM    7  O   UNK N   1      33.555  16.895   8.479  0.00  0.00    -0.251 OA
BRANCH   7   8
HETATM    8  S   UNK N   1      34.026  16.808   6.810  0.00  0.00     0.241 S 
HETATM    9  O   UNK N   1      34.634  18.128   7.311  0.00  0.00    -0.579 OA
HETATM   10  O   UNK N   1      32.510  17.057   6.866  0.00  0.00    -0.579 OA
BRANCH   8  11
HETATM   11  O   UNK N   1      33.579  17.983   5.641  0.00  0.00    -0.274 OA
HETATM   12  H   UNK N   1      32.643  18.143   5.445  0.00  0.00     0.234 HD
ENDBRANCH   8  11
ENDBRANCH   7   8
ENDBRANCH   4   7
BRANCH   2  13
HETATM   13  O   UNK N   1      32.331  15.117  10.284  0.00  0.00    -0.390 OA
HETATM   14  H   UNK N   1      31.710  15.069  11.028  0.00  0.00     0.210 HD
ENDBRANCH   2  13
BRANCH   5  15
HETATM   15  O   UNK N   1      35.795  17.850  10.093  0.00  0.00    -0.368 OA
HETATM   16  H   UNK N   1      35.757  18.246   9.208  0.00  0.00     0.212 HD
ENDBRANCH   5  15
BRANCH   1  17
HETATM   17  O   UNK N   1      34.275  12.670  10.677  0.00  0.00    -0.390 OA
HETATM   18  H   UNK N   1      35.042  12.119  10.453  0.00  0.00     0.210 HD
ENDBRANCH   1  17
BRANCH   3  19
HETATM   19  C   UNK N   1      36.656  13.722  11.950  0.00  0.00     0.172 C 
HETATM   20  O   UNK N   1      36.156  13.464  13.042  0.00  0.00    -0.648 OA
BRANCH  19  21
HETATM   21  O   UNK N   1      37.914  13.330  11.694  0.00  0.00    -0.774 OA
HETATM   22  H   UNK N   1      38.150  12.851  10.925  0.00  0.00     0.167 HD
ENDBRANCH  19  21
ENDBRANCH   3  19
TORSDOF 8
ENDMDL
MODEL 2
REMARK VINA RESULT:      -5.5      1.464      2.755
REMARK  8 active torsions:
REMARK  status: ('A' for Active; 'I' for Inactive)
REMARK    1  A    between atoms: C_1  and  O_7 
REMARK    2  A    between atoms: C_2  and  O_8 
REMARK    3  A    between atoms: C_3  and  C_5 
REMARK    4  A    between atoms: C_4  and  O_16 
REMARK    5  A    between atoms: O_10  and  C_5 
REMARK    6  A    between atoms: C_6  and  O_11 
REMARK    7  A    between atoms: S_17  and  O_12 
REMARK    8  A    between atoms: S_17  and  O_16 
ROOT
HETATM    1  C   UNK N   1      36.415  13.946  10.982  0.00  0.00     0.189 C 
HETATM    2  C   UNK N   1      36.290  14.786   9.686  0.00  0.00     0.185 C 
HETATM    3  C   UNK N   1      35.405  14.416  12.059  0.00  0.00     0.253 C 
HETATM    4  C   UNK N   1      34.958  15.561   9.650  0.00  0.00     0.230 C 
HETATM    5  C   UNK N   1      33.812  14.702  10.261  0.00  0.00     0.291 C 
HETATM    6  O   UNK N   1      34.069  14.253  11.592  0.00  0.00    -0.340 OA
ENDROOT
BRANCH   4   7
HETATM    7  O   UNK N   1      34.730  16.181   8.385  0.00  0.00    -0.251 OA
BRANCH   7   8
HETATM    8  S   UNK N   1      34.075  17.784   8.515  0.00  0.00     0.241 S 
HETATM    9  O   UNK N   1      34.694  17.736   7.109  0.00  0.00    -0.579 OA
HETATM   10  O   UNK N   1      35.288  17.686   9.454  0.00  0.00    -0.579 OA
BRANCH   8  11
HETATM   11  O   UNK N   1      35.029  19.206   8.393  0.00  0.00    -0.274 OA
HETATM   12  H   UNK N   1      35.955  19.148   8.111  0.00  0.00     0.234 HD
ENDBRANCH   8  11
ENDBRANCH   7   8
ENDBRANCH   4   7
BRANCH   2  13
HETATM   13  O   UNK N   1      36.419  13.939   8.582  0.00  0.00    -0.390 OA
HETATM   14  H   UNK N   1      36.179  13.095   8.167  0.00  0.00     0.210 HD
ENDBRANCH   2  13
BRANCH   5  15
HETATM   15  O   UNK N   1      32.636  15.452  10.287  0.00  0.00    -0.368 OA
HETATM   16  H   UNK N   1      32.178  15.834   9.521  0.00  0.00     0.212 HD
ENDBRANCH   5  15
BRANCH   1  17
HETATM   17  O   UNK N   1      37.734  13.986  11.443  0.00  0.00    -0.390 OA
HETATM   18  H   UNK N   1      38.057  14.711  12.001  0.00  0.00     0.210 HD
ENDBRANCH   1  17
BRANCH   3  19
HETATM   19  C   UNK N   1      35.570  13.630  13.338  0.00  0.00     0.172 C 
HETATM   20  O   UNK N   1      36.653  13.613  13.917  0.00  0.00    -0.648 OA
BRANCH  19  21
HETATM   21  O   UNK N   1      34.547  12.918  13.834  0.00  0.00    -0.774 OA
HETATM   22  H   UNK N   1      34.117  13.138  14.637  0.00  0.00     0.167 HD
ENDBRANCH  19  21
ENDBRANCH   3  19
TORSDOF 8
ENDMDL
MODEL 3
REMARK VINA RESULT:      -5.4      2.253      5.542
REMARK  8 active torsions:
REMARK  status: ('A' for Active; 'I' for Inactive)
REMARK    1  A    between atoms: C_1  and  O_7 
REMARK    2  A    between atoms: C_2  and  O_8 
REMARK    3  A    between atoms: C_3  and  C_5 
REMARK    4  A    between atoms: C_4  and  O_16 
REMARK    5  A    between atoms: O_10  and  C_5 
REMARK    6  A    between atoms: C_6  and  O_11 
REMARK    7  A    between atoms: S_17  and  O_12 
REMARK    8  A    between atoms: S_17  and  O_16 
ROOT
HETATM    1  C   UNK N   1      33.513  16.084   9.161  0.00  0.00     0.189 C 
HETATM    2  C   UNK N   1      33.572  14.961  10.228  0.00  0.00     0.185 C 
HETATM    3  C   UNK N   1      34.685  17.083   9.329  0.00  0.00     0.253 C 
HETATM    4  C   UNK N   1      34.964  14.890  10.887  0.00  0.00     0.230 C 
HETATM    5  C   UNK N   1      36.078  15.172   9.837  0.00  0.00     0.291 C 
HETATM    6  O   UNK N   1      35.933  16.418   9.156  0.00  0.00    -0.340 OA
ENDROOT
BRANCH   4   7
HETATM    7  O   UNK N   1      35.105  13.744  11.725  0.00  0.00    -0.251 OA
BRANCH   7   8
HETATM    8  S   UNK N   1      35.808  14.105  13.270  0.00  0.00     0.241 S 
HETATM    9  O   UNK N   1      36.834  13.187  12.589  0.00  0.00    -0.579 OA
HETATM   10  O   UNK N   1      34.592  13.193  13.501  0.00  0.00    -0.579 OA
BRANCH   8  11
HETATM   11  O   UNK N   1      36.186  12.906  14.439  0.00  0.00    -0.274 OA
HETATM   12  H   UNK N   1      36.113  11.966  14.213  0.00  0.00     0.234 HD
ENDBRANCH   8  11
ENDBRANCH   7   8
ENDBRANCH   4   7
BRANCH   2  13
HETATM   13  O   UNK N   1      33.228  13.747   9.628  0.00  0.00    -0.390 OA
HETATM   14  H   UNK N   1      32.728  13.292   8.932  0.00  0.00     0.210 HD
ENDBRANCH   2  13
BRANCH   5  15
HETATM   15  O   UNK N   1      37.321  15.178  10.471  0.00  0.00    -0.368 OA
HETATM   16  H   UNK N   1      38.187  15.248  10.040  0.00  0.00     0.212 HD
ENDBRANCH   5  15
BRANCH   1  17
HETATM   17  O   UNK N   1      32.269  16.718   9.213  0.00  0.00    -0.390 OA
HETATM   18  H   UNK N   1      32.150  17.634   8.917  0.00  0.00     0.210 HD
ENDBRANCH   1  17
BRANCH   3  19
HETATM   19  C   UNK N   1      34.591  18.204   8.321  0.00  0.00     0.172 C 
HETATM   20  O   UNK N   1      33.900  18.074   7.315  0.00  0.00    -0.648 OA
BRANCH  19  21
HETATM   21  O   UNK N   1      35.287  19.338   8.499  0.00  0.00    -0.774 OA
HETATM   22  H   UNK N   1      34.976  20.174   8.213  0.00  0.00     0.167 HD
ENDBRANCH  19  21
ENDBRANCH   3  19
TORSDOF 8
ENDMDL
MODEL 4
REMARK VINA RESULT:      -5.4     13.623     16.094
REMARK  8 active torsions:
REMARK  status: ('A' for Active; 'I' for Inactive)
REMARK    1  A    between atoms: C_1  and  O_7 
REMARK    2  A    between atoms: C_2  and  O_8 
REMARK    3  A    between atoms: C_3  and  C_5 
REMARK    4  A    between atoms: C_4  and  O_16 
REMARK    5  A    between atoms: O_10  and  C_5 
REMARK    6  A    between atoms: C_6  and  O_11 
REMARK    7  A    between atoms: S_17  and  O_12 
REMARK    8  A    between atoms: S_17  and  O_16 
ROOT
HETATM    1  C   UNK N   1      19.969  18.238   2.832  0.00  0.00     0.189 C 
HETATM    2  C   UNK N   1      19.715  17.133   3.889  0.00  0.00     0.185 C 
HETATM    3  C   UNK N   1      20.851  19.375   3.405  0.00  0.00     0.253 C 
HETATM    4  C   UNK N   1      20.717  17.237   5.056  0.00  0.00     0.230 C 
HETATM    5  C   UNK N   1      22.123  17.652   4.531  0.00  0.00     0.291 C 
HETATM    6  O   UNK N   1      22.128  18.870   3.784  0.00  0.00    -0.340 OA
ENDROOT
BRANCH   4   7
HETATM    7  O   UNK N   1      20.634  16.118   5.938  0.00  0.00    -0.251 OA
BRANCH   7   8
HETATM    8  S   UNK N   1      19.630  16.411   7.324  0.00  0.00     0.241 S 
HETATM    9  O   UNK N   1      21.063  16.607   7.842  0.00  0.00    -0.579 OA
HETATM   10  O   UNK N   1      19.560  14.911   6.992  0.00  0.00    -0.579 OA
BRANCH   8  11
HETATM   11  O   UNK N   1      19.719  15.485   8.766  0.00  0.00    -0.274 OA
HETATM   12  H   UNK N   1      19.669  14.517   8.728  0.00  0.00     0.234 HD
ENDBRANCH   8  11
ENDBRANCH   7   8
ENDBRANCH   4   7
BRANCH   2  13
HETATM   13  O   UNK N   1      19.783  15.885   3.266  0.00  0.00    -0.390 OA
HETATM   14  H   UNK N   1      19.726  15.379   2.440  0.00  0.00     0.210 HD
ENDBRANCH   2  13
BRANCH   5  15
HETATM   15  O   UNK N   1      22.991  17.813   5.610  0.00  0.00    -0.368 OA
HETATM   16  H   UNK N   1      22.750  18.094   6.507  0.00  0.00     0.212 HD
ENDBRANCH   5  15
BRANCH   1  17
HETATM   17  O   UNK N   1      18.748  18.712   2.345  0.00  0.00    -0.390 OA
HETATM   18  H   UNK N   1      18.676  19.138   1.476  0.00  0.00     0.210 HD
ENDBRANCH   1  17
BRANCH   3  19
HETATM   19  C   UNK N   1      21.049  20.473   2.388  0.00  0.00     0.172 C 
HETATM   20  O   UNK N   1      20.832  20.260   1.198  0.00  0.00    -0.648 OA
BRANCH  19  21
HETATM   21  O   UNK N   1      21.495  21.680   2.769  0.00  0.00    -0.774 OA
HETATM   22  H   UNK N   1      21.975  21.817   3.561  0.00  0.00     0.167 HD
ENDBRANCH  19  21
ENDBRANCH   3  19
TORSDOF 8
ENDMDL
MODEL 5
REMARK VINA RESULT:      -5.0      1.746      2.557
REMARK  8 active torsions:
REMARK  status: ('A' for Active; 'I' for Inactive)
REMARK    1  A    between atoms: C_1  and  O_7 
REMARK    2  A    between atoms: C_2  and  O_8 
REMARK    3  A    between atoms: C_3  and  C_5 
REMARK    4  A    between atoms: C_4  and  O_16 
REMARK    5  A    between atoms: O_10  and  C_5 
REMARK    6  A    between atoms: C_6  and  O_11 
REMARK    7  A    between atoms: S_17  and  O_12 
REMARK    8  A    between atoms: S_17  and  O_16 
ROOT
HETATM    1  C   UNK N   1      34.350  14.950  10.660  0.00  0.00     0.189 C 
HETATM    2  C   UNK N   1      34.313  15.925   9.457  0.00  0.00     0.185 C 
HETATM    3  C   UNK N   1      34.750  13.521  10.215  0.00  0.00     0.253 C 
HETATM    4  C   UNK N   1      35.067  15.345   8.244  0.00  0.00     0.230 C 
HETATM    5  C   UNK N   1      36.331  14.566   8.712  0.00  0.00     0.291 C 
HETATM    6  O   UNK N   1      36.057  13.524   9.650  0.00  0.00    -0.340 OA
ENDROOT
BRANCH   4   7
HETATM    7  O   UNK N   1      35.219  16.301   7.196  0.00  0.00    -0.251 OA
BRANCH   7   8
HETATM    8  S   UNK N   1      33.711  16.779   6.481  0.00  0.00     0.241 S 
HETATM    9  O   UNK N   1      34.514  16.181   5.315  0.00  0.00    -0.579 OA
HETATM   10  O   UNK N   1      34.490  18.053   6.848  0.00  0.00    -0.579 OA
BRANCH   8  11
HETATM   11  O   UNK N   1      33.591  17.929   5.212  0.00  0.00    -0.274 OA
HETATM   12  H   UNK N   1      33.873  18.846   5.356  0.00  0.00     0.234 HD
ENDBRANCH   8  11
ENDBRANCH   7   8
ENDBRANCH   4   7
BRANCH   2  13
HETATM   13  O   UNK N   1      34.848  17.154   9.852  0.00  0.00    -0.390 OA
HETATM   14  H   UNK N   1      35.495  17.856   9.680  0.00  0.00     0.210 HD
ENDBRANCH   2  13
BRANCH   5  15
HETATM   15  O   UNK N   1      36.953  13.986   7.606  0.00  0.00    -0.368 OA
HETATM   16  H   UNK N   1      37.143  14.420   6.759  0.00  0.00     0.212 HD
ENDBRANCH   5  15
BRANCH   1  17
HETATM   17  O   UNK N   1      33.118  14.971  11.321  0.00  0.00    -0.390 OA
HETATM   18  H   UNK N   1      32.460  15.663  11.150  0.00  0.00     0.210 HD
ENDBRANCH   1  17
BRANCH   3  19
HETATM   19  C   UNK N   1      34.730  12.564  11.383  0.00  0.00     0.172 C 
HETATM   20  O   UNK N   1      34.930  11.365  11.203  0.00  0.00    -0.648 OA
BRANCH  19  21
HETATM   21  O   UNK N   1      34.461  13.007  12.621  0.00  0.00    -0.774 OA
HETATM   22  H   UNK N   1      33.688  12.764  13.091  0.00  0.00     0.167 HD
ENDBRANCH  19  21
ENDBRANCH   3  19
TORSDOF 8
ENDMDL
MODEL 6
REMARK VINA RESULT:      -5.0     12.384     13.827
REMARK  8 active torsions:
REMARK  status: ('A' for Active; 'I' for Inactive)
REMARK    1  A    between atoms: C_1  and  O_7 
REMARK    2  A    between atoms: C_2  and  O_8 
REMARK    3  A    between atoms: C_3  and  C_5 
REMARK    4  A    between atoms: C_4  and  O_16 
REMARK    5  A    between atoms: O_10  and  C_5 
REMARK    6  A    between atoms: C_6  and  O_11 
REMARK    7  A    between atoms: S_17  and  O_12 
REMARK    8  A    between atoms: S_17  and  O_16 
ROOT
HETATM    1  C   UNK N   1      42.315  21.233   2.287  0.00  0.00     0.189 C 
HETATM    2  C   UNK N   1      42.747  22.692   1.995  0.00  0.00     0.185 C 
HETATM    3  C   UNK N   1      43.535  20.340   2.625  0.00  0.00     0.253 C 
HETATM    4  C   UNK N   1      44.174  22.966   2.512  0.00  0.00     0.230 C 
HETATM    5  C   UNK N   1      44.415  22.225   3.860  0.00  0.00     0.291 C 
HETATM    6  O   UNK N   1      44.190  20.816   3.797  0.00  0.00    -0.340 OA
ENDROOT
BRANCH   4   7
HETATM    7  O   UNK N   1      44.518  24.348   2.435  0.00  0.00    -0.251 OA
BRANCH   7   8
HETATM    8  S   UNK N   1      45.770  24.680   1.279  0.00  0.00     0.241 S 
HETATM    9  O   UNK N   1      46.437  24.918   2.642  0.00  0.00    -0.579 OA
HETATM   10  O   UNK N   1      44.721  25.800   1.181  0.00  0.00    -0.579 OA
BRANCH   8  11
HETATM   11  O   UNK N   1      46.548  26.204   1.141  0.00  0.00    -0.274 OA
HETATM   12  H   UNK N   1      47.215  26.350   0.452  0.00  0.00     0.234 HD
ENDBRANCH   8  11
ENDBRANCH   7   8
ENDBRANCH   4   7
BRANCH   2  13
HETATM   13  O   UNK N   1      41.819  23.564   2.570  0.00  0.00    -0.390 OA
HETATM   14  H   UNK N   1      41.142  23.704   3.251  0.00  0.00     0.210 HD
ENDBRANCH   2  13
BRANCH   5  15
HETATM   15  O   UNK N   1      45.734  22.425   4.268  0.00  0.00    -0.368 OA
HETATM   16  H   UNK N   1      46.376  23.033   3.867  0.00  0.00     0.212 HD
ENDBRANCH   5  15
BRANCH   1  17
HETATM   17  O   UNK N   1      41.580  20.735   1.208  0.00  0.00    -0.390 OA
HETATM   18  H   UNK N   1      41.607  21.157   0.335  0.00  0.00     0.210 HD
ENDBRANCH   1  17
BRANCH   3  19
HETATM   19  C   UNK N   1      43.113  18.909   2.855  0.00  0.00     0.172 C 
HETATM   20  O   UNK N   1      41.929  18.634   3.029  0.00  0.00    -0.648 OA
BRANCH  19  21
HETATM   21  O   UNK N   1      44.030  17.929   2.904  0.00  0.00    -0.774 OA
HETATM   22  H   UNK N   1      44.816  17.943   2.394  0.00  0.00     0.167 HD
ENDBRANCH  19  21
ENDBRANCH   3  19
TORSDOF 8
ENDMDL
MODEL 7
REMARK VINA RESULT:      -4.9     16.000     19.228
REMARK  8 active torsions:
REMARK  status: ('A' for Active; 'I' for Inactive)
REMARK    1  A    between atoms: C_1  and  O_7 
REMARK    2  A    between atoms: C_2  and  O_8 
REMARK    3  A    between atoms: C_3  and  C_5 
REMARK    4  A    between atoms: C_4  and  O_16 
REMARK    5  A    between atoms: O_10  and  C_5 
REMARK    6  A    between atoms: C_6  and  O_11 
REMARK    7  A    between atoms: S_17  and  O_12 
REMARK    8  A    between atoms: S_17  and  O_16 
ROOT
HETATM    1  C   UNK N   1      27.399  23.752  -7.193  0.00  0.00     0.189 C 
HETATM    2  C   UNK N   1      28.496  24.055  -6.142  0.00  0.00     0.185 C 
HETATM    3  C   UNK N   1      26.242  22.924  -6.580  0.00  0.00     0.253 C 
HETATM    4  C   UNK N   1      27.973  23.828  -4.709  0.00  0.00     0.230 C 
HETATM    5  C   UNK N   1      26.488  24.283  -4.594  0.00  0.00     0.291 C 
HETATM    6  O   UNK N   1      25.613  23.651  -5.529  0.00  0.00    -0.340 OA
ENDROOT
BRANCH   4   7
HETATM    7  O   UNK N   1      28.894  24.288  -3.721  0.00  0.00    -0.251 OA
BRANCH   7   8
HETATM    8  S   UNK N   1      29.842  23.013  -3.021  0.00  0.00     0.241 S 
HETATM    9  O   UNK N   1      28.601  23.106  -2.119  0.00  0.00    -0.579 OA
HETATM   10  O   UNK N   1      30.575  24.342  -2.777  0.00  0.00    -0.579 OA
BRANCH   8  11
HETATM   11  O   UNK N   1      30.453  23.062  -1.417  0.00  0.00    -0.274 OA
HETATM   12  H   UNK N   1      31.403  23.174  -1.262  0.00  0.00     0.234 HD
ENDBRANCH   8  11
ENDBRANCH   7   8
ENDBRANCH   4   7
BRANCH   2  13
HETATM   13  O   UNK N   1      28.947  25.365  -6.320  0.00  0.00    -0.390 OA
HETATM   14  H   UNK N   1      29.028  26.258  -5.951  0.00  0.00     0.210 HD
ENDBRANCH   2  13
BRANCH   5  15
HETATM   15  O   UNK N   1      26.015  23.998  -3.313  0.00  0.00    -0.368 OA
HETATM   16  H   UNK N   1      26.310  23.275  -2.737  0.00  0.00     0.212 HD
ENDBRANCH   5  15
BRANCH   1  17
HETATM   17  O   UNK N   1      27.970  23.120  -8.301  0.00  0.00    -0.390 OA
HETATM   18  H   UNK N   1      28.844  22.701  -8.254  0.00  0.00     0.210 HD
ENDBRANCH   1  17
BRANCH   3  19
HETATM   19  C   UNK N   1      25.204  22.587  -7.624  0.00  0.00     0.172 C 
HETATM   20  O   UNK N   1      24.794  23.454  -8.390  0.00  0.00    -0.648 OA
BRANCH  19  21
HETATM   21  O   UNK N   1      24.696  21.347  -7.701  0.00  0.00    -0.774 OA
HETATM   22  H   UNK N   1      25.124  20.650  -8.157  0.00  0.00     0.167 HD
ENDBRANCH  19  21
ENDBRANCH   3  19
TORSDOF 8
ENDMDL
MODEL 8
REMARK VINA RESULT:      -4.8      2.252      5.605
REMARK  8 active torsions:
REMARK  status: ('A' for Active; 'I' for Inactive)
REMARK    1  A    between atoms: C_1  and  O_7 
REMARK    2  A    between atoms: C_2  and  O_8 
REMARK    3  A    between atoms: C_3  and  C_5 
REMARK    4  A    between atoms: C_4  and  O_16 
REMARK    5  A    between atoms: O_10  and  C_5 
REMARK    6  A    between atoms: C_6  and  O_11 
REMARK    7  A    between atoms: S_17  and  O_12 
REMARK    8  A    between atoms: S_17  and  O_16 
ROOT
HETATM    1  C   UNK N   1      34.497  16.548   9.743  0.00  0.00     0.189 C 
HETATM    2  C   UNK N   1      34.596  15.116  10.328  0.00  0.00     0.185 C 
HETATM    3  C   UNK N   1      34.568  16.531   8.196  0.00  0.00     0.253 C 
HETATM    4  C   UNK N   1      34.322  14.052   9.247  0.00  0.00     0.230 C 
HETATM    5  C   UNK N   1      33.203  14.536   8.279  0.00  0.00     0.291 C 
HETATM    6  O   UNK N   1      33.477  15.792   7.656  0.00  0.00    -0.340 OA
ENDROOT
BRANCH   4   7
HETATM    7  O   UNK N   1      34.210  12.740   9.799  0.00  0.00    -0.251 OA
BRANCH   7   8
HETATM    8  S   UNK N   1      35.731  12.083  10.317  0.00  0.00     0.241 S 
HETATM    9  O   UNK N   1      35.206  11.069   9.288  0.00  0.00    -0.579 OA
HETATM   10  O   UNK N   1      34.738  11.968  11.486  0.00  0.00    -0.579 OA
BRANCH   8  11
HETATM   11  O   UNK N   1      35.887  10.549  11.073  0.00  0.00    -0.274 OA
HETATM   12  H   UNK N   1      36.757  10.239  11.370  0.00  0.00     0.234 HD
ENDBRANCH   8  11
ENDBRANCH   7   8
ENDBRANCH   4   7
BRANCH   2  13
HETATM   13  O   UNK N   1      33.705  15.000  11.398  0.00  0.00    -0.390 OA
HETATM   14  H   UNK N   1      33.065  15.440  11.980  0.00  0.00     0.210 HD
ENDBRANCH   2  13
BRANCH   5  15
HETATM   15  O   UNK N   1      33.026  13.592   7.267  0.00  0.00    -0.368 OA
HETATM   16  H   UNK N   1      33.648  13.393   6.549  0.00  0.00     0.212 HD
ENDBRANCH   5  15
BRANCH   1  17
HETATM   17  O   UNK N   1      35.488  17.356  10.308  0.00  0.00    -0.390 OA
HETATM   18  H   UNK N   1      35.438  18.324  10.271  0.00  0.00     0.210 HD
ENDBRANCH   1  17
BRANCH   3  19
HETATM   19  C   UNK N   1      34.527  17.933   7.636  0.00  0.00     0.172 C 
HETATM   20  O   UNK N   1      34.158  18.126   6.481  0.00  0.00    -0.648 OA
BRANCH  19  21
HETATM   21  O   UNK N   1      34.924  18.975   8.382  0.00  0.00    -0.774 OA
HETATM   22  H   UNK N   1      34.957  19.852   8.053  0.00  0.00     0.167 HD
ENDBRANCH  19  21
ENDBRANCH   3  19
TORSDOF 8
ENDMDL
MODEL 9
REMARK VINA RESULT:      -4.8     12.360     14.824
REMARK  8 active torsions:
REMARK  status: ('A' for Active; 'I' for Inactive)
REMARK    1  A    between atoms: C_1  and  O_7 
REMARK    2  A    between atoms: C_2  and  O_8 
REMARK    3  A    between atoms: C_3  and  C_5 
REMARK    4  A    between atoms: C_4  and  O_16 
REMARK    5  A    between atoms: O_10  and  C_5 
REMARK    6  A    between atoms: C_6  and  O_11 
REMARK    7  A    between atoms: S_17  and  O_12 
REMARK    8  A    between atoms: S_17  and  O_16 
ROOT
HETATM    1  C   UNK N   1      23.558  18.742   5.038  0.00  0.00     0.189 C 
HETATM    2  C   UNK N   1      22.419  17.731   5.323  0.00  0.00     0.185 C 
HETATM    3  C   UNK N   1      23.445  19.331   3.610  0.00  0.00     0.253 C 
HETATM    4  C   UNK N   1      21.269  17.885   4.307  0.00  0.00     0.230 C 
HETATM    5  C   UNK N   1      21.052  19.386   3.956  0.00  0.00     0.291 C 
HETATM    6  O   UNK N   1      22.219  20.042   3.461  0.00  0.00    -0.340 OA
ENDROOT
BRANCH   4   7
HETATM    7  O   UNK N   1      20.127  17.107   4.665  0.00  0.00    -0.251 OA
BRANCH   7   8
HETATM    8  S   UNK N   1      20.198  15.475   4.079  0.00  0.00     0.241 S 
HETATM    9  O   UNK N   1      19.999  16.327   2.815  0.00  0.00    -0.579 OA
HETATM   10  O   UNK N   1      18.879  15.648   4.850  0.00  0.00    -0.579 OA
BRANCH   8  11
HETATM   11  O   UNK N   1      18.913  14.722   3.224  0.00  0.00    -0.274 OA
HETATM   12  H   UNK N   1      18.329  14.095   3.677  0.00  0.00     0.234 HD
ENDBRANCH   8  11
ENDBRANCH   7   8
ENDBRANCH   4   7
BRANCH   2  13
HETATM   13  O   UNK N   1      21.970  17.909   6.634  0.00  0.00    -0.390 OA
HETATM   14  H   UNK N   1      22.203  18.036   7.567  0.00  0.00     0.210 HD
ENDBRANCH   2  13
BRANCH   5  15
HETATM   15  O   UNK N   1      20.060  19.494   2.981  0.00  0.00    -0.368 OA
HETATM   16  H   UNK N   1      19.249  18.964   2.921  0.00  0.00     0.212 HD
ENDBRANCH   5  15
BRANCH   1  17
HETATM   17  O   UNK N   1      24.795  18.131   5.260  0.00  0.00    -0.390 OA
HETATM   18  H   UNK N   1      24.953  17.565   6.032  0.00  0.00     0.210 HD
ENDBRANCH   1  17
BRANCH   3  19
HETATM   19  C   UNK N   1      24.589  20.273   3.320  0.00  0.00     0.172 C 
HETATM   20  O   UNK N   1      25.394  20.558   4.202  0.00  0.00    -0.648 OA
BRANCH  19  21
HETATM   21  O   UNK N   1      24.717  20.835   2.107  0.00  0.00    -0.774 OA
HETATM   22  H   UNK N   1      25.413  21.422   1.891  0.00  0.00     0.167 HD
ENDBRANCH  19  21
ENDBRANCH   3  19
TORSDOF 8
ENDMDL
