REMARK  6 active torsions:
REMARK  status: ('A' for Active; 'I' for Inactive)
REMARK    1  A    between atoms: C_2  and  N_1 
REMARK    2  A    between atoms: C_2  and  C_3 
REMARK    3  A    between atoms: C_2  and  C_13 
REMARK    4  A    between atoms: C_3  and  N_4 
REMARK       I    between atoms: N_4  and  C_5 
REMARK    5  A    between atoms: C_5  and  C_7 
REMARK    6  A    between atoms: C_13  and  O_14 
ROOT
HETATM    1  N   UNK N   1       0.727  -0.882  -0.161  0.00  0.00    -0.354 N 
HETATM    2  C   UNK N   1      -0.559  -1.283   0.037  0.00  0.00     0.251 C 
HETATM    3  O   UNK N   1      -0.763  -2.464   0.267  0.00  0.00    -0.268 OA
HETATM    4  H   UNK N   1       1.436  -1.555  -0.045  0.00  0.00     0.162 HD
ENDROOT
BRANCH   1   5
HETATM    5  C   UNK N   1       1.132   0.453  -0.528  0.00  0.00     0.158 C 
BRANCH   5   6
HETATM    6  C   UNK N   1       2.259   0.959   0.360  0.00  0.00     0.191 C 
BRANCH   6   7
HETATM    7  N   UNK N   1       2.546   2.337  -0.004  0.00  0.00    -0.416 N 
HETATM    8  H   UNK N   1       3.484   2.646  -0.259  0.00  0.00     0.150 HD
HETATM    9  H   UNK N   1       1.786   3.017  -0.004  0.00  0.00     0.150 HD
ENDBRANCH   6   7
BRANCH   6  10
HETATM   10  C   UNK N   1       3.487   0.105   0.196  0.00  0.00     0.164 C 
HETATM   11  O   UNK N   1       3.472  -1.059   0.563  0.00  0.00    -0.648 OA
BRANCH  10  12
HETATM   12  O   UNK N   1       4.609   0.613  -0.352  0.00  0.00    -0.775 OA
HETATM   13  H   UNK N   1       5.304   0.114  -0.733  0.00  0.00     0.167 HD
ENDBRANCH  10  12
ENDBRANCH   6  10
ENDBRANCH   5   6
ENDBRANCH   1   5
BRANCH   2  14
HETATM   14  C   UNK N   1      -1.732  -0.358  -0.043  0.00  0.00     0.032 A 
HETATM   15  C   UNK N   1      -3.029  -0.897  -0.014  0.00  0.00     0.017 A 
HETATM   16  C   UNK N   1      -4.149  -0.063  -0.092  0.00  0.00     0.001 A 
HETATM   17  C   UNK N   1      -3.985   1.320  -0.186  0.00  0.00     0.000 A 
HETATM   18  C   UNK N   1      -2.702   1.870  -0.205  0.00  0.00     0.001 A 
HETATM   19  C   UNK N   1      -1.585   1.035  -0.137  0.00  0.00     0.017 A 
ENDBRANCH   2  14
TORSDOF 6
