MODEL 1
REMARK VINA RESULT:      -9.4      0.000      0.000
REMARK  13 active torsions:
REMARK  status: ('A' for Active; 'I' for Inactive)
REMARK    1  A    between atoms: C_9  and  C_7 
REMARK    2  A    between atoms: C_18  and  C_9 
REMARK    3  A    between atoms: C_31  and  C_19 
REMARK    4  A    between atoms: C_32  and  C_21 
REMARK    5  A    between atoms: O_39  and  C_22 
REMARK    6  A    between atoms: O_46  and  C_23 
REMARK    7  A    between atoms: N_38  and  C_25 
REMARK    8  A    between atoms: O_40  and  C_26 
REMARK    9  A    between atoms: C_27  and  O_41 
REMARK   10  A    between atoms: C_29  and  O_48 
REMARK   11  A    between atoms: C_30  and  O_45 
REMARK       I    between atoms: N_38  and  C_31 
REMARK   12  A    between atoms: O_48  and  C_32 
REMARK   13  A    between atoms: C_34  and  O_46 
ROOT
HETATM    1  C   UNK N   1      29.333  17.122   7.280  0.00  0.00     0.020 A 
HETATM    2  C   UNK N   1      28.601  16.704   6.169  0.00  0.00     0.040 A 
HETATM    3  C   UNK N   1      30.702  17.373   7.153  0.00  0.00     0.035 A 
HETATM    4  C   UNK N   1      29.220  16.549   4.921  0.00  0.00     0.096 A 
HETATM    5  C   UNK N   1      30.580  16.883   4.770  0.00  0.00     0.102 A 
HETATM    6  C   UNK N   1      32.914  17.702   8.084  0.00  0.00     0.146 A 
HETATM    7  C   UNK N   1      31.518  17.576   8.278  0.00  0.00     0.111 A 
HETATM    8  C   UNK N   1      31.310  17.292   5.882  0.00  0.00     0.117 A 
HETATM    9  C   UNK N   1      33.408  17.679   6.773  0.00  0.00     0.318 A 
HETATM   10 Cl   UNK N   1      31.473  16.621   3.269  0.00  0.00    -0.078 Cl
HETATM   11  O   UNK N   1      34.608  17.772   6.574  0.00  0.00    -0.257 OA
HETATM   12  O   UNK N   1      32.609  17.486   5.746  0.00  0.00    -0.271 OA
ENDROOT
BRANCH   4  13
HETATM   13  O   UNK N   1      28.509  15.980   3.927  0.00  0.00    -0.316 OA
BRANCH  13  14
HETATM   14  C   UNK N   1      27.223  15.506   4.025  0.00  0.00     0.298 C 
HETATM   15  C   UNK N   1      26.312  16.356   3.108  0.00  0.00     0.206 C 
HETATM   16  C   UNK N   1      25.134  15.478   2.692  0.00  0.00     0.197 C 
HETATM   17  C   UNK N   1      25.735  14.379   1.785  0.00  0.00     0.186 C 
HETATM   18  C   UNK N   1      27.053  13.768   2.402  0.00  0.00     0.085 C 
HETATM   19  C   UNK N   1      27.059  12.251   2.314  0.00  0.00     0.048 C 
HETATM   20  C   UNK N   1      28.292  14.218   1.625  0.00  0.00     0.048 C 
HETATM   21  O   UNK N   1      27.201  14.101   3.770  0.00  0.00    -0.345 OA
BRANCH  15  22
HETATM   22  O   UNK N   1      25.898  17.515   3.774  0.00  0.00    -0.388 OA
HETATM   23  H   UNK N   1      25.028  17.926   3.645  0.00  0.00     0.210 HD
ENDBRANCH  15  22
BRANCH  16  24
HETATM   24  O   UNK N   1      24.540  14.909   3.817  0.00  0.00    -0.305 OA
BRANCH  24  25
HETATM   25  C   UNK N   1      23.232  15.048   4.166  0.00  0.00     0.310 C 
HETATM   26  O   UNK N   1      22.723  14.206   4.889  0.00  0.00    -0.258 OA
BRANCH  25  27
HETATM   27  C   UNK N   1      22.397  16.165   3.674  0.00  0.00     0.108 A 
HETATM   28  C   UNK N   1      21.277  16.051   2.872  0.00  0.00     0.038 A 
HETATM   29  C   UNK N   1      20.798  17.334   2.692  0.00  0.00     0.027 A 
HETATM   30  C   UNK N   1      21.652  18.157   3.397  0.00  0.00     0.005 A 
HETATM   31  C   UNK N   1      21.533  19.635   3.481  0.00  0.00     0.068 C 
HETATM   32  N   UNK N   1      22.620  17.450   4.002  0.00  0.00    -0.355 N 
HETATM   33  H   UNK N   1      23.344  17.802   4.570  0.00  0.00     0.166 HD
ENDBRANCH  25  27
ENDBRANCH  24  25
ENDBRANCH  16  24
BRANCH  17  34
HETATM   34  O   UNK N   1      24.735  13.410   1.533  0.00  0.00    -0.385 OA
HETATM   35  C   UNK N   1      23.851  13.919   0.566  0.00  0.00     0.202 C 
ENDBRANCH  17  34
ENDBRANCH  13  14
ENDBRANCH   4  13
BRANCH   7  36
HETATM   36  O   UNK N   1      30.977  17.522   9.505  0.00  0.00    -0.357 OA
HETATM   37  H   UNK N   1      30.242  18.026   9.796  0.00  0.00     0.217 HD
ENDBRANCH   7  36
BRANCH   6  38
HETATM   38  N   UNK N   1      33.895  17.645   9.105  0.00  0.00    -0.316 N 
HETATM   39  C   UNK N   1      34.728  16.842   9.802  0.00  0.00     0.256 C 
HETATM   40  O   UNK N   1      35.572  17.403  10.485  0.00  0.00    -0.267 OA
HETATM   41  H   UNK N   1      34.021  18.561   9.442  0.00  0.00     0.169 HD
BRANCH  39  42
HETATM   42  C   UNK N   1      34.680  15.362   9.881  0.00  0.00     0.033 A 
HETATM   43  C   UNK N   1      34.246  14.501   8.867  0.00  0.00     0.020 A 
HETATM   44  C   UNK N   1      34.202  13.115   9.096  0.00  0.00     0.038 A 
HETATM   45  C   UNK N   1      34.549  12.592  10.353  0.00  0.00     0.072 A 
HETATM   46  C   UNK N   1      34.944  13.462  11.379  0.00  0.00    -0.021 A 
HETATM   47  C   UNK N   1      35.013  14.817  11.119  0.00  0.00     0.027 A 
BRANCH  45  48
HETATM   48  O   UNK N   1      34.490  11.266  10.567  0.00  0.00    -0.360 OA
HETATM   49  H   UNK N   1      34.955  10.868  11.275  0.00  0.00     0.217 HD
ENDBRANCH  45  48
BRANCH  46  50
HETATM   50  C   UNK N   1      35.281  12.983  12.760  0.00  0.00     0.068 C 
BRANCH  50  51
HETATM   51  C   UNK N   1      36.053  14.027  13.536  0.00  0.00    -0.020 C 
HETATM   52  C   UNK N   1      36.412  13.930  14.831  0.00  0.00    -0.091 C 
HETATM   53  C   UNK N   1      36.057  12.754  15.683  0.00  0.00     0.042 C 
HETATM   54  C   UNK N   1      37.180  15.045  15.451  0.00  0.00     0.042 C 
ENDBRANCH  50  51
ENDBRANCH  46  50
ENDBRANCH  39  42
ENDBRANCH   6  38
TORSDOF 13
ENDMDL
MODEL 2
REMARK VINA RESULT:      -9.2      3.539      6.311
REMARK  13 active torsions:
REMARK  status: ('A' for Active; 'I' for Inactive)
REMARK    1  A    between atoms: C_9  and  C_7 
REMARK    2  A    between atoms: C_18  and  C_9 
REMARK    3  A    between atoms: C_31  and  C_19 
REMARK    4  A    between atoms: C_32  and  C_21 
REMARK    5  A    between atoms: O_39  and  C_22 
REMARK    6  A    between atoms: O_46  and  C_23 
REMARK    7  A    between atoms: N_38  and  C_25 
REMARK    8  A    between atoms: O_40  and  C_26 
REMARK    9  A    between atoms: C_27  and  O_41 
REMARK   10  A    between atoms: C_29  and  O_48 
REMARK   11  A    between atoms: C_30  and  O_45 
REMARK       I    between atoms: N_38  and  C_31 
REMARK   12  A    between atoms: O_48  and  C_32 
REMARK   13  A    between atoms: C_34  and  O_46 
ROOT
HETATM    1  C   UNK N   1      28.065  17.557   3.814  0.00  0.00     0.020 A 
HETATM    2  C   UNK N   1      26.702  17.263   3.831  0.00  0.00     0.040 A 
HETATM    3  C   UNK N   1      28.987  16.552   3.508  0.00  0.00     0.035 A 
HETATM    4  C   UNK N   1      26.245  15.973   3.528  0.00  0.00     0.096 A 
HETATM    5  C   UNK N   1      27.164  14.980   3.136  0.00  0.00     0.102 A 
HETATM    6  C   UNK N   1      31.231  15.641   3.484  0.00  0.00     0.146 A 
HETATM    7  C   UNK N   1      30.366  16.740   3.696  0.00  0.00     0.111 A 
HETATM    8  C   UNK N   1      28.524  15.275   3.128  0.00  0.00     0.117 A 
HETATM    9  C   UNK N   1      30.676  14.434   3.038  0.00  0.00     0.318 A 
HETATM   10 Cl   UNK N   1      26.698  13.303   2.840  0.00  0.00    -0.078 Cl
HETATM   11  O   UNK N   1      31.393  13.464   2.858  0.00  0.00    -0.257 OA
HETATM   12  O   UNK N   1      29.377  14.300   2.875  0.00  0.00    -0.271 OA
ENDROOT
BRANCH   4  13
HETATM   13  O   UNK N   1      24.939  15.701   3.727  0.00  0.00    -0.316 OA
BRANCH  13  14
HETATM   14  C   UNK N   1      24.420  14.949   4.752  0.00  0.00     0.298 C 
HETATM   15  C   UNK N   1      24.213  15.865   5.981  0.00  0.00     0.206 C 
HETATM   16  C   UNK N   1      23.080  15.268   6.812  0.00  0.00     0.197 C 
HETATM   17  C   UNK N   1      21.805  15.427   5.951  0.00  0.00     0.186 C 
HETATM   18  C   UNK N   1      22.055  14.999   4.453  0.00  0.00     0.085 C 
HETATM   19  C   UNK N   1      20.928  14.125   3.926  0.00  0.00     0.048 C 
HETATM   20  C   UNK N   1      22.085  16.214   3.523  0.00  0.00     0.048 C 
HETATM   21  O   UNK N   1      23.252  14.258   4.306  0.00  0.00    -0.345 OA
BRANCH  15  22
HETATM   22  O   UNK N   1      25.402  15.975   6.711  0.00  0.00    -0.388 OA
HETATM   23  H   UNK N   1      26.275  15.746   6.354  0.00  0.00     0.210 HD
ENDBRANCH  15  22
BRANCH  16  24
HETATM   24  O   UNK N   1      23.330  13.921   7.066  0.00  0.00    -0.305 OA
BRANCH  24  25
HETATM   25  C   UNK N   1      23.970  13.438   8.166  0.00  0.00     0.310 C 
HETATM   26  O   UNK N   1      25.188  13.346   8.146  0.00  0.00    -0.258 OA
BRANCH  25  27
HETATM   27  C   UNK N   1      23.240  12.989   9.371  0.00  0.00     0.108 A 
HETATM   28  C   UNK N   1      21.882  12.742   9.454  0.00  0.00     0.038 A 
HETATM   29  C   UNK N   1      21.645  12.313  10.745  0.00  0.00     0.027 A 
HETATM   30  C   UNK N   1      22.872  12.318  11.374  0.00  0.00     0.005 A 
HETATM   31  C   UNK N   1      23.104  11.937  12.791  0.00  0.00     0.068 C 
HETATM   32  N   UNK N   1      23.845  12.720  10.541  0.00  0.00    -0.355 N 
HETATM   33  H   UNK N   1      24.805  12.801  10.745  0.00  0.00     0.166 HD
ENDBRANCH  25  27
ENDBRANCH  24  25
ENDBRANCH  16  24
BRANCH  17  34
HETATM   34  O   UNK N   1      20.754  14.708   6.569  0.00  0.00    -0.385 OA
HETATM   35  C   UNK N   1      20.115  15.554   7.492  0.00  0.00     0.202 C 
ENDBRANCH  17  34
ENDBRANCH  13  14
ENDBRANCH   4  13
BRANCH   7  36
HETATM   36  O   UNK N   1      30.814  17.907   4.186  0.00  0.00    -0.357 OA
HETATM   37  H   UNK N   1      30.648  18.232   5.049  0.00  0.00     0.217 HD
ENDBRANCH   7  36
BRANCH   6  38
HETATM   38  N   UNK N   1      32.592  15.576   3.876  0.00  0.00    -0.316 N 
HETATM   39  C   UNK N   1      33.444  15.319   4.891  0.00  0.00     0.256 C 
HETATM   40  O   UNK N   1      34.624  15.208   4.590  0.00  0.00    -0.267 OA
HETATM   41  H   UNK N   1      33.135  15.815   3.091  0.00  0.00     0.169 HD
BRANCH  39  42
HETATM   42  C   UNK N   1      33.112  15.228   6.334  0.00  0.00     0.033 A 
HETATM   43  C   UNK N   1      33.235  14.085   7.131  0.00  0.00     0.020 A 
HETATM   44  C   UNK N   1      32.831  14.123   8.477  0.00  0.00     0.038 A 
HETATM   45  C   UNK N   1      32.263  15.290   9.014  0.00  0.00     0.072 A 
HETATM   46  C   UNK N   1      32.103  16.420   8.200  0.00  0.00    -0.021 A 
HETATM   47  C   UNK N   1      32.540  16.369   6.890  0.00  0.00     0.027 A 
BRANCH  45  48
HETATM   48  O   UNK N   1      31.866  15.312  10.298  0.00  0.00    -0.360 OA
HETATM   49  H   UNK N   1      31.532  14.544  10.717  0.00  0.00     0.217 HD
ENDBRANCH  45  48
BRANCH  46  50
HETATM   50  C   UNK N   1      31.459  17.684   8.688  0.00  0.00     0.068 C 
BRANCH  50  51
HETATM   51  C   UNK N   1      30.282  18.078   7.821  0.00  0.00    -0.020 C 
HETATM   52  C   UNK N   1      28.990  18.038   8.195  0.00  0.00    -0.091 C 
HETATM   53  C   UNK N   1      28.552  17.562   9.544  0.00  0.00     0.042 C 
HETATM   54  C   UNK N   1      27.945  18.468   7.225  0.00  0.00     0.042 C 
ENDBRANCH  50  51
ENDBRANCH  46  50
ENDBRANCH  39  42
ENDBRANCH   6  38
TORSDOF 13
ENDMDL
MODEL 3
REMARK VINA RESULT:      -9.2      2.151      2.873
REMARK  13 active torsions:
REMARK  status: ('A' for Active; 'I' for Inactive)
REMARK    1  A    between atoms: C_9  and  C_7 
REMARK    2  A    between atoms: C_18  and  C_9 
REMARK    3  A    between atoms: C_31  and  C_19 
REMARK    4  A    between atoms: C_32  and  C_21 
REMARK    5  A    between atoms: O_39  and  C_22 
REMARK    6  A    between atoms: O_46  and  C_23 
REMARK    7  A    between atoms: N_38  and  C_25 
REMARK    8  A    between atoms: O_40  and  C_26 
REMARK    9  A    between atoms: C_27  and  O_41 
REMARK   10  A    between atoms: C_29  and  O_48 
REMARK   11  A    between atoms: C_30  and  O_45 
REMARK       I    between atoms: N_38  and  C_31 
REMARK   12  A    between atoms: O_48  and  C_32 
REMARK   13  A    between atoms: C_34  and  O_46 
ROOT
HETATM    1  C   UNK N   1      29.255  17.116   7.365  0.00  0.00     0.020 A 
HETATM    2  C   UNK N   1      28.492  16.649   6.296  0.00  0.00     0.040 A 
HETATM    3  C   UNK N   1      30.624  17.340   7.193  0.00  0.00     0.035 A 
HETATM    4  C   UNK N   1      29.080  16.415   5.045  0.00  0.00     0.096 A 
HETATM    5  C   UNK N   1      30.441  16.720   4.845  0.00  0.00     0.102 A 
HETATM    6  C   UNK N   1      32.861  17.688   8.055  0.00  0.00     0.146 A 
HETATM    7  C   UNK N   1      31.469  17.593   8.287  0.00  0.00     0.111 A 
HETATM    8  C   UNK N   1      31.201  17.179   5.916  0.00  0.00     0.117 A 
HETATM    9  C   UNK N   1      33.324  17.584   6.737  0.00  0.00     0.318 A 
HETATM   10 Cl   UNK N   1      31.294  16.361   3.341  0.00  0.00    -0.078 Cl
HETATM   11  O   UNK N   1      34.520  17.648   6.506  0.00  0.00    -0.257 OA
HETATM   12  O   UNK N   1      32.499  17.346   5.741  0.00  0.00    -0.271 OA
ENDROOT
BRANCH   4  13
HETATM   13  O   UNK N   1      28.338  15.802   4.101  0.00  0.00    -0.316 OA
BRANCH  13  14
HETATM   14  C   UNK N   1      27.506  14.727   4.301  0.00  0.00     0.298 C 
HETATM   15  C   UNK N   1      26.112  15.067   3.722  0.00  0.00     0.206 C 
HETATM   16  C   UNK N   1      25.446  13.751   3.328  0.00  0.00     0.197 C 
HETATM   17  C   UNK N   1      26.274  13.205   2.140  0.00  0.00     0.186 C 
HETATM   18  C   UNK N   1      27.825  13.306   2.414  0.00  0.00     0.085 C 
HETATM   19  C   UNK N   1      28.544  12.024   2.028  0.00  0.00     0.048 C 
HETATM   20  C   UNK N   1      28.472  14.398   1.559  0.00  0.00     0.048 C 
HETATM   21  O   UNK N   1      28.108  13.542   3.781  0.00  0.00    -0.345 OA
BRANCH  15  22
HETATM   22  O   UNK N   1      25.357  15.781   4.659  0.00  0.00    -0.388 OA
HETATM   23  H   UNK N   1      25.202  16.738   4.606  0.00  0.00     0.210 HD
ENDBRANCH  15  22
BRANCH  16  24
HETATM   24  O   UNK N   1      25.484  12.857   4.397  0.00  0.00    -0.305 OA
BRANCH  24  25
HETATM   25  C   UNK N   1      24.406  12.477   5.137  0.00  0.00     0.310 C 
HETATM   26  O   UNK N   1      23.404  12.086   4.559  0.00  0.00    -0.258 OA
BRANCH  25  27
HETATM   27  C   UNK N   1      24.395  12.553   6.614  0.00  0.00     0.108 A 
HETATM   28  C   UNK N   1      25.124  13.437   7.388  0.00  0.00     0.038 A 
HETATM   29  C   UNK N   1      24.781  13.177   8.699  0.00  0.00     0.027 A 
HETATM   30  C   UNK N   1      23.860  12.152   8.651  0.00  0.00     0.005 A 
HETATM   31  C   UNK N   1      23.215  11.530   9.835  0.00  0.00     0.068 C 
HETATM   32  N   UNK N   1      23.616  11.776   7.385  0.00  0.00    -0.355 N 
HETATM   33  H   UNK N   1      22.994  11.074   7.084  0.00  0.00     0.166 HD
ENDBRANCH  25  27
ENDBRANCH  24  25
ENDBRANCH  16  24
BRANCH  17  34
HETATM   34  O   UNK N   1      25.841  11.888   1.860  0.00  0.00    -0.385 OA
HETATM   35  C   UNK N   1      24.793  11.949   0.925  0.00  0.00     0.202 C 
ENDBRANCH  17  34
ENDBRANCH  13  14
ENDBRANCH   4  13
BRANCH   7  36
HETATM   36  O   UNK N   1      30.955  17.616   9.527  0.00  0.00    -0.357 OA
HETATM   37  H   UNK N   1      30.241  18.154   9.808  0.00  0.00     0.217 HD
ENDBRANCH   7  36
BRANCH   6  38
HETATM   38  N   UNK N   1      33.865  17.673   9.056  0.00  0.00    -0.316 N 
HETATM   39  C   UNK N   1      34.734  16.903   9.746  0.00  0.00     0.256 C 
HETATM   40  O   UNK N   1      35.577  17.498  10.403  0.00  0.00    -0.267 OA
HETATM   41  H   UNK N   1      33.972  18.597   9.377  0.00  0.00     0.169 HD
BRANCH  39  42
HETATM   42  C   UNK N   1      34.731  15.424   9.847  0.00  0.00     0.033 A 
HETATM   43  C   UNK N   1      34.362  14.535   8.831  0.00  0.00     0.020 A 
HETATM   44  C   UNK N   1      34.353  13.152   9.080  0.00  0.00     0.038 A 
HETATM   45  C   UNK N   1      34.669  12.659  10.357  0.00  0.00     0.072 A 
HETATM   46  C   UNK N   1      34.997  13.556  11.384  0.00  0.00    -0.021 A 
HETATM   47  C   UNK N   1      35.033  14.909  11.105  0.00  0.00     0.027 A 
BRANCH  45  48
HETATM   48  O   UNK N   1      34.643  11.335  10.590  0.00  0.00    -0.360 OA
HETATM   49  H   UNK N   1      34.650  10.718   9.885  0.00  0.00     0.217 HD
ENDBRANCH  45  48
BRANCH  46  50
HETATM   50  C   UNK N   1      35.296  13.109  12.784  0.00  0.00     0.068 C 
BRANCH  50  51
HETATM   51  C   UNK N   1      36.018  14.182  13.567  0.00  0.00    -0.020 C 
HETATM   52  C   UNK N   1      36.519  14.039  14.809  0.00  0.00    -0.091 C 
HETATM   53  C   UNK N   1      36.395  12.770  15.590  0.00  0.00     0.042 C 
HETATM   54  C   UNK N   1      37.212  15.194  15.444  0.00  0.00     0.042 C 
ENDBRANCH  50  51
ENDBRANCH  46  50
ENDBRANCH  39  42
ENDBRANCH   6  38
TORSDOF 13
ENDMDL
MODEL 4
REMARK VINA RESULT:      -9.2      4.680     13.490
REMARK  13 active torsions:
REMARK  status: ('A' for Active; 'I' for Inactive)
REMARK    1  A    between atoms: C_9  and  C_7 
REMARK    2  A    between atoms: C_18  and  C_9 
REMARK    3  A    between atoms: C_31  and  C_19 
REMARK    4  A    between atoms: C_32  and  C_21 
REMARK    5  A    between atoms: O_39  and  C_22 
REMARK    6  A    between atoms: O_46  and  C_23 
REMARK    7  A    between atoms: N_38  and  C_25 
REMARK    8  A    between atoms: O_40  and  C_26 
REMARK    9  A    between atoms: C_27  and  O_41 
REMARK   10  A    between atoms: C_29  and  O_48 
REMARK   11  A    between atoms: C_30  and  O_45 
REMARK       I    between atoms: N_38  and  C_31 
REMARK   12  A    between atoms: O_48  and  C_32 
REMARK   13  A    between atoms: C_34  and  O_46 
ROOT
HETATM    1  C   UNK N   1      35.601  15.177  11.895  0.00  0.00     0.020 A 
HETATM    2  C   UNK N   1      36.317  14.205  12.593  0.00  0.00     0.040 A 
HETATM    3  C   UNK N   1      34.863  14.815  10.764  0.00  0.00     0.035 A 
HETATM    4  C   UNK N   1      36.292  12.865  12.182  0.00  0.00     0.096 A 
HETATM    5  C   UNK N   1      35.482  12.483  11.095  0.00  0.00     0.102 A 
HETATM    6  C   UNK N   1      33.686  15.348   8.715  0.00  0.00     0.146 A 
HETATM    7  C   UNK N   1      34.315  15.783   9.906  0.00  0.00     0.111 A 
HETATM    8  C   UNK N   1      34.775  13.456  10.396  0.00  0.00     0.117 A 
HETATM    9  C   UNK N   1      33.588  13.970   8.479  0.00  0.00     0.318 A 
HETATM   10 Cl   UNK N   1      35.466  10.843  10.438  0.00  0.00    -0.078 Cl
HETATM   11  O   UNK N   1      33.064  13.565   7.455  0.00  0.00    -0.257 OA
HETATM   12  O   UNK N   1      34.117  13.097   9.308  0.00  0.00    -0.271 OA
ENDROOT
BRANCH   4  13
HETATM   13  O   UNK N   1      37.134  12.002  12.785  0.00  0.00    -0.316 OA
BRANCH  13  14
HETATM   14  C   UNK N   1      36.930  11.391  13.998  0.00  0.00     0.298 C 
HETATM   15  C   UNK N   1      35.574  10.649  13.956  0.00  0.00     0.206 C 
HETATM   16  C   UNK N   1      35.656   9.486  14.942  0.00  0.00     0.197 C 
HETATM   17  C   UNK N   1      36.690   8.505  14.341  0.00  0.00     0.186 C 
HETATM   18  C   UNK N   1      37.979   9.257  13.828  0.00  0.00     0.085 C 
HETATM   19  C   UNK N   1      39.250   8.545  14.262  0.00  0.00     0.048 C 
HETATM   20  C   UNK N   1      38.039   9.282  12.299  0.00  0.00     0.048 C 
HETATM   21  O   UNK N   1      38.057  10.578  14.329  0.00  0.00    -0.345 OA
BRANCH  15  22
HETATM   22  O   UNK N   1      34.529  11.529  14.264  0.00  0.00    -0.388 OA
HETATM   23  H   UNK N   1      34.571  12.184  14.978  0.00  0.00     0.210 HD
ENDBRANCH  15  22
BRANCH  16  24
HETATM   24  O   UNK N   1      36.086   9.943  16.186  0.00  0.00    -0.305 OA
BRANCH  24  25
HETATM   25  C   UNK N   1      35.287  10.120  17.274  0.00  0.00     0.310 C 
HETATM   26  O   UNK N   1      34.551   9.208  17.618  0.00  0.00    -0.258 OA
BRANCH  25  27
HETATM   27  C   UNK N   1      35.254  11.389  18.032  0.00  0.00     0.108 A 
HETATM   28  C   UNK N   1      35.257  11.513  19.409  0.00  0.00     0.038 A 
HETATM   29  C   UNK N   1      35.256  12.868  19.675  0.00  0.00     0.027 A 
HETATM   30  C   UNK N   1      35.255  13.493  18.446  0.00  0.00     0.005 A 
HETATM   31  C   UNK N   1      35.243  14.963  18.238  0.00  0.00     0.068 C 
HETATM   32  N   UNK N   1      35.263  12.598  17.445  0.00  0.00    -0.355 N 
HETATM   33  H   UNK N   1      35.273  12.789  16.479  0.00  0.00     0.166 HD
ENDBRANCH  25  27
ENDBRANCH  24  25
ENDBRANCH  16  24
BRANCH  17  34
HETATM   34  O   UNK N   1      36.972   7.506  15.303  0.00  0.00    -0.385 OA
HETATM   35  C   UNK N   1      35.949   6.543  15.262  0.00  0.00     0.202 C 
ENDBRANCH  17  34
ENDBRANCH  13  14
ENDBRANCH   4  13
BRANCH   7  36
HETATM   36  O   UNK N   1      34.505  17.085  10.170  0.00  0.00    -0.357 OA
HETATM   37  H   UNK N   1      33.833  17.695  10.402  0.00  0.00     0.217 HD
ENDBRANCH   7  36
BRANCH   6  38
HETATM   38  N   UNK N   1      33.321  16.179   7.626  0.00  0.00    -0.316 N 
HETATM   39  C   UNK N   1      32.474  17.139   7.196  0.00  0.00     0.256 C 
HETATM   40  O   UNK N   1      32.767  17.684   6.142  0.00  0.00    -0.267 OA
HETATM   41  H   UNK N   1      33.932  15.973   6.883  0.00  0.00     0.169 HD
BRANCH  39  42
HETATM   42  C   UNK N   1      31.197  17.551   7.828  0.00  0.00     0.033 A 
HETATM   43  C   UNK N   1      31.052  18.064   9.122  0.00  0.00     0.020 A 
HETATM   44  C   UNK N   1      29.772  18.364   9.617  0.00  0.00     0.038 A 
HETATM   45  C   UNK N   1      28.632  18.109   8.837  0.00  0.00     0.072 A 
HETATM   46  C   UNK N   1      28.779  17.556   7.557  0.00  0.00    -0.021 A 
HETATM   47  C   UNK N   1      30.050  17.302   7.079  0.00  0.00     0.027 A 
BRANCH  45  48
HETATM   48  O   UNK N   1      27.410  18.386   9.324  0.00  0.00    -0.360 OA
HETATM   49  H   UNK N   1      26.892  17.725   9.738  0.00  0.00     0.217 HD
ENDBRANCH  45  48
BRANCH  46  50
HETATM   50  C   UNK N   1      27.608  17.210   6.686  0.00  0.00     0.068 C 
BRANCH  50  51
HETATM   51  C   UNK N   1      27.652  17.960   5.373  0.00  0.00    -0.020 C 
HETATM   52  C   UNK N   1      27.404  19.274   5.216  0.00  0.00    -0.091 C 
HETATM   53  C   UNK N   1      27.021  20.167   6.353  0.00  0.00     0.042 C 
HETATM   54  C   UNK N   1      27.495  19.868   3.853  0.00  0.00     0.042 C 
ENDBRANCH  50  51
ENDBRANCH  46  50
ENDBRANCH  39  42
ENDBRANCH   6  38
TORSDOF 13
ENDMDL
MODEL 5
REMARK VINA RESULT:      -9.1      3.105     10.498
REMARK  13 active torsions:
REMARK  status: ('A' for Active; 'I' for Inactive)
REMARK    1  A    between atoms: C_9  and  C_7 
REMARK    2  A    between atoms: C_18  and  C_9 
REMARK    3  A    between atoms: C_31  and  C_19 
REMARK    4  A    between atoms: C_32  and  C_21 
REMARK    5  A    between atoms: O_39  and  C_22 
REMARK    6  A    between atoms: O_46  and  C_23 
REMARK    7  A    between atoms: N_38  and  C_25 
REMARK    8  A    between atoms: O_40  and  C_26 
REMARK    9  A    between atoms: C_27  and  O_41 
REMARK   10  A    between atoms: C_29  and  O_48 
REMARK   11  A    between atoms: C_30  and  O_45 
REMARK       I    between atoms: N_38  and  C_31 
REMARK   12  A    between atoms: O_48  and  C_32 
REMARK   13  A    between atoms: C_34  and  O_46 
ROOT
HETATM    1  C   UNK N   1      24.983  15.764   3.448  0.00  0.00     0.020 A 
HETATM    2  C   UNK N   1      26.267  16.279   3.274  0.00  0.00     0.040 A 
HETATM    3  C   UNK N   1      24.044  16.482   4.195  0.00  0.00     0.035 A 
HETATM    4  C   UNK N   1      26.623  17.517   3.827  0.00  0.00     0.096 A 
HETATM    5  C   UNK N   1      25.655  18.282   4.507  0.00  0.00     0.102 A 
HETATM    6  C   UNK N   1      21.974  16.647   5.440  0.00  0.00     0.146 A 
HETATM    7  C   UNK N   1      22.822  15.908   4.583  0.00  0.00     0.111 A 
HETATM    8  C   UNK N   1      24.377  17.762   4.685  0.00  0.00     0.117 A 
HETATM    9  C   UNK N   1      22.366  17.940   5.812  0.00  0.00     0.318 A 
HETATM   10 Cl   UNK N   1      26.033  19.800   5.327  0.00  0.00    -0.078 Cl
HETATM   11  O   UNK N   1      21.662  18.597   6.561  0.00  0.00    -0.257 OA
HETATM   12  O   UNK N   1      23.520  18.440   5.427  0.00  0.00    -0.271 OA
ENDROOT
BRANCH   4  13
HETATM   13  O   UNK N   1      27.919  17.884   3.776  0.00  0.00    -0.316 OA
BRANCH  13  14
HETATM   14  C   UNK N   1      28.814  17.827   4.817  0.00  0.00     0.298 C 
HETATM   15  C   UNK N   1      28.578  16.515   5.600  0.00  0.00     0.206 C 
HETATM   16  C   UNK N   1      29.901  16.129   6.258  0.00  0.00     0.197 C 
HETATM   17  C   UNK N   1      30.850  15.758   5.094  0.00  0.00     0.186 C 
HETATM   18  C   UNK N   1      30.777  16.813   3.922  0.00  0.00     0.085 C 
HETATM   19  C   UNK N   1      32.163  17.193   3.426  0.00  0.00     0.048 C 
HETATM   20  C   UNK N   1      30.059  16.239   2.699  0.00  0.00     0.048 C 
HETATM   21  O   UNK N   1      30.143  18.012   4.327  0.00  0.00    -0.345 OA
BRANCH  15  22
HETATM   22  O   UNK N   1      27.553  16.686   6.538  0.00  0.00    -0.388 OA
HETATM   23  H   UNK N   1      26.742  17.189   6.362  0.00  0.00     0.210 HD
ENDBRANCH  15  22
BRANCH  16  24
HETATM   24  O   UNK N   1      30.411  17.208   6.976  0.00  0.00    -0.305 OA
BRANCH  24  25
HETATM   25  C   UNK N   1      30.939  17.135   8.229  0.00  0.00     0.310 C 
HETATM   26  O   UNK N   1      30.185  16.969   9.176  0.00  0.00    -0.258 OA
BRANCH  25  27
HETATM   27  C   UNK N   1      32.387  17.282   8.487  0.00  0.00     0.108 A 
HETATM   28  C   UNK N   1      33.242  18.159   7.845  0.00  0.00     0.038 A 
HETATM   29  C   UNK N   1      34.484  17.981   8.423  0.00  0.00     0.027 A 
HETATM   30  C   UNK N   1      34.314  17.009   9.386  0.00  0.00     0.005 A 
HETATM   31  C   UNK N   1      35.392  16.482  10.262  0.00  0.00     0.068 C 
HETATM   32  N   UNK N   1      33.041  16.587   9.435  0.00  0.00    -0.355 N 
HETATM   33  H   UNK N   1      32.663  15.909  10.040  0.00  0.00     0.166 HD
ENDBRANCH  25  27
ENDBRANCH  24  25
ENDBRANCH  16  24
BRANCH  17  34
HETATM   34  O   UNK N   1      32.155  15.593   5.615  0.00  0.00    -0.385 OA
HETATM   35  C   UNK N   1      32.268  14.291   6.134  0.00  0.00     0.202 C 
ENDBRANCH  17  34
ENDBRANCH  13  14
ENDBRANCH   4  13
BRANCH   7  36
HETATM   36  O   UNK N   1      22.548  14.640   4.237  0.00  0.00    -0.357 OA
HETATM   37  H   UNK N   1      22.736  14.253   3.405  0.00  0.00     0.217 HD
ENDBRANCH   7  36
BRANCH   6  38
HETATM   38  N   UNK N   1      20.851  16.129   6.133  0.00  0.00    -0.316 N 
HETATM   39  C   UNK N   1      20.436  15.432   7.214  0.00  0.00     0.256 C 
HETATM   40  O   UNK N   1      19.236  15.458   7.443  0.00  0.00    -0.267 OA
HETATM   41  H   UNK N   1      20.049  16.377   5.620  0.00  0.00     0.169 HD
BRANCH  39  42
HETATM   42  C   UNK N   1      21.269  14.587   8.103  0.00  0.00     0.033 A 
HETATM   43  C   UNK N   1      20.963  14.238   9.423  0.00  0.00     0.020 A 
HETATM   44  C   UNK N   1      21.871  13.472  10.174  0.00  0.00     0.038 A 
HETATM   45  C   UNK N   1      23.106  13.092   9.621  0.00  0.00     0.072 A 
HETATM   46  C   UNK N   1      23.426  13.480   8.312  0.00  0.00    -0.021 A 
HETATM   47  C   UNK N   1      22.502  14.203   7.582  0.00  0.00     0.027 A 
BRANCH  45  48
HETATM   48  O   UNK N   1      23.974  12.372  10.351  0.00  0.00    -0.360 OA
HETATM   49  H   UNK N   1      24.709  12.776  10.769  0.00  0.00     0.217 HD
ENDBRANCH  45  48
BRANCH  46  50
HETATM   50  C   UNK N   1      24.744  13.156   7.673  0.00  0.00     0.068 C 
BRANCH  50  51
HETATM   51  C   UNK N   1      24.561  12.584   6.284  0.00  0.00    -0.020 C 
HETATM   52  C   UNK N   1      25.477  12.620   5.298  0.00  0.00    -0.091 C 
HETATM   53  C   UNK N   1      26.814  13.271   5.459  0.00  0.00     0.042 C 
HETATM   54  C   UNK N   1      25.146  12.004   3.983  0.00  0.00     0.042 C 
ENDBRANCH  50  51
ENDBRANCH  46  50
ENDBRANCH  39  42
ENDBRANCH   6  38
TORSDOF 13
ENDMDL
MODEL 6
REMARK VINA RESULT:      -9.0      1.315      3.174
REMARK  13 active torsions:
REMARK  status: ('A' for Active; 'I' for Inactive)
REMARK    1  A    between atoms: C_9  and  C_7 
REMARK    2  A    between atoms: C_18  and  C_9 
REMARK    3  A    between atoms: C_31  and  C_19 
REMARK    4  A    between atoms: C_32  and  C_21 
REMARK    5  A    between atoms: O_39  and  C_22 
REMARK    6  A    between atoms: O_46  and  C_23 
REMARK    7  A    between atoms: N_38  and  C_25 
REMARK    8  A    between atoms: O_40  and  C_26 
REMARK    9  A    between atoms: C_27  and  O_41 
REMARK   10  A    between atoms: C_29  and  O_48 
REMARK   11  A    between atoms: C_30  and  O_45 
REMARK       I    between atoms: N_38  and  C_31 
REMARK   12  A    between atoms: O_48  and  C_32 
REMARK   13  A    between atoms: C_34  and  O_46 
ROOT
HETATM    1  C   UNK N   1      29.312  17.176   7.284  0.00  0.00     0.020 A 
HETATM    2  C   UNK N   1      28.571  16.790   6.168  0.00  0.00     0.040 A 
HETATM    3  C   UNK N   1      30.683  17.421   7.154  0.00  0.00     0.035 A 
HETATM    4  C   UNK N   1      29.181  16.659   4.914  0.00  0.00     0.096 A 
HETATM    5  C   UNK N   1      30.544  16.986   4.762  0.00  0.00     0.102 A 
HETATM    6  C   UNK N   1      32.902  17.713   8.079  0.00  0.00     0.146 A 
HETATM    7  C   UNK N   1      31.507  17.592   8.279  0.00  0.00     0.111 A 
HETATM    8  C   UNK N   1      31.282  17.364   5.879  0.00  0.00     0.117 A 
HETATM    9  C   UNK N   1      33.388  17.716   6.765  0.00  0.00     0.318 A 
HETATM   10 Cl   UNK N   1      31.425  16.752   3.250  0.00  0.00    -0.078 Cl
HETATM   11  O   UNK N   1      34.588  17.805   6.561  0.00  0.00    -0.257 OA
HETATM   12  O   UNK N   1      32.582  17.552   5.739  0.00  0.00    -0.271 OA
ENDROOT
BRANCH   4  13
HETATM   13  O   UNK N   1      28.460  16.118   3.911  0.00  0.00    -0.316 OA
BRANCH  13  14
HETATM   14  C   UNK N   1      27.195  15.595   4.020  0.00  0.00     0.298 C 
HETATM   15  C   UNK N   1      26.241  16.418   3.122  0.00  0.00     0.206 C 
HETATM   16  C   UNK N   1      25.092  15.501   2.712  0.00  0.00     0.197 C 
HETATM   17  C   UNK N   1      25.722  14.433   1.787  0.00  0.00     0.186 C 
HETATM   18  C   UNK N   1      27.069  13.867   2.382  0.00  0.00     0.085 C 
HETATM   19  C   UNK N   1      27.132  12.352   2.279  0.00  0.00     0.048 C 
HETATM   20  C   UNK N   1      28.282  14.370   1.595  0.00  0.00     0.048 C 
HETATM   21  O   UNK N   1      27.222  14.192   3.751  0.00  0.00    -0.345 OA
BRANCH  15  22
HETATM   22  O   UNK N   1      25.792  17.555   3.804  0.00  0.00    -0.388 OA
HETATM   23  H   UNK N   1      25.357  18.305   3.369  0.00  0.00     0.210 HD
ENDBRANCH  15  22
BRANCH  16  24
HETATM   24  O   UNK N   1      24.534  14.899   3.838  0.00  0.00    -0.305 OA
BRANCH  24  25
HETATM   25  C   UNK N   1      23.285  15.146   4.320  0.00  0.00     0.310 C 
HETATM   26  O   UNK N   1      22.856  14.451   5.228  0.00  0.00    -0.258 OA
BRANCH  25  27
HETATM   27  C   UNK N   1      22.417  16.205   3.760  0.00  0.00     0.108 A 
HETATM   28  C   UNK N   1      21.345  16.011   2.909  0.00  0.00     0.038 A 
HETATM   29  C   UNK N   1      20.808  17.261   2.672  0.00  0.00     0.027 A 
HETATM   30  C   UNK N   1      21.582  18.145   3.395  0.00  0.00     0.005 A 
HETATM   31  C   UNK N   1      21.381  19.616   3.435  0.00  0.00     0.068 C 
HETATM   32  N   UNK N   1      22.555  17.507   4.064  0.00  0.00    -0.355 N 
HETATM   33  H   UNK N   1      23.230  17.910   4.657  0.00  0.00     0.166 HD
ENDBRANCH  25  27
ENDBRANCH  24  25
ENDBRANCH  16  24
BRANCH  17  34
HETATM   34  O   UNK N   1      24.757  13.430   1.537  0.00  0.00    -0.385 OA
HETATM   35  C   UNK N   1      23.856  13.905   0.567  0.00  0.00     0.202 C 
ENDBRANCH  17  34
ENDBRANCH  13  14
ENDBRANCH   4  13
BRANCH   7  36
HETATM   36  O   UNK N   1      30.972  17.514   9.508  0.00  0.00    -0.357 OA
HETATM   37  H   UNK N   1      30.973  16.751  10.052  0.00  0.00     0.217 HD
ENDBRANCH   7  36
BRANCH   6  38
HETATM   38  N   UNK N   1      33.889  17.625   9.093  0.00  0.00    -0.316 N 
HETATM   39  C   UNK N   1      34.715  16.799   9.771  0.00  0.00     0.256 C 
HETATM   40  O   UNK N   1      35.571  17.338  10.458  0.00  0.00    -0.267 OA
HETATM   41  H   UNK N   1      34.029  18.533   9.445  0.00  0.00     0.169 HD
BRANCH  39  42
HETATM   42  C   UNK N   1      34.649  15.319   9.826  0.00  0.00     0.033 A 
HETATM   43  C   UNK N   1      34.760  14.536  10.980  0.00  0.00     0.020 A 
HETATM   44  C   UNK N   1      34.733  13.134  10.882  0.00  0.00     0.038 A 
HETATM   45  C   UNK N   1      34.640  12.513   9.625  0.00  0.00     0.072 A 
HETATM   46  C   UNK N   1      34.571  13.301   8.467  0.00  0.00    -0.021 A 
HETATM   47  C   UNK N   1      34.564  14.677   8.593  0.00  0.00     0.027 A 
BRANCH  45  48
HETATM   48  O   UNK N   1      34.630  11.172   9.539  0.00  0.00    -0.360 OA
HETATM   49  H   UNK N   1      34.718  10.636  10.302  0.00  0.00     0.217 HD
ENDBRANCH  45  48
BRANCH  46  50
HETATM   50  C   UNK N   1      34.520  12.711   7.089  0.00  0.00     0.068 C 
BRANCH  50  51
HETATM   51  C   UNK N   1      33.128  12.787   6.503  0.00  0.00    -0.020 C 
HETATM   52  C   UNK N   1      32.763  13.544   5.451  0.00  0.00    -0.091 C 
HETATM   53  C   UNK N   1      33.717  14.444   4.733  0.00  0.00     0.042 C 
HETATM   54  C   UNK N   1      31.348  13.502   4.988  0.00  0.00     0.042 C 
ENDBRANCH  50  51
ENDBRANCH  46  50
ENDBRANCH  39  42
ENDBRANCH   6  38
TORSDOF 13
ENDMDL
MODEL 7
REMARK VINA RESULT:      -8.7      4.707      8.544
REMARK  13 active torsions:
REMARK  status: ('A' for Active; 'I' for Inactive)
REMARK    1  A    between atoms: C_9  and  C_7 
REMARK    2  A    between atoms: C_18  and  C_9 
REMARK    3  A    between atoms: C_31  and  C_19 
REMARK    4  A    between atoms: C_32  and  C_21 
REMARK    5  A    between atoms: O_39  and  C_22 
REMARK    6  A    between atoms: O_46  and  C_23 
REMARK    7  A    between atoms: N_38  and  C_25 
REMARK    8  A    between atoms: O_40  and  C_26 
REMARK    9  A    between atoms: C_27  and  O_41 
REMARK   10  A    between atoms: C_29  and  O_48 
REMARK   11  A    between atoms: C_30  and  O_45 
REMARK       I    between atoms: N_38  and  C_31 
REMARK   12  A    between atoms: O_48  and  C_32 
REMARK   13  A    between atoms: C_34  and  O_46 
ROOT
HETATM    1  C   UNK N   1      36.735  14.760  11.609  0.00  0.00     0.020 A 
HETATM    2  C   UNK N   1      36.444  14.868  10.250  0.00  0.00     0.040 A 
HETATM    3  C   UNK N   1      36.081  13.796  12.383  0.00  0.00     0.035 A 
HETATM    4  C   UNK N   1      35.514  14.010   9.646  0.00  0.00     0.096 A 
HETATM    5  C   UNK N   1      34.916  12.983  10.404  0.00  0.00     0.102 A 
HETATM    6  C   UNK N   1      35.387  12.871  14.511  0.00  0.00     0.146 A 
HETATM    7  C   UNK N   1      36.172  13.797  13.785  0.00  0.00     0.111 A 
HETATM    8  C   UNK N   1      35.203  12.883  11.762  0.00  0.00     0.117 A 
HETATM    9  C   UNK N   1      34.602  11.957  13.794  0.00  0.00     0.318 A 
HETATM   10 Cl   UNK N   1      33.657  11.923   9.763  0.00  0.00    -0.078 Cl
HETATM   11  O   UNK N   1      33.904  11.156  14.392  0.00  0.00    -0.257 OA
HETATM   12  O   UNK N   1      34.544  11.992  12.481  0.00  0.00    -0.271 OA
ENDROOT
BRANCH   4  13
HETATM   13  O   UNK N   1      35.143  14.268   8.376  0.00  0.00    -0.316 OA
BRANCH  13  14
HETATM   14  C   UNK N   1      33.928  14.769   7.977  0.00  0.00     0.298 C 
HETATM   15  C   UNK N   1      34.015  16.313   7.950  0.00  0.00     0.206 C 
HETATM   16  C   UNK N   1      33.003  16.811   6.920  0.00  0.00     0.197 C 
HETATM   17  C   UNK N   1      33.538  16.336   5.549  0.00  0.00     0.186 C 
HETATM   18  C   UNK N   1      34.009  14.831   5.595  0.00  0.00     0.085 C 
HETATM   19  C   UNK N   1      33.506  14.052   4.391  0.00  0.00     0.048 C 
HETATM   20  C   UNK N   1      35.534  14.721   5.531  0.00  0.00     0.048 C 
HETATM   21  O   UNK N   1      33.531  14.161   6.747  0.00  0.00    -0.345 OA
BRANCH  15  22
HETATM   22  O   UNK N   1      33.771  16.836   9.225  0.00  0.00    -0.388 OA
HETATM   23  H   UNK N   1      34.467  16.991   9.884  0.00  0.00     0.210 HD
ENDBRANCH  15  22
BRANCH  16  24
HETATM   24  O   UNK N   1      31.751  16.255   7.172  0.00  0.00    -0.305 OA
BRANCH  24  25
HETATM   25  C   UNK N   1      30.723  16.891   7.799  0.00  0.00     0.310 C 
HETATM   26  O   UNK N   1      30.638  16.815   9.015  0.00  0.00    -0.258 OA
BRANCH  25  27
HETATM   27  C   UNK N   1      29.689  17.644   7.057  0.00  0.00     0.108 A 
HETATM   28  C   UNK N   1      29.276  17.395   5.761  0.00  0.00     0.038 A 
HETATM   29  C   UNK N   1      28.277  18.310   5.491  0.00  0.00     0.027 A 
HETATM   30  C   UNK N   1      28.136  19.062   6.639  0.00  0.00     0.005 A 
HETATM   31  C   UNK N   1      27.177  20.183   6.810  0.00  0.00     0.068 C 
HETATM   32  N   UNK N   1      28.986  18.655   7.596  0.00  0.00    -0.355 N 
HETATM   33  H   UNK N   1      29.075  19.022   8.505  0.00  0.00     0.166 HD
ENDBRANCH  25  27
ENDBRANCH  24  25
ENDBRANCH  16  24
BRANCH  17  34
HETATM   34  O   UNK N   1      32.545  16.581   4.571  0.00  0.00    -0.385 OA
HETATM   35  C   UNK N   1      32.614  17.933   4.191  0.00  0.00     0.202 C 
ENDBRANCH  17  34
ENDBRANCH  13  14
ENDBRANCH   4  13
BRANCH   7  36
HETATM   36  O   UNK N   1      36.897  14.745  14.400  0.00  0.00    -0.357 OA
HETATM   37  H   UNK N   1      37.307  15.473  13.976  0.00  0.00     0.217 HD
ENDBRANCH   7  36
BRANCH   6  38
HETATM   38  N   UNK N   1      35.155  12.906  15.909  0.00  0.00    -0.316 N 
HETATM   39  C   UNK N   1      35.311  12.248  17.078  0.00  0.00     0.256 C 
HETATM   40  O   UNK N   1      35.083  12.891  18.093  0.00  0.00    -0.267 OA
HETATM   41  H   UNK N   1      34.692  13.751  16.108  0.00  0.00     0.169 HD
BRANCH  39  42
HETATM   42  C   UNK N   1      35.659  10.818  17.257  0.00  0.00     0.033 A 
HETATM   43  C   UNK N   1      36.685  10.136  16.594  0.00  0.00     0.020 A 
HETATM   44  C   UNK N   1      36.873   8.761  16.819  0.00  0.00     0.038 A 
HETATM   45  C   UNK N   1      36.006   8.058  17.673  0.00  0.00     0.072 A 
HETATM   46  C   UNK N   1      34.953   8.737  18.303  0.00  0.00    -0.021 A 
HETATM   47  C   UNK N   1      34.812  10.095  18.093  0.00  0.00     0.027 A 
BRANCH  45  48
HETATM   48  O   UNK N   1      36.184   6.740  17.871  0.00  0.00    -0.360 OA
HETATM   49  H   UNK N   1      36.109   6.129  17.166  0.00  0.00     0.217 HD
ENDBRANCH  45  48
BRANCH  46  50
HETATM   50  C   UNK N   1      33.959   8.045  19.187  0.00  0.00     0.068 C 
BRANCH  50  51
HETATM   51  C   UNK N   1      33.662   8.855  20.430  0.00  0.00    -0.020 C 
HETATM   52  C   UNK N   1      32.437   9.081  20.941  0.00  0.00    -0.091 C 
HETATM   53  C   UNK N   1      31.187   8.561  20.306  0.00  0.00     0.042 C 
HETATM   54  C   UNK N   1      32.312   9.897  22.181  0.00  0.00     0.042 C 
ENDBRANCH  50  51
ENDBRANCH  46  50
ENDBRANCH  39  42
ENDBRANCH   6  38
TORSDOF 13
ENDMDL
MODEL 8
REMARK VINA RESULT:      -8.6      1.611      2.079
REMARK  13 active torsions:
REMARK  status: ('A' for Active; 'I' for Inactive)
REMARK    1  A    between atoms: C_9  and  C_7 
REMARK    2  A    between atoms: C_18  and  C_9 
REMARK    3  A    between atoms: C_31  and  C_19 
REMARK    4  A    between atoms: C_32  and  C_21 
REMARK    5  A    between atoms: O_39  and  C_22 
REMARK    6  A    between atoms: O_46  and  C_23 
REMARK    7  A    between atoms: N_38  and  C_25 
REMARK    8  A    between atoms: O_40  and  C_26 
REMARK    9  A    between atoms: C_27  and  O_41 
REMARK   10  A    between atoms: C_29  and  O_48 
REMARK   11  A    between atoms: C_30  and  O_45 
REMARK       I    between atoms: N_38  and  C_31 
REMARK   12  A    between atoms: O_48  and  C_32 
REMARK   13  A    between atoms: C_34  and  O_46 
ROOT
HETATM    1  C   UNK N   1      29.291  17.139   7.332  0.00  0.00     0.020 A 
HETATM    2  C   UNK N   1      28.529  16.675   6.260  0.00  0.00     0.040 A 
HETATM    3  C   UNK N   1      30.661  17.360   7.164  0.00  0.00     0.035 A 
HETATM    4  C   UNK N   1      29.120  16.444   5.010  0.00  0.00     0.096 A 
HETATM    5  C   UNK N   1      30.482  16.747   4.813  0.00  0.00     0.102 A 
HETATM    6  C   UNK N   1      32.897  17.702   8.031  0.00  0.00     0.146 A 
HETATM    7  C   UNK N   1      31.504  17.608   8.260  0.00  0.00     0.111 A 
HETATM    8  C   UNK N   1      31.240  17.202   5.887  0.00  0.00     0.117 A 
HETATM    9  C   UNK N   1      33.363  17.601   6.713  0.00  0.00     0.318 A 
HETATM   10 Cl   UNK N   1      31.338  16.392   3.310  0.00  0.00    -0.078 Cl
HETATM   11  O   UNK N   1      34.559  17.664   6.486  0.00  0.00    -0.257 OA
HETATM   12  O   UNK N   1      32.539  17.367   5.715  0.00  0.00    -0.271 OA
ENDROOT
BRANCH   4  13
HETATM   13  O   UNK N   1      28.379  15.835   4.062  0.00  0.00    -0.316 OA
BRANCH  13  14
HETATM   14  C   UNK N   1      27.034  15.567   4.138  0.00  0.00     0.298 C 
HETATM   15  C   UNK N   1      26.295  16.444   3.099  0.00  0.00     0.206 C 
HETATM   16  C   UNK N   1      25.014  15.711   2.709  0.00  0.00     0.197 C 
HETATM   17  C   UNK N   1      25.475  14.448   1.943  0.00  0.00     0.186 C 
HETATM   18  C   UNK N   1      26.662  13.717   2.682  0.00  0.00     0.085 C 
HETATM   19  C   UNK N   1      26.443  12.214   2.740  0.00  0.00     0.048 C 
HETATM   20  C   UNK N   1      27.983  13.898   1.931  0.00  0.00     0.048 C 
HETATM   21  O   UNK N   1      26.809  14.162   4.018  0.00  0.00    -0.345 OA
BRANCH  15  22
HETATM   22  O   UNK N   1      26.037  17.713   3.629  0.00  0.00    -0.388 OA
HETATM   23  H   UNK N   1      26.643  18.179   4.227  0.00  0.00     0.210 HD
ENDBRANCH  15  22
BRANCH  16  24
HETATM   24  O   UNK N   1      24.301  15.352   3.851  0.00  0.00    -0.305 OA
BRANCH  24  25
HETATM   25  C   UNK N   1      23.268  16.062   4.383  0.00  0.00     0.310 C 
HETATM   26  O   UNK N   1      23.321  16.387   5.559  0.00  0.00    -0.258 OA
BRANCH  25  27
HETATM   27  C   UNK N   1      22.069  16.423   3.596  0.00  0.00     0.108 A 
HETATM   28  C   UNK N   1      21.393  15.595   2.719  0.00  0.00     0.038 A 
HETATM   29  C   UNK N   1      20.326  16.329   2.240  0.00  0.00     0.027 A 
HETATM   30  C   UNK N   1      20.410  17.561   2.855  0.00  0.00     0.005 A 
HETATM   31  C   UNK N   1      19.470  18.689   2.634  0.00  0.00     0.068 C 
HETATM   32  N   UNK N   1      21.463  17.619   3.686  0.00  0.00    -0.355 N 
HETATM   33  H   UNK N   1      21.735  18.382   4.247  0.00  0.00     0.166 HD
ENDBRANCH  25  27
ENDBRANCH  24  25
ENDBRANCH  16  24
BRANCH  17  34
HETATM   34  O   UNK N   1      24.350  13.615   1.734  0.00  0.00    -0.385 OA
HETATM   35  C   UNK N   1      23.853  13.850   0.440  0.00  0.00     0.202 C 
ENDBRANCH  17  34
ENDBRANCH  13  14
ENDBRANCH   4  13
BRANCH   7  36
HETATM   36  O   UNK N   1      30.987  17.629   9.499  0.00  0.00    -0.357 OA
HETATM   37  H   UNK N   1      31.295  17.119  10.223  0.00  0.00     0.217 HD
ENDBRANCH   7  36
BRANCH   6  38
HETATM   38  N   UNK N   1      33.899  17.682   9.034  0.00  0.00    -0.316 N 
HETATM   39  C   UNK N   1      34.804  16.920   9.685  0.00  0.00     0.256 C 
HETATM   40  O   UNK N   1      35.615  17.520  10.377  0.00  0.00    -0.267 OA
HETATM   41  H   UNK N   1      33.958  18.591   9.406  0.00  0.00     0.169 HD
BRANCH  39  42
HETATM   42  C   UNK N   1      34.875  15.439   9.704  0.00  0.00     0.033 A 
HETATM   43  C   UNK N   1      33.843  14.566   9.343  0.00  0.00     0.020 A 
HETATM   44  C   UNK N   1      34.027  13.177   9.461  0.00  0.00     0.038 A 
HETATM   45  C   UNK N   1      35.226  12.662   9.982  0.00  0.00     0.072 A 
HETATM   46  C   UNK N   1      36.241  13.543  10.381  0.00  0.00    -0.021 A 
HETATM   47  C   UNK N   1      36.050  14.902  10.223  0.00  0.00     0.027 A 
BRANCH  45  48
HETATM   48  O   UNK N   1      35.388  11.334  10.104  0.00  0.00    -0.360 OA
HETATM   49  H   UNK N   1      34.972  10.856  10.795  0.00  0.00     0.217 HD
ENDBRANCH  45  48
BRANCH  46  50
HETATM   50  C   UNK N   1      37.527  13.071  10.992  0.00  0.00     0.068 C 
BRANCH  50  51
HETATM   51  C   UNK N   1      38.656  13.077   9.985  0.00  0.00    -0.020 C 
HETATM   52  C   UNK N   1      39.181  11.987   9.394  0.00  0.00    -0.091 C 
HETATM   53  C   UNK N   1      38.710  10.599   9.692  0.00  0.00     0.042 C 
HETATM   54  C   UNK N   1      40.288  12.161   8.413  0.00  0.00     0.042 C 
ENDBRANCH  50  51
ENDBRANCH  46  50
ENDBRANCH  39  42
ENDBRANCH   6  38
TORSDOF 13
ENDMDL
MODEL 9
REMARK VINA RESULT:      -8.6      3.448      5.771
REMARK  13 active torsions:
REMARK  status: ('A' for Active; 'I' for Inactive)
REMARK    1  A    between atoms: C_9  and  C_7 
REMARK    2  A    between atoms: C_18  and  C_9 
REMARK    3  A    between atoms: C_31  and  C_19 
REMARK    4  A    between atoms: C_32  and  C_21 
REMARK    5  A    between atoms: O_39  and  C_22 
REMARK    6  A    between atoms: O_46  and  C_23 
REMARK    7  A    between atoms: N_38  and  C_25 
REMARK    8  A    between atoms: O_40  and  C_26 
REMARK    9  A    between atoms: C_27  and  O_41 
REMARK   10  A    between atoms: C_29  and  O_48 
REMARK   11  A    between atoms: C_30  and  O_45 
REMARK       I    between atoms: N_38  and  C_31 
REMARK   12  A    between atoms: O_48  and  C_32 
REMARK   13  A    between atoms: C_34  and  O_46 
ROOT
HETATM    1  C   UNK N   1      27.371  17.437   4.841  0.00  0.00     0.020 A 
HETATM    2  C   UNK N   1      26.129  17.103   5.380  0.00  0.00     0.040 A 
HETATM    3  C   UNK N   1      28.231  16.426   4.402  0.00  0.00     0.035 A 
HETATM    4  C   UNK N   1      25.726  15.763   5.472  0.00  0.00     0.096 A 
HETATM    5  C   UNK N   1      26.554  14.747   4.954  0.00  0.00     0.102 A 
HETATM    6  C   UNK N   1      30.414  15.607   3.747  0.00  0.00     0.146 A 
HETATM    7  C   UNK N   1      29.568  16.695   4.064  0.00  0.00     0.111 A 
HETATM    8  C   UNK N   1      27.796  15.084   4.424  0.00  0.00     0.117 A 
HETATM    9  C   UNK N   1      29.864  14.319   3.728  0.00  0.00     0.318 A 
HETATM   10 Cl   UNK N   1      26.184  13.029   5.119  0.00  0.00    -0.078 Cl
HETATM   11  O   UNK N   1      30.572  13.359   3.472  0.00  0.00    -0.257 OA
HETATM   12  O   UNK N   1      28.606  14.110   4.053  0.00  0.00    -0.271 OA
ENDROOT
BRANCH   4  13
HETATM   13  O   UNK N   1      24.598  15.487   6.156  0.00  0.00    -0.316 OA
BRANCH  13  14
HETATM   14  C   UNK N   1      23.346  15.979   5.878  0.00  0.00     0.298 C 
HETATM   15  C   UNK N   1      22.868  15.383   4.532  0.00  0.00     0.206 C 
HETATM   16  C   UNK N   1      21.342  15.356   4.559  0.00  0.00     0.197 C 
HETATM   17  C   UNK N   1      20.964  14.314   5.638  0.00  0.00     0.186 C 
HETATM   18  C   UNK N   1      21.818  14.497   6.952  0.00  0.00     0.085 C 
HETATM   19  C   UNK N   1      20.950  14.420   8.198  0.00  0.00     0.048 C 
HETATM   20  C   UNK N   1      22.845  13.374   7.112  0.00  0.00     0.048 C 
HETATM   21  O   UNK N   1      22.475  15.751   6.986  0.00  0.00    -0.345 OA
BRANCH  15  22
HETATM   22  O   UNK N   1      23.364  16.138   3.463  0.00  0.00    -0.388 OA
HETATM   23  H   UNK N   1      24.310  16.277   3.297  0.00  0.00     0.210 HD
ENDBRANCH  15  22
BRANCH  16  24
HETATM   24  O   UNK N   1      20.847  16.612   4.903  0.00  0.00    -0.305 OA
BRANCH  24  25
HETATM   25  C   UNK N   1      20.255  17.483   4.040  0.00  0.00     0.310 C 
HETATM   26  O   UNK N   1      19.106  17.269   3.684  0.00  0.00    -0.258 OA
BRANCH  25  27
HETATM   27  C   UNK N   1      20.964  18.660   3.495  0.00  0.00     0.108 A 
HETATM   28  C   UNK N   1      20.383  19.717   2.818  0.00  0.00     0.038 A 
HETATM   29  C   UNK N   1      21.406  20.598   2.527  0.00  0.00     0.027 A 
HETATM   30  C   UNK N   1      22.551  20.030   3.046  0.00  0.00     0.005 A 
HETATM   31  C   UNK N   1      23.910  20.624   2.961  0.00  0.00     0.068 C 
HETATM   32  N   UNK N   1      22.285  18.857   3.642  0.00  0.00    -0.355 N 
HETATM   33  H   UNK N   1      22.927  18.263   4.095  0.00  0.00     0.166 HD
ENDBRANCH  25  27
ENDBRANCH  24  25
ENDBRANCH  16  24
BRANCH  17  34
HETATM   34  O   UNK N   1      19.569  14.388   5.864  0.00  0.00    -0.385 OA
HETATM   35  C   UNK N   1      18.905  13.857   4.745  0.00  0.00     0.202 C 
ENDBRANCH  17  34
ENDBRANCH  13  14
ENDBRANCH   4  13
BRANCH   7  36
HETATM   36  O   UNK N   1      30.036  17.949   4.168  0.00  0.00    -0.357 OA
HETATM   37  H   UNK N   1      30.618  18.362   3.561  0.00  0.00     0.217 HD
ENDBRANCH   7  36
BRANCH   6  38
HETATM   38  N   UNK N   1      31.827  15.666   3.645  0.00  0.00    -0.316 N 
HETATM   39  C   UNK N   1      32.994  15.599   4.323  0.00  0.00     0.256 C 
HETATM   40  O   UNK N   1      34.006  15.505   3.644  0.00  0.00    -0.267 OA
HETATM   41  H   UNK N   1      32.047  15.818   2.698  0.00  0.00     0.169 HD
BRANCH  39  42
HETATM   42  C   UNK N   1      33.180  15.696   5.791  0.00  0.00     0.033 A 
HETATM   43  C   UNK N   1      33.975  14.851   6.573  0.00  0.00     0.020 A 
HETATM   44  C   UNK N   1      34.020  15.024   7.967  0.00  0.00     0.038 A 
HETATM   45  C   UNK N   1      33.235  16.013   8.585  0.00  0.00     0.072 A 
HETATM   46  C   UNK N   1      32.408  16.830   7.801  0.00  0.00    -0.021 A 
HETATM   47  C   UNK N   1      32.409  16.663   6.429  0.00  0.00     0.027 A 
BRANCH  45  48
HETATM   48  O   UNK N   1      33.273  16.161   9.920  0.00  0.00    -0.360 OA
HETATM   49  H   UNK N   1      33.611  15.485  10.474  0.00  0.00     0.217 HD
ENDBRANCH  45  48
BRANCH  46  50
HETATM   50  C   UNK N   1      31.505  17.871   8.393  0.00  0.00     0.068 C 
BRANCH  50  51
HETATM   51  C   UNK N   1      30.190  17.275   8.844  0.00  0.00    -0.020 C 
HETATM   52  C   UNK N   1      28.971  17.773   8.565  0.00  0.00    -0.091 C 
HETATM   53  C   UNK N   1      28.770  19.024   7.772  0.00  0.00     0.042 C 
HETATM   54  C   UNK N   1      27.767  17.062   9.079  0.00  0.00     0.042 C 
ENDBRANCH  50  51
ENDBRANCH  46  50
ENDBRANCH  39  42
ENDBRANCH   6  38
TORSDOF 13
ENDMDL
