MODEL 1
REMARK VINA RESULT:      -4.7      0.000      0.000
REMARK  2 active torsions:
REMARK  status: ('A' for Active; 'I' for Inactive)
REMARK    1  A    between atoms: C_5  and  C_6 
REMARK    2  A    between atoms: O_9  and  C_6 
ROOT
HETATM    1  C   UNK N   1      33.644  15.016   7.893  0.00  0.00     0.017 C 
HETATM    2  C   UNK N   1      35.098  15.078   9.966  0.00  0.00    -0.003 C 
HETATM    3  C   UNK N   1      35.247  16.001  10.902  0.00  0.00     0.080 C 
HETATM    4  C   UNK N   1      34.741  15.730   8.663  0.00  0.00     0.038 C 
HETATM    5  C   UNK N   1      34.325  17.156   9.114  0.00  0.00     0.186 C 
HETATM    6  N   UNK N   1      34.938  17.275  10.407  0.00  0.00    -0.385 N 
HETATM    7  H   UNK N   1      35.115  18.123  10.874  0.00  0.00     0.159 HD
ENDROOT
BRANCH   5   8
HETATM    8  C   UNK N   1      34.701  18.270   8.172  0.00  0.00     0.164 C 
HETATM    9  O   UNK N   1      35.320  19.244   8.570  0.00  0.00    -0.648 OA
BRANCH   8  10
HETATM   10  O   UNK N   1      34.377  18.176   6.869  0.00  0.00    -0.775 OA
HETATM   11  H   UNK N   1      34.849  18.671   6.230  0.00  0.00     0.167 HD
ENDBRANCH   8  10
ENDBRANCH   5   8
TORSDOF 2
ENDMDL
MODEL 2
REMARK VINA RESULT:      -4.5      1.683      2.223
REMARK  2 active torsions:
REMARK  status: ('A' for Active; 'I' for Inactive)
REMARK    1  A    between atoms: C_5  and  C_6 
REMARK    2  A    between atoms: O_9  and  C_6 
ROOT
HETATM    1  C   UNK N   1      31.148  17.953   8.625  0.00  0.00     0.017 C 
HETATM    2  C   UNK N   1      32.109  15.621   8.846  0.00  0.00    -0.003 C 
HETATM    3  C   UNK N   1      33.260  15.192   9.337  0.00  0.00     0.080 C 
HETATM    4  C   UNK N   1      32.280  17.001   8.283  0.00  0.00     0.038 C 
HETATM    5  C   UNK N   1      33.637  17.438   8.898  0.00  0.00     0.186 C 
HETATM    6  N   UNK N   1      34.243  16.189   9.260  0.00  0.00    -0.385 N 
HETATM    7  H   UNK N   1      35.203  16.052   9.428  0.00  0.00     0.159 HD
ENDROOT
BRANCH   5   8
HETATM    8  C   UNK N   1      34.508  18.286   8.008  0.00  0.00     0.164 C 
HETATM    9  O   UNK N   1      35.223  19.157   8.477  0.00  0.00    -0.648 OA
BRANCH   8  10
HETATM   10  O   UNK N   1      34.521  18.060   6.680  0.00  0.00    -0.775 OA
HETATM   11  H   UNK N   1      34.201  17.249   6.339  0.00  0.00     0.167 HD
ENDBRANCH   8  10
ENDBRANCH   5   8
TORSDOF 2
ENDMDL
MODEL 3
REMARK VINA RESULT:      -4.5     12.504     13.409
REMARK  2 active torsions:
REMARK  status: ('A' for Active; 'I' for Inactive)
REMARK    1  A    between atoms: C_5  and  C_6 
REMARK    2  A    between atoms: O_9  and  C_6 
ROOT
HETATM    1  C   UNK N   1      20.373  12.313  11.307  0.00  0.00     0.017 C 
HETATM    2  C   UNK N   1      21.528  12.659   9.081  0.00  0.00    -0.003 C 
HETATM    3  C   UNK N   1      22.596  12.088   8.551  0.00  0.00     0.080 C 
HETATM    4  C   UNK N   1      21.651  12.681  10.575  0.00  0.00     0.038 C 
HETATM    5  C   UNK N   1      22.797  11.664  10.823  0.00  0.00     0.186 C 
HETATM    6  N   UNK N   1      23.456  11.605   9.549  0.00  0.00    -0.385 N 
HETATM    7  H   UNK N   1      24.371  11.277   9.398  0.00  0.00     0.159 HD
ENDROOT
BRANCH   5   8
HETATM    8  C   UNK N   1      23.729  12.001  11.958  0.00  0.00     0.164 C 
HETATM    9  O   UNK N   1      23.351  11.945  13.117  0.00  0.00    -0.648 OA
BRANCH   8  10
HETATM   10  O   UNK N   1      25.005  12.339  11.692  0.00  0.00    -0.775 OA
HETATM   11  H   UNK N   1      25.241  12.649  10.840  0.00  0.00     0.167 HD
ENDBRANCH   8  10
ENDBRANCH   5   8
TORSDOF 2
ENDMDL
MODEL 4
REMARK VINA RESULT:      -4.4      2.370      3.115
REMARK  2 active torsions:
REMARK  status: ('A' for Active; 'I' for Inactive)
REMARK    1  A    between atoms: C_5  and  C_6 
REMARK    2  A    between atoms: O_9  and  C_6 
ROOT
HETATM    1  C   UNK N   1      33.349  17.516   5.366  0.00  0.00     0.017 C 
HETATM    2  C   UNK N   1      31.712  16.482   6.998  0.00  0.00    -0.003 C 
HETATM    3  C   UNK N   1      31.286  16.885   8.183  0.00  0.00     0.080 C 
HETATM    4  C   UNK N   1      33.109  16.977   6.765  0.00  0.00     0.038 C 
HETATM    5  C   UNK N   1      33.255  18.068   7.860  0.00  0.00     0.186 C 
HETATM    6  N   UNK N   1      32.230  17.717   8.802  0.00  0.00    -0.385 N 
HETATM    7  H   UNK N   1      32.195  18.015   9.739  0.00  0.00     0.159 HD
ENDROOT
BRANCH   5   8
HETATM    8  C   UNK N   1      34.622  18.181   8.484  0.00  0.00     0.164 C 
HETATM    9  O   UNK N   1      35.255  19.222   8.422  0.00  0.00    -0.648 OA
BRANCH   8  10
HETATM   10  O   UNK N   1      35.139  17.127   9.145  0.00  0.00    -0.775 OA
HETATM   11  H   UNK N   1      35.300  16.323   8.694  0.00  0.00     0.167 HD
ENDBRANCH   8  10
ENDBRANCH   5   8
TORSDOF 2
ENDMDL
MODEL 5
REMARK VINA RESULT:      -4.3     14.853     15.720
REMARK  2 active torsions:
REMARK  status: ('A' for Active; 'I' for Inactive)
REMARK    1  A    between atoms: C_5  and  C_6 
REMARK    2  A    between atoms: O_9  and  C_6 
ROOT
HETATM    1  C   UNK N   1      22.825  19.173   3.650  0.00  0.00     0.017 C 
HETATM    2  C   UNK N   1      20.531  18.159   3.998  0.00  0.00    -0.003 C 
HETATM    3  C   UNK N   1      19.607  17.768   3.136  0.00  0.00     0.080 C 
HETATM    4  C   UNK N   1      21.330  19.285   3.411  0.00  0.00     0.038 C 
HETATM    5  C   UNK N   1      20.955  19.202   1.907  0.00  0.00     0.186 C 
HETATM    6  N   UNK N   1      19.725  18.461   1.923  0.00  0.00    -0.385 N 
HETATM    7  H   UNK N   1      19.065  18.443   1.193  0.00  0.00     0.159 HD
ENDROOT
BRANCH   5   8
HETATM    8  C   UNK N   1      20.845  20.523   1.192  0.00  0.00     0.164 C 
HETATM    9  O   UNK N   1      20.993  21.575   1.792  0.00  0.00    -0.648 OA
BRANCH   8  10
HETATM   10  O   UNK N   1      20.608  20.543  -0.134  0.00  0.00    -0.775 OA
HETATM   11  H   UNK N   1      21.258  20.233  -0.732  0.00  0.00     0.167 HD
ENDBRANCH   8  10
ENDBRANCH   5   8
TORSDOF 2
ENDMDL
MODEL 6
REMARK VINA RESULT:      -4.3     12.669     13.419
REMARK  2 active torsions:
REMARK  status: ('A' for Active; 'I' for Inactive)
REMARK    1  A    between atoms: C_5  and  C_6 
REMARK    2  A    between atoms: O_9  and  C_6 
ROOT
HETATM    1  C   UNK N   1      23.971  12.045   9.122  0.00  0.00     0.017 C 
HETATM    2  C   UNK N   1      24.049  11.997  11.652  0.00  0.00    -0.003 C 
HETATM    3  C   UNK N   1      23.117  11.731  12.551  0.00  0.00     0.080 C 
HETATM    4  C   UNK N   1      23.420  12.590  10.427  0.00  0.00     0.038 C 
HETATM    5  C   UNK N   1      21.919  12.248  10.633  0.00  0.00     0.186 C 
HETATM    6  N   UNK N   1      21.837  11.999  12.044  0.00  0.00    -0.385 N 
HETATM    7  H   UNK N   1      21.009  12.016  12.576  0.00  0.00     0.159 HD
ENDROOT
BRANCH   5   8
HETATM    8  C   UNK N   1      20.944  13.292  10.156  0.00  0.00     0.164 C 
HETATM    9  O   UNK N   1      19.741  13.130  10.280  0.00  0.00    -0.648 OA
BRANCH   8  10
HETATM   10  O   UNK N   1      21.407  14.433   9.611  0.00  0.00    -0.775 OA
HETATM   11  H   UNK N   1      21.516  15.197  10.141  0.00  0.00     0.167 HD
ENDBRANCH   8  10
ENDBRANCH   5   8
TORSDOF 2
ENDMDL
MODEL 7
REMARK VINA RESULT:      -4.1     17.380     18.756
REMARK  2 active torsions:
REMARK  status: ('A' for Active; 'I' for Inactive)
REMARK    1  A    between atoms: C_5  and  C_6 
REMARK    2  A    between atoms: O_9  and  C_6 
ROOT
HETATM    1  C   UNK N   1      25.699  26.560  -6.868  0.00  0.00     0.017 C 
HETATM    2  C   UNK N   1      25.179  27.891  -4.777  0.00  0.00    -0.003 C 
HETATM    3  C   UNK N   1      25.744  27.897  -3.581  0.00  0.00     0.080 C 
HETATM    4  C   UNK N   1      25.319  26.533  -5.398  0.00  0.00     0.038 C 
HETATM    5  C   UNK N   1      26.411  25.878  -4.510  0.00  0.00     0.186 C 
HETATM    6  N   UNK N   1      26.369  26.671  -3.313  0.00  0.00    -0.385 N 
HETATM    7  H   UNK N   1      26.725  26.395  -2.438  0.00  0.00     0.159 HD
ENDROOT
BRANCH   5   8
HETATM    8  C   UNK N   1      26.241  24.404  -4.252  0.00  0.00     0.164 C 
HETATM    9  O   UNK N   1      25.978  23.635  -5.163  0.00  0.00    -0.648 OA
BRANCH   8  10
HETATM   10  O   UNK N   1      26.409  23.923  -3.006  0.00  0.00    -0.775 OA
HETATM   11  H   UNK N   1      27.270  23.750  -2.681  0.00  0.00     0.167 HD
ENDBRANCH   8  10
ENDBRANCH   5   8
TORSDOF 2
ENDMDL
MODEL 8
REMARK VINA RESULT:      -4.1     10.989     11.767
REMARK  2 active torsions:
REMARK  status: ('A' for Active; 'I' for Inactive)
REMARK    1  A    between atoms: C_5  and  C_6 
REMARK    2  A    between atoms: O_9  and  C_6 
ROOT
HETATM    1  C   UNK N   1      42.688  19.735   2.805  0.00  0.00     0.017 C 
HETATM    2  C   UNK N   1      41.343  21.811   2.264  0.00  0.00    -0.003 C 
HETATM    3  C   UNK N   1      41.718  23.044   1.971  0.00  0.00     0.080 C 
HETATM    4  C   UNK N   1      42.357  21.172   3.166  0.00  0.00     0.038 C 
HETATM    5  C   UNK N   1      43.574  22.124   3.014  0.00  0.00     0.186 C 
HETATM    6  N   UNK N   1      42.978  23.331   2.516  0.00  0.00    -0.385 N 
HETATM    7  H   UNK N   1      43.390  24.223   2.552  0.00  0.00     0.159 HD
ENDROOT
BRANCH   5   8
HETATM    8  C   UNK N   1      44.391  22.336   4.262  0.00  0.00     0.164 C 
HETATM    9  O   UNK N   1      43.856  22.621   5.321  0.00  0.00    -0.648 OA
BRANCH   8  10
HETATM   10  O   UNK N   1      45.728  22.179   4.215  0.00  0.00    -0.775 OA
HETATM   11  H   UNK N   1      46.283  22.712   4.749  0.00  0.00     0.167 HD
ENDBRANCH   8  10
ENDBRANCH   5   8
TORSDOF 2
ENDMDL
MODEL 9
REMARK VINA RESULT:      -3.9      2.615      3.528
REMARK  2 active torsions:
REMARK  status: ('A' for Active; 'I' for Inactive)
REMARK    1  A    between atoms: C_5  and  C_6 
REMARK    2  A    between atoms: O_9  and  C_6 
ROOT
HETATM    1  C   UNK N   1      31.284  16.998   8.221  0.00  0.00     0.017 C 
HETATM    2  C   UNK N   1      32.234  17.225   5.885  0.00  0.00    -0.003 C 
HETATM    3  C   UNK N   1      33.419  16.911   5.388  0.00  0.00     0.080 C 
HETATM    4  C   UNK N   1      32.370  17.582   7.335  0.00  0.00     0.038 C 
HETATM    5  C   UNK N   1      33.781  17.032   7.676  0.00  0.00     0.186 C 
HETATM    6  N   UNK N   1      34.403  16.922   6.387  0.00  0.00    -0.385 N 
HETATM    7  H   UNK N   1      35.372  16.863   6.228  0.00  0.00     0.159 HD
ENDROOT
BRANCH   5   8
HETATM    8  C   UNK N   1      34.580  17.856   8.653  0.00  0.00     0.164 C 
HETATM    9  O   UNK N   1      34.877  17.412   9.750  0.00  0.00    -0.648 OA
BRANCH   8  10
HETATM   10  O   UNK N   1      34.997  19.086   8.299  0.00  0.00    -0.775 OA
HETATM   11  H   UNK N   1      35.875  19.356   8.482  0.00  0.00     0.167 HD
ENDBRANCH   8  10
ENDBRANCH   5   8
TORSDOF 2
ENDMDL
