REMARK  22 active torsions:
REMARK  status: ('A' for Active; 'I' for Inactive)
REMARK    1  A    between atoms: O_1  and  C_2 
REMARK    2  A    between atoms: C_5  and  S_76 
REMARK    3  A    between atoms: C_7  and  N_8 
REMARK    4  A    between atoms: N_10  and  C_12 
REMARK    5  A    between atoms: C_13  and  O_14 
REMARK    6  A    between atoms: C_18  and  N_19 
REMARK       I    between atoms: N_19  and  C_20 
REMARK       I    between atoms: C_23  and  N_24 
REMARK    7  A    between atoms: N_24  and  C_25 
REMARK    8  A    between atoms: C_26  and  S_55 
REMARK    9  A    between atoms: C_31  and  O_32 
REMARK   10  A    between atoms: C_33  and  N_34 
REMARK   11  A    between atoms: N_36  and  C_38 
REMARK   12  A    between atoms: C_40  and  S_45 
REMARK   13  A    between atoms: C_43  and  O_44 
REMARK   14  A    between atoms: S_45  and  O_46 
REMARK   15  A    between atoms: C_49  and  S_51 
REMARK   16  A    between atoms: S_51  and  O_52 
REMARK   17  A    between atoms: S_55  and  O_56 
REMARK   18  A    between atoms: C_64  and  S_72 
REMARK   19  A    between atoms: C_67  and  S_68 
REMARK   20  A    between atoms: S_68  and  O_69 
REMARK   21  A    between atoms: S_72  and  O_73 
REMARK   22  A    between atoms: S_76  and  O_77 
ROOT
HETATM    1  N   UNK N   1       8.879  -4.445   1.124  0.00  0.00    -0.190 N 
HETATM    2  C   UNK N   1       9.429  -5.308   0.138  0.00  0.00     0.698 A 
HETATM    3  N   UNK N   1       9.907  -6.530   0.490  0.00  0.00    -0.022 N 
ATOM      4  HN  UNK N   1      10.028  -6.765   1.476  1.00  0.00     0.203 HD
HETATM    5  C   UNK N   1      10.224  -7.441  -0.470  0.00  0.00     0.698 A 
HETATM    6  N   UNK N   1      10.768  -8.685  -0.103  0.00  0.00    -0.190 N 
HETATM    7  N   UNK N   1      10.143  -7.100  -1.781  0.00  0.00    -0.187 N 
ATOM      8  HN  UNK N   1      10.443  -7.760  -2.499  1.00  0.00     0.185 HD
HETATM    9  C   UNK N   1       9.663  -5.883  -2.136  0.00  0.00     0.215 A 
HETATM   10  N   UNK N   1       9.275  -5.004  -1.179  0.00  0.00    -0.187 N 
ATOM     11  HN  UNK N   1       8.864  -4.110  -1.448  1.00  0.00     0.185 HD
HETATM   12  H   UNK N   1       9.420  -4.069   1.857  0.00  0.00     0.184 HD
HETATM   13  H   UNK N   1      11.714  -8.651   0.168  0.00  0.00     0.184 HD
ENDROOT
BRANCH   1  14
HETATM   14  C   UNK N   1       7.503  -4.164   0.981  0.00  0.00     0.073 A 
HETATM   15  C   UNK N   1       7.106  -2.980   0.360  0.00  0.00     0.032 A 
HETATM   16  C   UNK N   1       5.784  -2.806  -0.030  0.00  0.00     0.017 A 
HETATM   17  C   UNK N   1       4.864  -3.849   0.107  0.00  0.00     0.011 A 
HETATM   18  C   UNK N   1       3.564  -3.700  -0.370  0.00  0.00     0.106 A 
HETATM   19  C   UNK N   1       5.244  -5.052   0.730  0.00  0.00     0.004 A 
HETATM   20  C   UNK N   1       2.641  -4.754  -0.292  0.00  0.00     0.105 A 
HETATM   21  C   UNK N   1       3.037  -6.000   0.252  0.00  0.00     0.104 A 
HETATM   22  C   UNK N   1       4.321  -6.111   0.779  0.00  0.00     0.041 A 
HETATM   23  C   UNK N   1       6.579  -5.198   1.242  0.00  0.00     0.110 A 
BRANCH  18  24
HETATM   24  O   UNK N   1       3.183  -2.526  -0.913  0.00  0.00    -0.357 OA
HETATM   25  H   UNK N   1       3.757  -1.888  -1.290  0.00  0.00     0.217 HD
ENDBRANCH  18  24
BRANCH  20  26
HETATM   26  N   UNK N   1       1.340  -4.436  -0.719  0.00  0.00    -0.296 N 
HETATM   27  N   UNK N   1       0.300  -5.022  -0.381  0.00  0.00    -0.297 N 
ATOM     28  HN  UNK N   1       0.302  -6.002  -0.098  1.00  0.00     0.187 HD
ATOM     29  HN  UNK N   1       1.243  -3.653  -1.365  1.00  0.00     0.187 HD
BRANCH  27  30
HETATM   30  C   UNK N   1      -0.889  -4.256  -0.408  0.00  0.00     0.082 A 
HETATM   31  C   UNK N   1      -0.757  -2.870  -0.326  0.00  0.00     0.059 A 
HETATM   32  C   UNK N   1      -1.860  -2.008  -0.306  0.00  0.00     0.074 A 
HETATM   33  C   UNK N   1      -3.137  -2.580  -0.390  0.00  0.00     0.028 A 
HETATM   34  C   UNK N   1      -3.289  -3.977  -0.472  0.00  0.00     0.040 A 
HETATM   35  C   UNK N   1      -2.166  -4.821  -0.471  0.00  0.00     0.093 A 
BRANCH  32  36
HETATM   36  S   UNK N   1      -1.679  -0.174  -0.195  0.00  0.00     0.129 S 
HETATM   37  O   UNK N   1      -0.386  -0.431  -0.989  0.00  0.00    -0.598 OA
HETATM   38  O   UNK N   1      -1.262  -0.760   1.167  0.00  0.00    -0.598 OA
BRANCH  36  39
HETATM   39  O   UNK N   1      -0.650   0.980   0.554  0.00  0.00    -0.292 OA
HETATM   40  H   UNK N   1       0.205   0.802   0.976  0.00  0.00     0.232 HD
ENDBRANCH  36  39
ENDBRANCH  32  36
BRANCH  35  41
HETATM   41  O   UNK N   1      -2.324  -6.154  -0.542  0.00  0.00    -0.358 OA
HETATM   42  H   UNK N   1      -3.184  -6.523  -0.591  0.00  0.00     0.217 HD
ENDBRANCH  35  41
ENDBRANCH  27  30
ENDBRANCH  20  26
BRANCH  21  43
HETATM   43  S   UNK N   1       2.049  -7.513   0.217  0.00  0.00     0.132 S 
HETATM   44  O   UNK N   1       2.007  -8.221   1.579  0.00  0.00    -0.597 OA
HETATM   45  O   UNK N   1       2.843  -8.555  -0.589  0.00  0.00    -0.597 OA
BRANCH  43  46
HETATM   46  O   UNK N   1       0.473  -7.658  -0.446  0.00  0.00    -0.292 OA
HETATM   47  H   UNK N   1      -0.044  -6.928  -0.821  0.00  0.00     0.232 HD
ENDBRANCH  43  46
ENDBRANCH  21  43
BRANCH  23  48
HETATM   48  S   UNK N   1       7.239  -6.656   2.202  0.00  0.00     0.133 S 
HETATM   49  O   UNK N   1       5.945  -6.302   2.949  0.00  0.00    -0.597 OA
HETATM   50  O   UNK N   1       6.776  -7.153   0.844  0.00  0.00    -0.597 OA
BRANCH  48  51
HETATM   51  O   UNK N   1       6.531  -8.191   2.491  0.00  0.00    -0.292 OA
HETATM   52  H   UNK N   1       5.578  -8.278   2.655  0.00  0.00     0.232 HD
ENDBRANCH  48  51
ENDBRANCH  23  48
ENDBRANCH   1  14
BRANCH   6  53
HETATM   53  C   UNK N   1      10.186  -9.989  -0.055  0.00  0.00     0.073 A 
HETATM   54  C   UNK N   1       8.809 -10.357  -0.319  0.00  0.00     0.110 A 
HETATM   55  C   UNK N   1       8.414 -11.699  -0.071  0.00  0.00     0.004 A 
HETATM   56  C   UNK N   1       9.349 -12.669   0.324  0.00  0.00     0.011 A 
HETATM   57  C   UNK N   1       7.068 -12.078  -0.201  0.00  0.00     0.041 A 
HETATM   58  C   UNK N   1      10.680 -12.311   0.503  0.00  0.00     0.017 A 
HETATM   59  C   UNK N   1       8.943 -13.995   0.525  0.00  0.00     0.106 A 
HETATM   60  C   UNK N   1      11.075 -10.993   0.344  0.00  0.00     0.032 A 
HETATM   61  C   UNK N   1       7.572 -14.357   0.383  0.00  0.00     0.105 A 
HETATM   62  C   UNK N   1       6.640 -13.377   0.037  0.00  0.00     0.104 A 
BRANCH  54  63
HETATM   63  S   UNK N   1       7.472  -9.304  -0.977  0.00  0.00     0.133 S 
HETATM   64  O   UNK N   1       7.675  -7.889  -1.515  0.00  0.00    -0.597 OA
HETATM   65  O   UNK N   1       7.098  -9.987  -2.301  0.00  0.00    -0.597 OA
BRANCH  63  66
HETATM   66  O   UNK N   1       5.940  -9.357  -0.199  0.00  0.00    -0.292 OA
HETATM   67  H   UNK N   1       5.482  -8.624   0.240  0.00  0.00     0.232 HD
ENDBRANCH  63  66
ENDBRANCH  54  63
BRANCH  59  68
HETATM   68  O   UNK N   1       9.872 -14.919   0.840  0.00  0.00    -0.357 OA
HETATM   69  H   UNK N   1       9.639 -15.799   1.059  0.00  0.00     0.217 HD
ENDBRANCH  59  68
BRANCH  61  70
HETATM   70  N   UNK N   1       7.158 -15.708   0.522  0.00  0.00    -0.296 N 
HETATM   71  N   UNK N   1       7.845 -16.486   1.200  0.00  0.00    -0.297 N 
ATOM     72  HN  UNK N   1       8.133 -16.220   2.142  1.00  0.00     0.187 HD
ATOM     73  HN  UNK N   1       6.305 -16.035   0.068  1.00  0.00     0.187 HD
BRANCH  71  74
HETATM   74  C   UNK N   1       8.225 -17.726   0.677  0.00  0.00     0.082 A 
HETATM   75  C   UNK N   1       9.581 -17.892   0.505  0.00  0.00     0.059 A 
HETATM   76  C   UNK N   1      10.102 -18.992  -0.129  0.00  0.00     0.074 A 
HETATM   77  C   UNK N   1       9.243 -19.993  -0.602  0.00  0.00     0.028 A 
HETATM   78  C   UNK N   1       7.851 -19.852  -0.422  0.00  0.00     0.040 A 
HETATM   79  C   UNK N   1       7.333 -18.704   0.206  0.00  0.00     0.093 A 
BRANCH  76  80
HETATM   80  S   UNK N   1      11.872 -19.014  -0.331  0.00  0.00     0.129 S 
HETATM   81  O   UNK N   1      12.366 -17.597  -0.672  0.00  0.00    -0.598 OA
HETATM   82  O   UNK N   1      12.568 -19.234   1.020  0.00  0.00    -0.598 OA
BRANCH  80  83
HETATM   83  O   UNK N   1      12.667 -20.035  -1.454  0.00  0.00    -0.292 OA
HETATM   84  H   UNK N   1      12.392 -20.713  -2.090  0.00  0.00     0.232 HD
ENDBRANCH  80  83
ENDBRANCH  76  80
BRANCH  79  85
HETATM   85  O   UNK N   1       6.004 -18.551   0.345  0.00  0.00    -0.358 OA
HETATM   86  H   UNK N   1       5.633 -17.696   0.442  0.00  0.00     0.217 HD
ENDBRANCH  79  85
ENDBRANCH  71  74
ENDBRANCH  61  70
BRANCH  62  87
HETATM   87  S   UNK N   1       4.883 -13.729  -0.055  0.00  0.00     0.132 S 
HETATM   88  O   UNK N   1       4.090 -12.627   0.664  0.00  0.00    -0.597 OA
HETATM   89  O   UNK N   1       4.480 -14.953   0.782  0.00  0.00    -0.597 OA
BRANCH  87  90
HETATM   90  O   UNK N   1       4.108 -13.917  -1.573  0.00  0.00    -0.292 OA
HETATM   91  H   UNK N   1       3.797 -13.590  -2.431  0.00  0.00     0.232 HD
ENDBRANCH  87  90
ENDBRANCH  62  87
ENDBRANCH   6  53
TORSDOF 22
