REMARK  0 active torsions:
REMARK  status: ('A' for Active; 'I' for Inactive)
ROOT
HETATM    1  C   UNK N   1       2.742   0.841   0.564  0.00  0.00     0.153 C 
HETATM    2  N   UNK N   1       1.389   0.530   0.162  0.00  0.00    -0.348 N 
HETATM    3  C   UNK N   1       0.946  -0.714  -0.034  0.00  0.00     0.220 A 
HETATM    4  O   UNK N   1       1.651  -1.700   0.113  0.00  0.00    -0.273 OA
HETATM    5  C   UNK N   1      -0.477  -0.784  -0.422  0.00  0.00     0.105 A 
HETATM    6  C   UNK N   1      -0.860   0.707  -0.499  0.00  0.00     0.040 A 
HETATM    7  C   UNK N   1       0.367   1.519  -0.038  0.00  0.00     0.028 A 
HETATM    8  C   UNK N   1       0.056   2.236   1.263  0.00  0.00     0.038 C 
HETATM    9  C   UNK N   1       0.766   2.520  -1.109  0.00  0.00     0.038 C 
ENDROOT
TORSDOF 0
