MODEL 1
REMARK VINA RESULT:      -6.3      0.000      0.000
REMARK  5 active torsions:
REMARK  status: ('A' for Active; 'I' for Inactive)
REMARK    1  A    between atoms: C_6  and  C_3 
REMARK    2  A    between atoms: C_3  and  O_17 
REMARK    3  A    between atoms: C_4  and  C_6 
REMARK    4  A    between atoms: C_6  and  O_18 
REMARK    5  A    between atoms: O_19  and  C_8 
REMARK       I    between atoms: N_10  and  C_9 
ROOT
HETATM    1  C   UNK N   1      34.108  14.649  10.752  0.00  0.00     0.149 C 
HETATM    2  C   UNK N   1      34.827  15.917  11.258  0.00  0.00     0.131 C 
HETATM    3  C   UNK N   1      33.966  16.993   9.158  0.00  0.00     0.125 A 
HETATM    4  C   UNK N   1      32.947  16.049   9.069  0.00  0.00     0.148 A 
HETATM    5  C   UNK N   1      34.012  18.024   8.222  0.00  0.00     0.185 A 
HETATM    6  C   UNK N   1      32.066  17.168   7.184  0.00  0.00     0.679 A 
HETATM    7  N   UNK N   1      31.185  17.249   6.260  0.00  0.00    -0.234 N 
ATOM      8  HN  UNK N   1      31.243  17.994   5.566  1.00  0.00     0.174 HD
HETATM    9  N   UNK N   1      32.920  14.973   9.987  0.00  0.00    -0.372 N 
HETATM   10  N   UNK N   1      34.929  16.898  10.191  0.00  0.00    -0.375 N 
HETATM   11  N   UNK N   1      32.009  16.154   8.091  0.00  0.00    -0.175 N 
HETATM   12  N   UNK N   1      33.064  18.091   7.251  0.00  0.00    -0.168 N 
ATOM     13  HN  UNK N   1      33.100  18.844   6.563  1.00  0.00     0.186 HD
HETATM   14  H   UNK N   1      30.453  16.592   6.220  0.00  0.00     0.174 HD
HETATM   15  H   UNK N   1      32.097  14.446  10.105  0.00  0.00     0.161 HD
HETATM   16  H   UNK N   1      35.693  17.518  10.186  0.00  0.00     0.160 HD
HETATM   17  H   UNK N   1      31.282  15.491   8.037  0.00  0.00     0.186 HD
ENDROOT
BRANCH   2  18
HETATM   18  C   UNK N   1      36.243  15.559  11.759  0.00  0.00     0.170 C 
BRANCH  18  19
HETATM   19  C   UNK N   1      36.427  14.053  12.054  0.00  0.00     0.145 C 
HETATM   20  C   UNK N   1      37.370  13.428  11.039  0.00  0.00     0.042 C 
BRANCH  19  21
HETATM   21  O   UNK N   1      36.965  13.847  13.326  0.00  0.00    -0.393 OA
HETATM   22  H   UNK N   1      36.651  14.374  14.077  0.00  0.00     0.210 HD
ENDBRANCH  19  21
ENDBRANCH  18  19
BRANCH  18  23
HETATM   23  O   UNK N   1      37.187  15.950  10.801  0.00  0.00    -0.391 OA
HETATM   24  H   UNK N   1      37.278  16.885  10.562  0.00  0.00     0.210 HD
ENDBRANCH  18  23
ENDBRANCH   2  18
BRANCH   5  25
HETATM   25  O   UNK N   1      34.985  18.950   8.275  0.00  0.00    -0.344 OA
HETATM   26  H   UNK N   1      35.875  18.706   8.113  0.00  0.00     0.219 HD
ENDBRANCH   5  25
TORSDOF 5
ENDMDL
MODEL 2
REMARK VINA RESULT:      -6.2      2.914      4.122
REMARK  5 active torsions:
REMARK  status: ('A' for Active; 'I' for Inactive)
REMARK    1  A    between atoms: C_6  and  C_3 
REMARK    2  A    between atoms: C_3  and  O_17 
REMARK    3  A    between atoms: C_4  and  C_6 
REMARK    4  A    between atoms: C_6  and  O_18 
REMARK    5  A    between atoms: O_19  and  C_8 
REMARK       I    between atoms: N_10  and  C_9 
ROOT
HETATM    1  C   UNK N   1      32.446  16.408   7.012  0.00  0.00     0.149 C 
HETATM    2  C   UNK N   1      32.454  16.152   8.534  0.00  0.00     0.131 C 
HETATM    3  C   UNK N   1      30.412  17.613   8.581  0.00  0.00     0.125 A 
HETATM    4  C   UNK N   1      30.162  17.341   7.240  0.00  0.00     0.148 A 
HETATM    5  C   UNK N   1      29.506  18.402   9.289  0.00  0.00     0.185 A 
HETATM    6  C   UNK N   1      28.164  18.596   7.351  0.00  0.00     0.679 A 
HETATM    7  N   UNK N   1      27.118  19.060   6.778  0.00  0.00    -0.234 N 
ATOM      8  HN  UNK N   1      26.474  19.655   7.299  1.00  0.00     0.174 HD
HETATM    9  N   UNK N   1      31.100  16.581   6.502  0.00  0.00    -0.372 N 
HETATM   10  N   UNK N   1      31.568  17.086   9.206  0.00  0.00    -0.375 N 
HETATM   11  N   UNK N   1      29.040  17.828   6.647  0.00  0.00    -0.175 N 
HETATM   12  N   UNK N   1      28.401  18.881   8.660  0.00  0.00    -0.168 N 
ATOM     13  HN  UNK N   1      27.740  19.461   9.177  1.00  0.00     0.186 HD
HETATM   14  H   UNK N   1      26.935  18.842   5.836  0.00  0.00     0.174 HD
HETATM   15  H   UNK N   1      30.839  16.171   5.646  0.00  0.00     0.161 HD
HETATM   16  H   UNK N   1      31.777  17.362  10.127  0.00  0.00     0.160 HD
HETATM   17  H   UNK N   1      28.860  17.625   5.700  0.00  0.00     0.186 HD
ENDROOT
BRANCH   2  18
HETATM   18  C   UNK N   1      33.885  16.316   9.091  0.00  0.00     0.170 C 
BRANCH  18  19
HETATM   19  C   UNK N   1      34.206  15.348  10.253  0.00  0.00     0.145 C 
HETATM   20  C   UNK N   1      35.242  15.961  11.180  0.00  0.00     0.042 C 
BRANCH  19  21
HETATM   21  O   UNK N   1      33.066  15.066  11.008  0.00  0.00    -0.393 OA
HETATM   22  H   UNK N   1      32.194  15.354  10.696  0.00  0.00     0.210 HD
ENDBRANCH  19  21
ENDBRANCH  18  19
BRANCH  18  23
HETATM   23  O   UNK N   1      34.811  16.107   8.061  0.00  0.00    -0.391 OA
HETATM   24  H   UNK N   1      34.763  15.301   7.522  0.00  0.00     0.210 HD
ENDBRANCH  18  23
ENDBRANCH   2  18
BRANCH   5  25
HETATM   25  O   UNK N   1      29.719  18.688  10.584  0.00  0.00    -0.344 OA
HETATM   26  H   UNK N   1      29.410  18.108  11.251  0.00  0.00     0.219 HD
ENDBRANCH   5  25
TORSDOF 5
ENDMDL
MODEL 3
REMARK VINA RESULT:      -6.0      2.316      3.446
REMARK  5 active torsions:
REMARK  status: ('A' for Active; 'I' for Inactive)
REMARK    1  A    between atoms: C_6  and  C_3 
REMARK    2  A    between atoms: C_3  and  O_17 
REMARK    3  A    between atoms: C_4  and  C_6 
REMARK    4  A    between atoms: C_6  and  O_18 
REMARK    5  A    between atoms: O_19  and  C_8 
REMARK       I    between atoms: N_10  and  C_9 
ROOT
HETATM    1  C   UNK N   1      36.226  15.156  12.425  0.00  0.00     0.149 C 
HETATM    2  C   UNK N   1      35.775  13.753  11.968  0.00  0.00     0.131 C 
HETATM    3  C   UNK N   1      34.178  14.981  10.469  0.00  0.00     0.125 A 
HETATM    4  C   UNK N   1      34.982  16.117  10.509  0.00  0.00     0.148 A 
HETATM    5  C   UNK N   1      33.039  14.991   9.665  0.00  0.00     0.185 A 
HETATM    6  C   UNK N   1      33.544  17.197   8.978  0.00  0.00     0.679 A 
HETATM    7  N   UNK N   1      33.244  18.231   8.286  0.00  0.00    -0.234 N 
ATOM      8  HN  UNK N   1      32.395  18.235   7.720  1.00  0.00     0.174 HD
HETATM    9  N   UNK N   1      36.113  16.132  11.359  0.00  0.00    -0.372 N 
HETATM   10  N   UNK N   1      34.526  13.841  11.231  0.00  0.00    -0.375 N 
HETATM   11  N   UNK N   1      34.659  17.203   9.759  0.00  0.00    -0.175 N 
HETATM   12  N   UNK N   1      32.742  16.099   8.937  0.00  0.00    -0.168 N 
ATOM     13  HN  UNK N   1      31.906  16.107   8.352  1.00  0.00     0.186 HD
HETATM   14  H   UNK N   1      33.831  19.020   8.301  0.00  0.00     0.174 HD
HETATM   15  H   UNK N   1      36.821  16.803  11.226  0.00  0.00     0.161 HD
HETATM   16  H   UNK N   1      33.901  13.081  11.263  0.00  0.00     0.160 HD
HETATM   17  H   UNK N   1      35.236  18.002   9.782  0.00  0.00     0.186 HD
ENDROOT
BRANCH   2  18
HETATM   18  C   UNK N   1      35.582  12.833  13.193  0.00  0.00     0.170 C 
BRANCH  18  19
HETATM   19  C   UNK N   1      36.101  13.451  14.512  0.00  0.00     0.145 C 
HETATM   20  C   UNK N   1      35.186  13.075  15.666  0.00  0.00     0.042 C 
BRANCH  19  21
HETATM   21  O   UNK N   1      37.385  12.995  14.815  0.00  0.00    -0.393 OA
HETATM   22  H   UNK N   1      37.863  12.436  14.183  0.00  0.00     0.210 HD
ENDBRANCH  19  21
ENDBRANCH  18  19
BRANCH  18  23
HETATM   23  O   UNK N   1      34.221  12.536  13.339  0.00  0.00    -0.391 OA
HETATM   24  H   UNK N   1      33.852  11.737  12.929  0.00  0.00     0.210 HD
ENDBRANCH  18  23
ENDBRANCH   2  18
BRANCH   5  25
HETATM   25  O   UNK N   1      32.238  13.914   9.606  0.00  0.00    -0.344 OA
HETATM   26  H   UNK N   1      31.987  13.471  10.392  0.00  0.00     0.219 HD
ENDBRANCH   5  25
TORSDOF 5
ENDMDL
MODEL 4
REMARK VINA RESULT:      -6.0     10.730     13.397
REMARK  5 active torsions:
REMARK  status: ('A' for Active; 'I' for Inactive)
REMARK    1  A    between atoms: C_6  and  C_3 
REMARK    2  A    between atoms: C_3  and  O_17 
REMARK    3  A    between atoms: C_4  and  C_6 
REMARK    4  A    between atoms: C_6  and  O_18 
REMARK    5  A    between atoms: O_19  and  C_8 
REMARK       I    between atoms: N_10  and  C_9 
ROOT
HETATM    1  C   UNK N   1      23.768  17.101   4.435  0.00  0.00     0.149 C 
HETATM    2  C   UNK N   1      24.218  18.524   4.825  0.00  0.00     0.131 C 
HETATM    3  C   UNK N   1      22.198  19.290   3.546  0.00  0.00     0.125 A 
HETATM    4  C   UNK N   1      21.594  18.048   3.716  0.00  0.00     0.148 A 
HETATM    5  C   UNK N   1      21.487  20.301   2.901  0.00  0.00     0.185 A 
HETATM    6  C   UNK N   1      19.645  18.841   2.643  0.00  0.00     0.679 A 
HETATM    7  N   UNK N   1      18.457  18.631   2.217  0.00  0.00    -0.234 N 
ATOM      8  HN  UNK N   1      17.955  19.371   1.726  1.00  0.00     0.174 HD
HETATM    9  N   UNK N   1      22.326  17.003   4.328  0.00  0.00    -0.372 N 
HETATM   10  N   UNK N   1      23.509  19.512   4.030  0.00  0.00    -0.375 N 
HETATM   11  N   UNK N   1      20.327  17.843   3.270  0.00  0.00    -0.175 N 
HETATM   12  N   UNK N   1      20.226  20.057   2.458  0.00  0.00    -0.168 N 
ATOM     13  HN  UNK N   1      19.707  20.795   1.983  1.00  0.00     0.186 HD
HETATM   14  H   UNK N   1      18.028  17.758   2.364  0.00  0.00     0.174 HD
HETATM   15  H   UNK N   1      21.857  16.212   4.679  0.00  0.00     0.161 HD
HETATM   16  H   UNK N   1      23.955  20.365   3.823  0.00  0.00     0.160 HD
HETATM   17  H   UNK N   1      19.898  16.965   3.402  0.00  0.00     0.186 HD
ENDROOT
BRANCH   2  18
HETATM   18  C   UNK N   1      25.738  18.681   4.595  0.00  0.00     0.170 C 
BRANCH  18  19
HETATM   19  C   UNK N   1      26.174  20.144   4.353  0.00  0.00     0.145 C 
HETATM   20  C   UNK N   1      27.597  20.358   4.841  0.00  0.00     0.042 C 
BRANCH  19  21
HETATM   21  O   UNK N   1      26.131  20.468   2.995  0.00  0.00    -0.393 OA
HETATM   22  H   UNK N   1      26.001  19.771   2.334  0.00  0.00     0.210 HD
ENDBRANCH  19  21
ENDBRANCH  18  19
BRANCH  18  23
HETATM   23  O   UNK N   1      26.428  18.183   5.707  0.00  0.00    -0.391 OA
HETATM   24  H   UNK N   1      26.458  17.228   5.872  0.00  0.00     0.210 HD
ENDBRANCH  18  23
ENDBRANCH   2  18
BRANCH   5  25
HETATM   25  O   UNK N   1      22.041  21.512   2.715  0.00  0.00    -0.344 OA
HETATM   26  H   UNK N   1      22.382  21.989   3.444  0.00  0.00     0.219 HD
ENDBRANCH   5  25
TORSDOF 5
ENDMDL
MODEL 5
REMARK VINA RESULT:      -5.9      2.098      2.764
REMARK  5 active torsions:
REMARK  status: ('A' for Active; 'I' for Inactive)
REMARK    1  A    between atoms: C_6  and  C_3 
REMARK    2  A    between atoms: C_3  and  O_17 
REMARK    3  A    between atoms: C_4  and  C_6 
REMARK    4  A    between atoms: C_6  and  O_18 
REMARK    5  A    between atoms: O_19  and  C_8 
REMARK       I    between atoms: N_10  and  C_9 
ROOT
HETATM    1  C   UNK N   1      35.736  16.254  11.278  0.00  0.00     0.149 C 
HETATM    2  C   UNK N   1      35.937  14.799  10.805  0.00  0.00     0.131 C 
HETATM    3  C   UNK N   1      33.737  15.095   9.631  0.00  0.00     0.125 A 
HETATM    4  C   UNK N   1      33.903  16.476   9.625  0.00  0.00     0.148 A 
HETATM    5  C   UNK N   1      32.620  14.548   9.002  0.00  0.00     0.185 A 
HETATM    6  C   UNK N   1      31.906  16.718   8.387  0.00  0.00     0.679 A 
HETATM    7  N   UNK N   1      31.049  17.472   7.811  0.00  0.00    -0.234 N 
ATOM      8  HN  UNK N   1      30.223  17.063   7.375  1.00  0.00     0.174 HD
HETATM    9  N   UNK N   1      35.010  17.042  10.301  0.00  0.00    -0.372 N 
HETATM   10  N   UNK N   1      34.698  14.270  10.264  0.00  0.00    -0.375 N 
HETATM   11  N   UNK N   1      32.992  17.266   8.998  0.00  0.00    -0.175 N 
HETATM   12  N   UNK N   1      31.723  15.369   8.395  0.00  0.00    -0.168 N 
ATOM     13  HN  UNK N   1      30.904  14.970   7.938  1.00  0.00     0.186 HD
HETATM   14  H   UNK N   1      31.187  18.447   7.789  0.00  0.00     0.174 HD
HETATM   15  H   UNK N   1      35.285  17.967  10.109  0.00  0.00     0.161 HD
HETATM   16  H   UNK N   1      34.520  13.304  10.338  0.00  0.00     0.160 HD
HETATM   17  H   UNK N   1      33.118  18.243   8.986  0.00  0.00     0.186 HD
ENDROOT
BRANCH   2  18
HETATM   18  C   UNK N   1      36.396  13.917  11.987  0.00  0.00     0.170 C 
BRANCH  18  19
HETATM   19  C   UNK N   1      35.473  12.702  12.240  0.00  0.00     0.145 C 
HETATM   20  C   UNK N   1      36.246  11.586  12.922  0.00  0.00     0.042 C 
BRANCH  19  21
HETATM   21  O   UNK N   1      34.398  13.046  13.061  0.00  0.00    -0.393 OA
HETATM   22  H   UNK N   1      33.497  13.052  12.703  0.00  0.00     0.210 HD
ENDBRANCH  19  21
ENDBRANCH  18  19
BRANCH  18  23
HETATM   23  O   UNK N   1      37.695  13.453  11.742  0.00  0.00    -0.391 OA
HETATM   24  H   UNK N   1      37.869  12.500  11.693  0.00  0.00     0.210 HD
ENDBRANCH  18  23
ENDBRANCH   2  18
BRANCH   5  25
HETATM   25  O   UNK N   1      32.425  13.218   8.993  0.00  0.00    -0.344 OA
HETATM   26  H   UNK N   1      32.067  12.791   9.746  0.00  0.00     0.219 HD
ENDBRANCH   5  25
TORSDOF 5
ENDMDL
MODEL 6
REMARK VINA RESULT:      -5.8      3.802      7.164
REMARK  5 active torsions:
REMARK  status: ('A' for Active; 'I' for Inactive)
REMARK    1  A    between atoms: C_6  and  C_3 
REMARK    2  A    between atoms: C_3  and  O_17 
REMARK    3  A    between atoms: C_4  and  C_6 
REMARK    4  A    between atoms: C_6  and  O_18 
REMARK    5  A    between atoms: O_19  and  C_8 
REMARK       I    between atoms: N_10  and  C_9 
ROOT
HETATM    1  C   UNK N   1      29.495  17.279   7.735  0.00  0.00     0.149 C 
HETATM    2  C   UNK N   1      29.861  16.902   6.284  0.00  0.00     0.131 C 
HETATM    3  C   UNK N   1      32.234  17.316   6.994  0.00  0.00     0.125 A 
HETATM    4  C   UNK N   1      31.894  17.098   8.326  0.00  0.00     0.148 A 
HETATM    5  C   UNK N   1      33.568  17.556   6.670  0.00  0.00     0.185 A 
HETATM    6  C   UNK N   1      34.160  17.340   8.950  0.00  0.00     0.679 A 
HETATM    7  N   UNK N   1      35.058  17.357   9.861  0.00  0.00    -0.234 N 
ATOM      8  HN  UNK N   1      36.027  17.558   9.615  1.00  0.00     0.174 HD
HETATM    9  N   UNK N   1      30.536  16.899   8.669  0.00  0.00    -0.372 N 
HETATM   10  N   UNK N   1      31.232  17.284   5.995  0.00  0.00    -0.375 N 
HETATM   11  N   UNK N   1      32.860  17.105   9.282  0.00  0.00    -0.175 N 
HETATM   12  N   UNK N   1      34.505  17.567   7.654  0.00  0.00    -0.168 N 
ATOM     13  HN  UNK N   1      35.481  17.747   7.417  1.00  0.00     0.186 HD
HETATM   14  H   UNK N   1      34.814  17.177  10.797  0.00  0.00     0.174 HD
HETATM   15  H   UNK N   1      30.299  16.505   9.540  0.00  0.00     0.161 HD
HETATM   16  H   UNK N   1      31.473  17.530   5.073  0.00  0.00     0.160 HD
HETATM   17  H   UNK N   1      32.618  16.940  10.223  0.00  0.00     0.186 HD
ENDROOT
BRANCH   2  18
HETATM   18  C   UNK N   1      28.912  17.615   5.296  0.00  0.00     0.170 C 
BRANCH  18  19
HETATM   19  C   UNK N   1      27.916  18.575   5.985  0.00  0.00     0.145 C 
HETATM   20  C   UNK N   1      27.885  19.911   5.262  0.00  0.00     0.042 C 
BRANCH  19  21
HETATM   21  O   UNK N   1      26.622  18.052   5.980  0.00  0.00    -0.393 OA
HETATM   22  H   UNK N   1      26.093  18.073   5.168  0.00  0.00     0.210 HD
ENDBRANCH  19  21
ENDBRANCH  18  19
BRANCH  18  23
HETATM   23  O   UNK N   1      29.670  18.341   4.368  0.00  0.00    -0.391 OA
HETATM   24  H   UNK N   1      29.316  18.515   3.482  0.00  0.00     0.210 HD
ENDBRANCH  18  23
ENDBRANCH   2  18
BRANCH   5  25
HETATM   25  O   UNK N   1      33.931  17.775   5.395  0.00  0.00    -0.344 OA
HETATM   26  H   UNK N   1      34.045  18.651   5.083  0.00  0.00     0.219 HD
ENDBRANCH   5  25
TORSDOF 5
ENDMDL
MODEL 7
REMARK VINA RESULT:      -5.8      2.640      5.921
REMARK  5 active torsions:
REMARK  status: ('A' for Active; 'I' for Inactive)
REMARK    1  A    between atoms: C_6  and  C_3 
REMARK    2  A    between atoms: C_3  and  O_17 
REMARK    3  A    between atoms: C_4  and  C_6 
REMARK    4  A    between atoms: C_6  and  O_18 
REMARK    5  A    between atoms: O_19  and  C_8 
REMARK       I    between atoms: N_10  and  C_9 
ROOT
HETATM    1  C   UNK N   1      34.627  17.234   9.356  0.00  0.00     0.149 C 
HETATM    2  C   UNK N   1      33.438  16.294   9.065  0.00  0.00     0.131 C 
HETATM    3  C   UNK N   1      34.579  14.703  10.638  0.00  0.00     0.125 A 
HETATM    4  C   UNK N   1      35.259  15.756  11.241  0.00  0.00     0.148 A 
HETATM    5  C   UNK N   1      34.742  13.416  11.148  0.00  0.00     0.185 A 
HETATM    6  C   UNK N   1      36.201  14.259  12.807  0.00  0.00     0.679 A 
HETATM    7  N   UNK N   1      36.961  14.049  13.814  0.00  0.00    -0.234 N 
ATOM      8  HN  UNK N   1      37.092  13.100  14.164  1.00  0.00     0.174 HD
HETATM    9  N   UNK N   1      35.136  17.058  10.702  0.00  0.00    -0.372 N 
HETATM   10  N   UNK N   1      33.734  14.950   9.530  0.00  0.00    -0.375 N 
HETATM   11  N   UNK N   1      36.053  15.522  12.320  0.00  0.00    -0.175 N 
HETATM   12  N   UNK N   1      35.552  13.217  12.220  0.00  0.00    -0.168 N 
ATOM     13  HN  UNK N   1      35.675  12.275  12.590  1.00  0.00     0.186 HD
HETATM   14  H   UNK N   1      37.419  14.803  14.251  0.00  0.00     0.174 HD
HETATM   15  H   UNK N   1      35.395  17.842  11.238  0.00  0.00     0.161 HD
HETATM   16  H   UNK N   1      33.332  14.185   9.059  0.00  0.00     0.160 HD
HETATM   17  H   UNK N   1      36.525  16.271  12.751  0.00  0.00     0.186 HD
ENDROOT
BRANCH   2  18
HETATM   18  C   UNK N   1      33.150  16.258   7.548  0.00  0.00     0.170 C 
BRANCH  18  19
HETATM   19  C   UNK N   1      34.373  16.635   6.682  0.00  0.00     0.145 C 
HETATM   20  C   UNK N   1      34.640  15.554   5.647  0.00  0.00     0.042 C 
BRANCH  19  21
HETATM   21  O   UNK N   1      34.163  17.837   6.004  0.00  0.00    -0.393 OA
HETATM   22  H   UNK N   1      34.877  18.228   5.477  0.00  0.00     0.210 HD
ENDBRANCH  19  21
ENDBRANCH  18  19
BRANCH  18  23
HETATM   23  O   UNK N   1      32.720  14.974   7.189  0.00  0.00    -0.391 OA
HETATM   24  H   UNK N   1      33.309  14.214   7.311  0.00  0.00     0.210 HD
ENDBRANCH  18  23
ENDBRANCH   2  18
BRANCH   5  25
HETATM   25  O   UNK N   1      34.104  12.375  10.586  0.00  0.00    -0.344 OA
HETATM   26  H   UNK N   1      34.496  11.914   9.871  0.00  0.00     0.219 HD
ENDBRANCH   5  25
TORSDOF 5
ENDMDL
MODEL 8
REMARK VINA RESULT:      -5.7     14.459     17.485
REMARK  5 active torsions:
REMARK  status: ('A' for Active; 'I' for Inactive)
REMARK    1  A    between atoms: C_6  and  C_3 
REMARK    2  A    between atoms: C_3  and  O_17 
REMARK    3  A    between atoms: C_4  and  C_6 
REMARK    4  A    between atoms: C_6  and  O_18 
REMARK    5  A    between atoms: O_19  and  C_8 
REMARK       I    between atoms: N_10  and  C_9 
ROOT
HETATM    1  C   UNK N   1      27.622  23.723  -5.380  0.00  0.00     0.149 C 
HETATM    2  C   UNK N   1      28.026  24.730  -4.283  0.00  0.00     0.131 C 
HETATM    3  C   UNK N   1      29.664  22.969  -3.560  0.00  0.00     0.125 A 
HETATM    4  C   UNK N   1      29.644  22.401  -4.830  0.00  0.00     0.148 A 
HETATM    5  C   UNK N   1      30.523  22.439  -2.598  0.00  0.00     0.185 A 
HETATM    6  C   UNK N   1      31.299  20.850  -4.169  0.00  0.00     0.679 A 
HETATM    7  N   UNK N   1      32.058  19.859  -4.450  0.00  0.00    -0.234 N 
ATOM      8  HN  UNK N   1      32.664  19.464  -3.731  1.00  0.00     0.174 HD
HETATM    9  N   UNK N   1      28.742  22.903  -5.797  0.00  0.00    -0.372 N 
HETATM   10  N   UNK N   1      28.826  24.072  -3.265  0.00  0.00    -0.375 N 
HETATM   11  N   UNK N   1      30.465  21.357  -5.119  0.00  0.00    -0.175 N 
HETATM   12  N   UNK N   1      31.321  21.388  -2.919  0.00  0.00    -0.168 N 
ATOM     13  HN  UNK N   1      31.946  20.997  -2.215  1.00  0.00     0.186 HD
HETATM   14  H   UNK N   1      32.056  19.479  -5.358  0.00  0.00     0.174 HD
HETATM   15  H   UNK N   1      28.875  22.697  -6.751  0.00  0.00     0.161 HD
HETATM   16  H   UNK N   1      28.786  24.404  -2.339  0.00  0.00     0.160 HD
HETATM   17  H   UNK N   1      30.456  20.964  -6.022  0.00  0.00     0.186 HD
ENDROOT
BRANCH   2  18
HETATM   18  C   UNK N   1      26.765  25.335  -3.628  0.00  0.00     0.170 C 
BRANCH  18  19
HETATM   19  C   UNK N   1      26.538  26.821  -3.990  0.00  0.00     0.145 C 
HETATM   20  C   UNK N   1      25.595  26.936  -5.176  0.00  0.00     0.042 C 
BRANCH  19  21
HETATM   21  O   UNK N   1      25.974  27.522  -2.923  0.00  0.00    -0.393 OA
HETATM   22  H   UNK N   1      26.361  28.364  -2.637  0.00  0.00     0.210 HD
ENDBRANCH  19  21
ENDBRANCH  18  19
BRANCH  18  23
HETATM   23  O   UNK N   1      25.640  24.598  -4.019  0.00  0.00    -0.391 OA
HETATM   24  H   UNK N   1      25.435  24.489  -4.961  0.00  0.00     0.210 HD
ENDBRANCH  18  23
ENDBRANCH   2  18
BRANCH   5  25
HETATM   25  O   UNK N   1      30.564  22.960  -1.360  0.00  0.00    -0.344 OA
HETATM   26  H   UNK N   1      30.208  22.482  -0.637  0.00  0.00     0.219 HD
ENDBRANCH   5  25
TORSDOF 5
ENDMDL
MODEL 9
REMARK VINA RESULT:      -5.6      2.279      3.137
REMARK  5 active torsions:
REMARK  status: ('A' for Active; 'I' for Inactive)
REMARK    1  A    between atoms: C_6  and  C_3 
REMARK    2  A    between atoms: C_3  and  O_17 
REMARK    3  A    between atoms: C_4  and  C_6 
REMARK    4  A    between atoms: C_6  and  O_18 
REMARK    5  A    between atoms: O_19  and  C_8 
REMARK       I    between atoms: N_10  and  C_9 
ROOT
HETATM    1  C   UNK N   1      34.477  17.817   8.721  0.00  0.00     0.149 C 
HETATM    2  C   UNK N   1      34.967  16.380   8.995  0.00  0.00     0.131 C 
HETATM    3  C   UNK N   1      33.071  15.672   7.508  0.00  0.00     0.125 A 
HETATM    4  C   UNK N   1      33.055  16.923   6.900  0.00  0.00     0.148 A 
HETATM    5  C   UNK N   1      32.206  14.684   7.039  0.00  0.00     0.185 A 
HETATM    6  C   UNK N   1      31.377  16.185   5.410  0.00  0.00     0.679 A 
HETATM    7  N   UNK N   1      30.583  16.424   4.436  0.00  0.00    -0.234 N 
ATOM      8  HN  UNK N   1      29.937  15.701   4.117  1.00  0.00     0.174 HD
HETATM    9  N   UNK N   1      33.896  17.945   7.400  0.00  0.00    -0.372 N 
HETATM   10  N   UNK N   1      33.962  15.417   8.578  0.00  0.00    -0.375 N 
HETATM   11  N   UNK N   1      32.215  17.160   5.857  0.00  0.00    -0.175 N 
HETATM   12  N   UNK N   1      31.373  14.960   6.002  0.00  0.00    -0.168 N 
ATOM     13  HN  UNK N   1      30.737  14.239   5.662  1.00  0.00     0.186 HD
HETATM   14  H   UNK N   1      30.595  17.303   3.995  0.00  0.00     0.174 HD
HETATM   15  H   UNK N   1      34.086  18.740   6.851  0.00  0.00     0.161 HD
HETATM   16  H   UNK N   1      33.898  14.559   9.056  0.00  0.00     0.160 HD
HETATM   17  H   UNK N   1      32.214  18.044   5.422  0.00  0.00     0.186 HD
ENDROOT
BRANCH   2  18
HETATM   18  C   UNK N   1      35.255  16.196  10.502  0.00  0.00     0.170 C 
BRANCH  18  19
HETATM   19  C   UNK N   1      34.778  14.834  11.056  0.00  0.00     0.145 C 
HETATM   20  C   UNK N   1      35.535  14.488  12.327  0.00  0.00     0.042 C 
BRANCH  19  21
HETATM   21  O   UNK N   1      33.415  14.859  11.359  0.00  0.00    -0.393 OA
HETATM   22  H   UNK N   1      32.923  14.029  11.450  0.00  0.00     0.210 HD
ENDBRANCH  19  21
ENDBRANCH  18  19
BRANCH  18  23
HETATM   23  O   UNK N   1      36.631  16.318  10.728  0.00  0.00    -0.391 OA
HETATM   24  H   UNK N   1      37.006  16.067  11.587  0.00  0.00     0.210 HD
ENDBRANCH  18  23
ENDBRANCH   2  18
BRANCH   5  25
HETATM   25  O   UNK N   1      32.192  13.466   7.606  0.00  0.00    -0.344 OA
HETATM   26  H   UNK N   1      32.230  12.698   7.071  0.00  0.00     0.219 HD
ENDBRANCH   5  25
TORSDOF 5
ENDMDL
