MODEL 1
REMARK VINA RESULT:      -5.6      0.000      0.000
REMARK  11 active torsions:
REMARK  status: ('A' for Active; 'I' for Inactive)
REMARK    1  A    between atoms: C_6  and  C_3 
REMARK    2  A    between atoms: O_14  and  C_3 
REMARK    3  A    between atoms: O_15  and  C_4 
REMARK    4  A    between atoms: C_5  and  O_16 
REMARK    5  A    between atoms: C_9  and  C_6 
REMARK    6  A    between atoms: C_6  and  O_17 
REMARK    7  A    between atoms: C_11  and  C_7 
REMARK    8  A    between atoms: C_8  and  N_12 
REMARK    9  A    between atoms: C_10  and  C_9 
REMARK   10  A    between atoms: C_9  and  O_18 
REMARK   11  A    between atoms: O_20  and  C_11 
ROOT
HETATM    1  C   UNK N   1      35.374  16.992  10.277  0.00  0.00     0.050 C 
HETATM    2  C   UNK N   1      35.127  15.888  11.257  0.00  0.00     0.169 C 
HETATM    3  C   UNK N   1      34.601  17.099   9.189  0.00  0.00     0.141 C 
HETATM    4  C   UNK N   1      34.718  14.633  10.485  0.00  0.00     0.148 C 
HETATM    5  C   UNK N   1      33.472  14.957   9.599  0.00  0.00     0.186 C 
HETATM    6  O   UNK N   1      33.625  16.177   8.938  0.00  0.00    -0.335 OA
ENDROOT
BRANCH   5   7
HETATM    7  C   UNK N   1      33.234  13.842   8.544  0.00  0.00     0.180 C 
BRANCH   7   8
HETATM    8  C   UNK N   1      32.803  14.351   7.150  0.00  0.00     0.173 C 
BRANCH   8   9
HETATM    9  C   UNK N   1      33.921  14.223   6.121  0.00  0.00     0.198 C 
BRANCH   9  10
HETATM   10  O   UNK N   1      34.711  15.374   6.123  0.00  0.00    -0.398 OA
HETATM   11  H   UNK N   1      35.655  15.323   6.341  0.00  0.00     0.209 HD
ENDBRANCH   9  10
ENDBRANCH   8   9
BRANCH   8  12
HETATM   12  O   UNK N   1      31.668  13.671   6.698  0.00  0.00    -0.391 OA
HETATM   13  H   UNK N   1      31.728  13.073   5.937  0.00  0.00     0.210 HD
ENDBRANCH   8  12
ENDBRANCH   7   8
BRANCH   7  14
HETATM   14  O   UNK N   1      32.274  12.937   9.006  0.00  0.00    -0.390 OA
HETATM   15  H   UNK N   1      31.344  13.206   9.073  0.00  0.00     0.210 HD
ENDBRANCH   7  14
ENDBRANCH   5   7
BRANCH   4  16
HETATM   16  N   UNK N   1      34.420  13.568  11.430  0.00  0.00    -0.365 N 
HETATM   17  C   UNK N   1      35.245  12.628  11.744  0.00  0.00     0.107 C 
HETATM   18  C   UNK N   1      34.829  11.586  12.723  0.00  0.00     0.097 C 
ATOM     19  HN  UNK N   1      33.500  13.564  11.872  1.00  0.00     0.161 HD
BRANCH  17  20
HETATM   20  O   UNK N   1      36.492  12.590  11.229  0.00  0.00    -0.350 OA
HETATM   21  H   UNK N   1      37.157  12.698  10.577  0.00  0.00     0.219 HD
ENDBRANCH  17  20
ENDBRANCH   4  16
BRANCH   2  22
HETATM   22  O   UNK N   1      36.290  15.652  11.993  0.00  0.00    -0.389 OA
HETATM   23  H   UNK N   1      36.357  15.847  12.941  0.00  0.00     0.210 HD
ENDBRANCH   2  22
BRANCH   3  24
HETATM   24  C   UNK N   1      34.794  18.219   8.248  0.00  0.00     0.200 C 
HETATM   25  O   UNK N   1      34.424  18.115   7.092  0.00  0.00    -0.645 OA
BRANCH  24  26
HETATM   26  O   UNK N   1      35.379  19.363   8.660  0.00  0.00    -0.771 OA
HETATM   27  H   UNK N   1      35.199  19.710   9.511  0.00  0.00     0.167 HD
ENDBRANCH  24  26
ENDBRANCH   3  24
TORSDOF 11
ENDMDL
MODEL 2
REMARK VINA RESULT:      -5.6      1.913      4.185
REMARK  11 active torsions:
REMARK  status: ('A' for Active; 'I' for Inactive)
REMARK    1  A    between atoms: C_6  and  C_3 
REMARK    2  A    between atoms: O_14  and  C_3 
REMARK    3  A    between atoms: O_15  and  C_4 
REMARK    4  A    between atoms: C_5  and  O_16 
REMARK    5  A    between atoms: C_9  and  C_6 
REMARK    6  A    between atoms: C_6  and  O_17 
REMARK    7  A    between atoms: C_11  and  C_7 
REMARK    8  A    between atoms: C_8  and  N_12 
REMARK    9  A    between atoms: C_10  and  C_9 
REMARK   10  A    between atoms: C_9  and  O_18 
REMARK   11  A    between atoms: O_20  and  C_11 
ROOT
HETATM    1  C   UNK N   1      34.697  15.944   7.556  0.00  0.00     0.050 C 
HETATM    2  C   UNK N   1      35.196  14.547   7.754  0.00  0.00     0.169 C 
HETATM    3  C   UNK N   1      34.862  16.852   8.527  0.00  0.00     0.141 C 
HETATM    4  C   UNK N   1      34.973  14.151   9.214  0.00  0.00     0.148 C 
HETATM    5  C   UNK N   1      35.680  15.191  10.143  0.00  0.00     0.186 C 
HETATM    6  O   UNK N   1      35.432  16.498   9.717  0.00  0.00    -0.335 OA
ENDROOT
BRANCH   5   7
HETATM    7  C   UNK N   1      35.197  15.043  11.611  0.00  0.00     0.180 C 
BRANCH   7   8
HETATM    8  C   UNK N   1      36.157  14.258  12.533  0.00  0.00     0.173 C 
BRANCH   8   9
HETATM    9  C   UNK N   1      35.485  13.043  13.162  0.00  0.00     0.198 C 
BRANCH   9  10
HETATM   10  O   UNK N   1      34.795  13.420  14.317  0.00  0.00    -0.398 OA
HETATM   11  H   UNK N   1      35.000  13.006  15.170  0.00  0.00     0.209 HD
ENDBRANCH   9  10
ENDBRANCH   8   9
BRANCH   8  12
HETATM   12  O   UNK N   1      37.300  13.854  11.837  0.00  0.00    -0.391 OA
HETATM   13  H   UNK N   1      37.433  14.127  10.915  0.00  0.00     0.210 HD
ENDBRANCH   8  12
ENDBRANCH   7   8
BRANCH   7  14
HETATM   14  O   UNK N   1      33.941  14.429  11.648  0.00  0.00    -0.390 OA
HETATM   15  H   UNK N   1      33.441  14.392  12.478  0.00  0.00     0.210 HD
ENDBRANCH   7  14
ENDBRANCH   5   7
BRANCH   4  16
HETATM   16  N   UNK N   1      35.507  12.815   9.432  0.00  0.00    -0.365 N 
HETATM   17  C   UNK N   1      34.795  11.803   9.798  0.00  0.00     0.107 C 
HETATM   18  C   UNK N   1      35.450  10.481   9.996  0.00  0.00     0.097 C 
ATOM     19  HN  UNK N   1      36.506  12.669   9.287  1.00  0.00     0.161 HD
BRANCH  17  20
HETATM   20  O   UNK N   1      33.461  11.912   9.973  0.00  0.00    -0.350 OA
HETATM   21  H   UNK N   1      32.603  11.643  10.238  0.00  0.00     0.219 HD
ENDBRANCH  17  20
ENDBRANCH   4  16
BRANCH   2  22
HETATM   22  O   UNK N   1      34.505  13.683   6.902  0.00  0.00    -0.389 OA
HETATM   23  H   UNK N   1      33.542  13.575   6.935  0.00  0.00     0.210 HD
ENDBRANCH   2  22
BRANCH   3  24
HETATM   24  C   UNK N   1      34.431  18.247   8.320  0.00  0.00     0.200 C 
HETATM   25  O   UNK N   1      33.286  18.486   7.976  0.00  0.00    -0.645 OA
BRANCH  24  26
HETATM   26  O   UNK N   1      35.296  19.264   8.511  0.00  0.00    -0.771 OA
HETATM   27  H   UNK N   1      35.811  19.591   7.800  0.00  0.00     0.167 HD
ENDBRANCH  24  26
ENDBRANCH   3  24
TORSDOF 11
ENDMDL
MODEL 3
REMARK VINA RESULT:      -5.5      5.513      7.975
REMARK  11 active torsions:
REMARK  status: ('A' for Active; 'I' for Inactive)
REMARK    1  A    between atoms: C_6  and  C_3 
REMARK    2  A    between atoms: O_14  and  C_3 
REMARK    3  A    between atoms: O_15  and  C_4 
REMARK    4  A    between atoms: C_5  and  O_16 
REMARK    5  A    between atoms: C_9  and  C_6 
REMARK    6  A    between atoms: C_6  and  O_17 
REMARK    7  A    between atoms: C_11  and  C_7 
REMARK    8  A    between atoms: C_8  and  N_12 
REMARK    9  A    between atoms: C_10  and  C_9 
REMARK   10  A    between atoms: C_9  and  O_18 
REMARK   11  A    between atoms: O_20  and  C_11 
ROOT
HETATM    1  C   UNK N   1      31.835  17.038   4.803  0.00  0.00     0.050 C 
HETATM    2  C   UNK N   1      30.492  16.767   4.200  0.00  0.00     0.169 C 
HETATM    3  C   UNK N   1      31.949  17.186   6.130  0.00  0.00     0.141 C 
HETATM    4  C   UNK N   1      29.441  17.565   4.971  0.00  0.00     0.148 C 
HETATM    5  C   UNK N   1      29.519  17.188   6.487  0.00  0.00     0.186 C 
HETATM    6  O   UNK N   1      30.842  17.147   6.929  0.00  0.00    -0.335 OA
ENDROOT
BRANCH   5   7
HETATM    7  C   UNK N   1      28.732  18.208   7.354  0.00  0.00     0.180 C 
BRANCH   7   8
HETATM    8  C   UNK N   1      28.690  17.878   8.863  0.00  0.00     0.173 C 
BRANCH   8   9
HETATM    9  C   UNK N   1      29.705  18.692   9.658  0.00  0.00     0.198 C 
BRANCH   9  10
HETATM   10  O   UNK N   1      30.992  18.190   9.451  0.00  0.00    -0.398 OA
HETATM   11  H   UNK N   1      31.518  17.861  10.197  0.00  0.00     0.209 HD
ENDBRANCH   9  10
ENDBRANCH   8   9
BRANCH   8  12
HETATM   12  O   UNK N   1      27.410  18.085   9.385  0.00  0.00    -0.391 OA
HETATM   13  H   UNK N   1      27.233  17.917  10.324  0.00  0.00     0.210 HD
ENDBRANCH   8  12
ENDBRANCH   7   8
BRANCH   7  14
HETATM   14  O   UNK N   1      27.420  18.329   6.887  0.00  0.00    -0.390 OA
HETATM   15  H   UNK N   1      27.253  18.590   5.967  0.00  0.00     0.210 HD
ENDBRANCH   7  14
ENDBRANCH   5   7
BRANCH   4  16
HETATM   16  N   UNK N   1      28.123  17.265   4.430  0.00  0.00    -0.365 N 
HETATM   17  C   UNK N   1      27.339  18.146   3.908  0.00  0.00     0.107 C 
HETATM   18  C   UNK N   1      26.009  17.725   3.389  0.00  0.00     0.097 C 
ATOM     19  HN  UNK N   1      27.800  16.298   4.466  1.00  0.00     0.161 HD
BRANCH  17  20
HETATM   20  O   UNK N   1      27.715  19.437   3.792  0.00  0.00    -0.350 OA
HETATM   21  H   UNK N   1      28.310  20.161   3.766  0.00  0.00     0.219 HD
ENDBRANCH  17  20
ENDBRANCH   4  16
BRANCH   2  22
HETATM   22  O   UNK N   1      30.503  17.144   2.855  0.00  0.00    -0.389 OA
HETATM   23  H   UNK N   1      29.905  17.817   2.496  0.00  0.00     0.210 HD
ENDBRANCH   2  22
BRANCH   3  24
HETATM   24  C   UNK N   1      33.275  17.391   6.742  0.00  0.00     0.200 C 
HETATM   25  O   UNK N   1      34.204  17.796   6.064  0.00  0.00    -0.645 OA
BRANCH  24  26
HETATM   26  O   UNK N   1      33.469  17.134   8.052  0.00  0.00    -0.771 OA
HETATM   27  H   UNK N   1      32.741  16.974   8.619  0.00  0.00     0.167 HD
ENDBRANCH  24  26
ENDBRANCH   3  24
TORSDOF 11
ENDMDL
MODEL 4
REMARK VINA RESULT:      -5.5      3.550      5.885
REMARK  11 active torsions:
REMARK  status: ('A' for Active; 'I' for Inactive)
REMARK    1  A    between atoms: C_6  and  C_3 
REMARK    2  A    between atoms: O_14  and  C_3 
REMARK    3  A    between atoms: O_15  and  C_4 
REMARK    4  A    between atoms: C_5  and  O_16 
REMARK    5  A    between atoms: C_9  and  C_6 
REMARK    6  A    between atoms: C_6  and  O_17 
REMARK    7  A    between atoms: C_11  and  C_7 
REMARK    8  A    between atoms: C_8  and  N_12 
REMARK    9  A    between atoms: C_10  and  C_9 
REMARK   10  A    between atoms: C_9  and  O_18 
REMARK   11  A    between atoms: O_20  and  C_11 
ROOT
HETATM    1  C   UNK N   1      29.252  17.161   7.277  0.00  0.00     0.050 C 
HETATM    2  C   UNK N   1      30.103  16.619   6.172  0.00  0.00     0.169 C 
HETATM    3  C   UNK N   1      29.832  17.729   8.343  0.00  0.00     0.141 C 
HETATM    4  C   UNK N   1      31.357  15.992   6.783  0.00  0.00     0.148 C 
HETATM    5  C   UNK N   1      32.093  17.061   7.654  0.00  0.00     0.186 C 
HETATM    6  O   UNK N   1      31.192  17.767   8.454  0.00  0.00    -0.335 OA
ENDROOT
BRANCH   5   7
HETATM    7  C   UNK N   1      33.158  16.395   8.568  0.00  0.00     0.180 C 
BRANCH   7   8
HETATM    8  C   UNK N   1      32.680  15.119   9.297  0.00  0.00     0.173 C 
BRANCH   8   9
HETATM    9  C   UNK N   1      33.801  14.453  10.086  0.00  0.00     0.198 C 
BRANCH   9  10
HETATM   10  O   UNK N   1      33.786  14.895  11.410  0.00  0.00    -0.398 OA
HETATM   11  H   UNK N   1      33.144  15.563  11.698  0.00  0.00     0.209 HD
ENDBRANCH   9  10
ENDBRANCH   8   9
BRANCH   8  12
HETATM   12  O   UNK N   1      31.609  15.401  10.150  0.00  0.00    -0.391 OA
HETATM   13  H   UNK N   1      30.911  16.015   9.871  0.00  0.00     0.210 HD
ENDBRANCH   8  12
ENDBRANCH   7   8
BRANCH   7  14
HETATM   14  O   UNK N   1      33.615  17.309   9.522  0.00  0.00    -0.390 OA
HETATM   15  H   UNK N   1      34.035  16.993  10.338  0.00  0.00     0.210 HD
ENDBRANCH   7  14
ENDBRANCH   5   7
BRANCH   4  16
HETATM   16  N   UNK N   1      32.219  15.512   5.713  0.00  0.00    -0.365 N 
HETATM   17  C   UNK N   1      32.533  14.273   5.539  0.00  0.00     0.107 C 
HETATM   18  C   UNK N   1      33.429  13.898   4.411  0.00  0.00     0.097 C 
ATOM     19  HN  UNK N   1      32.599  16.198   5.061  1.00  0.00     0.161 HD
BRANCH  17  20
HETATM   20  O   UNK N   1      32.038  13.306   6.340  0.00  0.00    -0.350 OA
HETATM   21  H   UNK N   1      31.853  12.431   6.618  0.00  0.00     0.219 HD
ENDBRANCH  17  20
ENDBRANCH   4  16
BRANCH   2  22
HETATM   22  O   UNK N   1      29.378  15.664   5.455  0.00  0.00    -0.389 OA
HETATM   23  H   UNK N   1      28.435  15.502   5.607  0.00  0.00     0.210 HD
ENDBRANCH   2  22
BRANCH   3  24
HETATM   24  C   UNK N   1      29.004  18.323   9.409  0.00  0.00     0.200 C 
HETATM   25  O   UNK N   1      29.535  18.876  10.357  0.00  0.00    -0.645 OA
BRANCH  24  26
HETATM   26  O   UNK N   1      27.658  18.259   9.344  0.00  0.00    -0.771 OA
HETATM   27  H   UNK N   1      27.219  18.304   8.518  0.00  0.00     0.167 HD
ENDBRANCH  24  26
ENDBRANCH   3  24
TORSDOF 11
ENDMDL
MODEL 5
REMARK VINA RESULT:      -5.4      1.964      3.497
REMARK  11 active torsions:
REMARK  status: ('A' for Active; 'I' for Inactive)
REMARK    1  A    between atoms: C_6  and  C_3 
REMARK    2  A    between atoms: O_14  and  C_3 
REMARK    3  A    between atoms: O_15  and  C_4 
REMARK    4  A    between atoms: C_5  and  O_16 
REMARK    5  A    between atoms: C_9  and  C_6 
REMARK    6  A    between atoms: C_6  and  O_17 
REMARK    7  A    between atoms: C_11  and  C_7 
REMARK    8  A    between atoms: C_8  and  N_12 
REMARK    9  A    between atoms: C_10  and  C_9 
REMARK   10  A    between atoms: C_9  and  O_18 
REMARK   11  A    between atoms: O_20  and  C_11 
ROOT
HETATM    1  C   UNK N   1      33.282  16.356   9.069  0.00  0.00     0.050 C 
HETATM    2  C   UNK N   1      33.147  15.008   9.706  0.00  0.00     0.169 C 
HETATM    3  C   UNK N   1      34.354  16.629   8.315  0.00  0.00     0.141 C 
HETATM    4  C   UNK N   1      34.533  14.538  10.151  0.00  0.00     0.148 C 
HETATM    5  C   UNK N   1      35.497  14.541   8.921  0.00  0.00     0.186 C 
HETATM    6  O   UNK N   1      35.352  15.709   8.169  0.00  0.00    -0.335 OA
ENDROOT
BRANCH   5   7
HETATM    7  C   UNK N   1      36.977  14.418   9.374  0.00  0.00     0.180 C 
BRANCH   7   8
HETATM    8  C   UNK N   1      37.566  12.992   9.283  0.00  0.00     0.173 C 
BRANCH   8   9
HETATM    9  C   UNK N   1      38.180  12.539  10.603  0.00  0.00     0.198 C 
BRANCH   9  10
HETATM   10  O   UNK N   1      39.312  13.305  10.894  0.00  0.00    -0.398 OA
HETATM   11  H   UNK N   1      39.464  13.636  11.793  0.00  0.00     0.209 HD
ENDBRANCH   9  10
ENDBRANCH   8   9
BRANCH   8  12
HETATM   12  O   UNK N   1      36.592  12.074   8.878  0.00  0.00    -0.391 OA
HETATM   13  H   UNK N   1      36.507  11.221   9.332  0.00  0.00     0.210 HD
ENDBRANCH   8  12
ENDBRANCH   7   8
BRANCH   7  14
HETATM   14  O   UNK N   1      37.120  14.877  10.687  0.00  0.00    -0.390 OA
HETATM   15  H   UNK N   1      37.981  14.820  11.132  0.00  0.00     0.210 HD
ENDBRANCH   7  14
ENDBRANCH   5   7
BRANCH   4  16
HETATM   16  N   UNK N   1      34.423  13.204  10.721  0.00  0.00    -0.365 N 
HETATM   17  C   UNK N   1      34.717  12.913  11.943  0.00  0.00     0.107 C 
HETATM   18  C   UNK N   1      34.570  11.509  12.416  0.00  0.00     0.097 C 
ATOM     19  HN  UNK N   1      34.094  12.451  10.116  1.00  0.00     0.161 HD
BRANCH  17  20
HETATM   20  O   UNK N   1      35.123  13.864  12.810  0.00  0.00    -0.350 OA
HETATM   21  H   UNK N   1      35.717  14.472  13.205  0.00  0.00     0.219 HD
ENDBRANCH  17  20
ENDBRANCH   4  16
BRANCH   2  22
HETATM   22  O   UNK N   1      32.285  15.096  10.802  0.00  0.00    -0.389 OA
HETATM   23  H   UNK N   1      32.348  14.503  11.565  0.00  0.00     0.210 HD
ENDBRANCH   2  22
BRANCH   3  24
HETATM   24  C   UNK N   1      34.468  17.932   7.631  0.00  0.00     0.200 C 
HETATM   25  O   UNK N   1      34.186  18.026   6.449  0.00  0.00    -0.645 OA
BRANCH  24  26
HETATM   26  O   UNK N   1      34.881  19.023   8.307  0.00  0.00    -0.771 OA
HETATM   27  H   UNK N   1      34.988  18.995   9.237  0.00  0.00     0.167 HD
ENDBRANCH  24  26
ENDBRANCH   3  24
TORSDOF 11
ENDMDL
MODEL 6
REMARK VINA RESULT:      -5.4     12.156     14.526
REMARK  11 active torsions:
REMARK  status: ('A' for Active; 'I' for Inactive)
REMARK    1  A    between atoms: C_6  and  C_3 
REMARK    2  A    between atoms: O_14  and  C_3 
REMARK    3  A    between atoms: O_15  and  C_4 
REMARK    4  A    between atoms: C_5  and  O_16 
REMARK    5  A    between atoms: C_9  and  C_6 
REMARK    6  A    between atoms: C_6  and  O_17 
REMARK    7  A    between atoms: C_11  and  C_7 
REMARK    8  A    between atoms: C_8  and  N_12 
REMARK    9  A    between atoms: C_10  and  C_9 
REMARK   10  A    between atoms: C_9  and  O_18 
REMARK   11  A    between atoms: O_20  and  C_11 
ROOT
HETATM    1  C   UNK N   1      21.980  16.231   5.569  0.00  0.00     0.050 C 
HETATM    2  C   UNK N   1      23.255  16.720   4.959  0.00  0.00     0.169 C 
HETATM    3  C   UNK N   1      20.805  16.614   5.051  0.00  0.00     0.141 C 
HETATM    4  C   UNK N   1      23.056  18.168   4.508  0.00  0.00     0.148 C 
HETATM    5  C   UNK N   1      21.841  18.240   3.528  0.00  0.00     0.186 C 
HETATM    6  O   UNK N   1      20.763  17.492   4.006  0.00  0.00    -0.335 OA
ENDROOT
BRANCH   5   7
HETATM    7  C   UNK N   1      21.379  19.708   3.321  0.00  0.00     0.180 C 
BRANCH   7   8
HETATM    8  C   UNK N   1      20.304  19.901   2.228  0.00  0.00     0.173 C 
BRANCH   8   9
HETATM    9  C   UNK N   1      20.673  21.009   1.248  0.00  0.00     0.198 C 
BRANCH   9  10
HETATM   10  O   UNK N   1      20.626  20.527  -0.062  0.00  0.00    -0.398 OA
HETATM   11  H   UNK N   1      21.439  20.249  -0.513  0.00  0.00     0.209 HD
ENDBRANCH   9  10
ENDBRANCH   8   9
BRANCH   8  12
HETATM   12  O   UNK N   1      20.081  18.711   1.529  0.00  0.00    -0.391 OA
HETATM   13  H   UNK N   1      19.378  18.660   0.863  0.00  0.00     0.210 HD
ENDBRANCH   8  12
ENDBRANCH   7   8
BRANCH   7  14
HETATM   14  O   UNK N   1      22.476  20.520   3.018  0.00  0.00    -0.390 OA
HETATM   15  H   UNK N   1      22.351  21.471   2.867  0.00  0.00     0.210 HD
ENDBRANCH   7  14
ENDBRANCH   5   7
BRANCH   4  16
HETATM   16  N   UNK N   1      24.273  18.636   3.861  0.00  0.00    -0.365 N 
HETATM   17  C   UNK N   1      25.228  19.248   4.475  0.00  0.00     0.107 C 
HETATM   18  C   UNK N   1      26.426  19.687   3.708  0.00  0.00     0.097 C 
ATOM     19  HN  UNK N   1      24.375  18.471   2.860  1.00  0.00     0.161 HD
BRANCH  17  20
HETATM   20  O   UNK N   1      25.178  19.468   5.805  0.00  0.00    -0.350 OA
HETATM   21  H   UNK N   1      24.835  19.405   6.675  0.00  0.00     0.219 HD
ENDBRANCH  17  20
ENDBRANCH   4  16
BRANCH   2  22
HETATM   22  O   UNK N   1      24.282  16.638   5.902  0.00  0.00    -0.389 OA
HETATM   23  H   UNK N   1      24.126  16.732   6.854  0.00  0.00     0.210 HD
ENDBRANCH   2  22
BRANCH   3  24
HETATM   24  C   UNK N   1      19.543  16.089   5.605  0.00  0.00     0.200 C 
HETATM   25  O   UNK N   1      19.523  15.601   6.721  0.00  0.00    -0.645 OA
BRANCH  24  26
HETATM   26  O   UNK N   1      18.405  16.146   4.883  0.00  0.00    -0.771 OA
HETATM   27  H   UNK N   1      18.435  16.158   3.947  0.00  0.00     0.167 HD
ENDBRANCH  24  26
ENDBRANCH   3  24
TORSDOF 11
ENDMDL
MODEL 7
REMARK VINA RESULT:      -5.4     12.573     14.871
REMARK  11 active torsions:
REMARK  status: ('A' for Active; 'I' for Inactive)
REMARK    1  A    between atoms: C_6  and  C_3 
REMARK    2  A    between atoms: O_14  and  C_3 
REMARK    3  A    between atoms: O_15  and  C_4 
REMARK    4  A    between atoms: C_5  and  O_16 
REMARK    5  A    between atoms: C_9  and  C_6 
REMARK    6  A    between atoms: C_6  and  O_17 
REMARK    7  A    between atoms: C_11  and  C_7 
REMARK    8  A    between atoms: C_8  and  N_12 
REMARK    9  A    between atoms: C_10  and  C_9 
REMARK   10  A    between atoms: C_9  and  O_18 
REMARK   11  A    between atoms: O_20  and  C_11 
ROOT
HETATM    1  C   UNK N   1      23.709  16.926   4.167  0.00  0.00     0.050 C 
HETATM    2  C   UNK N   1      22.548  16.034   3.856  0.00  0.00     0.169 C 
HETATM    3  C   UNK N   1      23.532  18.253   4.213  0.00  0.00     0.141 C 
HETATM    4  C   UNK N   1      21.670  16.722   2.811  0.00  0.00     0.148 C 
HETATM    5  C   UNK N   1      21.237  18.126   3.346  0.00  0.00     0.186 C 
HETATM    6  O   UNK N   1      22.316  18.801   3.922  0.00  0.00    -0.335 OA
ENDROOT
BRANCH   5   7
HETATM    7  C   UNK N   1      20.651  19.000   2.205  0.00  0.00     0.180 C 
BRANCH   7   8
HETATM    8  C   UNK N   1      21.095  20.480   2.229  0.00  0.00     0.173 C 
BRANCH   8   9
HETATM    9  C   UNK N   1      20.636  21.237   0.988  0.00  0.00     0.198 C 
BRANCH   9  10
HETATM   10  O   UNK N   1      20.585  20.376  -0.110  0.00  0.00    -0.398 OA
HETATM   11  H   UNK N   1      20.056  19.563  -0.074  0.00  0.00     0.209 HD
ENDBRANCH   9  10
ENDBRANCH   8   9
BRANCH   8  12
HETATM   12  O   UNK N   1      20.623  21.126   3.375  0.00  0.00    -0.391 OA
HETATM   13  H   UNK N   1      19.816  20.813   3.814  0.00  0.00     0.210 HD
ENDBRANCH   8  12
ENDBRANCH   7   8
BRANCH   7  14
HETATM   14  O   UNK N   1      19.254  18.952   2.230  0.00  0.00    -0.390 OA
HETATM   15  H   UNK N   1      18.784  18.209   1.820  0.00  0.00     0.210 HD
ENDBRANCH   7  14
ENDBRANCH   5   7
BRANCH   4  16
HETATM   16  N   UNK N   1      20.507  15.889   2.542  0.00  0.00    -0.365 N 
HETATM   17  C   UNK N   1      20.409  15.088   1.536  0.00  0.00     0.107 C 
HETATM   18  C   UNK N   1      19.168  14.286   1.358  0.00  0.00     0.097 C 
ATOM     19  HN  UNK N   1      19.721  15.942   3.190  1.00  0.00     0.161 HD
BRANCH  17  20
HETATM   20  O   UNK N   1      21.424  14.938   0.659  0.00  0.00    -0.350 OA
HETATM   21  H   UNK N   1      21.831  14.726  -0.158  0.00  0.00     0.219 HD
ENDBRANCH  17  20
ENDBRANCH   4  16
BRANCH   2  22
HETATM   22  O   UNK N   1      23.020  14.812   3.371  0.00  0.00    -0.389 OA
HETATM   23  H   UNK N   1      23.918  14.492   3.546  0.00  0.00     0.210 HD
ENDBRANCH   2  22
BRANCH   3  24
HETATM   24  C   UNK N   1      24.654  19.139   4.579  0.00  0.00     0.200 C 
HETATM   25  O   UNK N   1      24.829  20.182   3.974  0.00  0.00    -0.645 OA
BRANCH  24  26
HETATM   26  O   UNK N   1      25.489  18.802   5.583  0.00  0.00    -0.771 OA
HETATM   27  H   UNK N   1      25.613  17.904   5.819  0.00  0.00     0.167 HD
ENDBRANCH  24  26
ENDBRANCH   3  24
TORSDOF 11
ENDMDL
MODEL 8
REMARK VINA RESULT:      -5.4      3.394      5.870
REMARK  11 active torsions:
REMARK  status: ('A' for Active; 'I' for Inactive)
REMARK    1  A    between atoms: C_6  and  C_3 
REMARK    2  A    between atoms: O_14  and  C_3 
REMARK    3  A    between atoms: O_15  and  C_4 
REMARK    4  A    between atoms: C_5  and  O_16 
REMARK    5  A    between atoms: C_9  and  C_6 
REMARK    6  A    between atoms: C_6  and  O_17 
REMARK    7  A    between atoms: C_11  and  C_7 
REMARK    8  A    between atoms: C_8  and  N_12 
REMARK    9  A    between atoms: C_10  and  C_9 
REMARK   10  A    between atoms: C_9  and  O_18 
REMARK   11  A    between atoms: O_20  and  C_11 
ROOT
HETATM    1  C   UNK N   1      29.376  17.081   7.417  0.00  0.00     0.050 C 
HETATM    2  C   UNK N   1      30.302  16.539   6.373  0.00  0.00     0.169 C 
HETATM    3  C   UNK N   1      29.878  17.717   8.484  0.00  0.00     0.141 C 
HETATM    4  C   UNK N   1      31.553  15.997   7.065  0.00  0.00     0.148 C 
HETATM    5  C   UNK N   1      32.198  17.132   7.925  0.00  0.00     0.186 C 
HETATM    6  O   UNK N   1      31.229  17.824   8.654  0.00  0.00    -0.335 OA
ENDROOT
BRANCH   5   7
HETATM    7  C   UNK N   1      33.248  16.553   8.912  0.00  0.00     0.180 C 
BRANCH   7   8
HETATM    8  C   UNK N   1      34.664  17.155   8.778  0.00  0.00     0.173 C 
BRANCH   8   9
HETATM    9  C   UNK N   1      34.655  18.483   8.028  0.00  0.00     0.198 C 
BRANCH   9  10
HETATM   10  O   UNK N   1      35.473  19.409   8.680  0.00  0.00    -0.398 OA
HETATM   11  H   UNK N   1      36.164  19.110   9.291  0.00  0.00     0.209 HD
ENDBRANCH   9  10
ENDBRANCH   8   9
BRANCH   8  12
HETATM   12  O   UNK N   1      35.256  17.329  10.032  0.00  0.00    -0.391 OA
HETATM   13  H   UNK N   1      35.966  17.978  10.152  0.00  0.00     0.210 HD
ENDBRANCH   8  12
ENDBRANCH   7   8
BRANCH   7  14
HETATM   14  O   UNK N   1      33.337  15.165   8.763  0.00  0.00    -0.390 OA
HETATM   15  H   UNK N   1      33.533  14.605   9.531  0.00  0.00     0.210 HD
ENDBRANCH   7  14
ENDBRANCH   5   7
BRANCH   4  16
HETATM   16  N   UNK N   1      32.486  15.519   6.055  0.00  0.00    -0.365 N 
HETATM   17  C   UNK N   1      32.571  14.290   5.674  0.00  0.00     0.107 C 
HETATM   18  C   UNK N   1      33.567  13.914   4.634  0.00  0.00     0.097 C 
ATOM     19  HN  UNK N   1      33.112  16.198   5.623  1.00  0.00     0.161 HD
BRANCH  17  20
HETATM   20  O   UNK N   1      31.749  13.343   6.174  0.00  0.00    -0.350 OA
HETATM   21  H   UNK N   1      31.520  12.547   6.612  0.00  0.00     0.219 HD
ENDBRANCH  17  20
ENDBRANCH   4  16
BRANCH   2  22
HETATM   22  O   UNK N   1      29.657  15.524   5.663  0.00  0.00    -0.389 OA
HETATM   23  H   UNK N   1      30.118  14.959   5.024  0.00  0.00     0.210 HD
ENDBRANCH   2  22
BRANCH   3  24
HETATM   24  C   UNK N   1      28.974  18.310   9.487  0.00  0.00     0.200 C 
HETATM   25  O   UNK N   1      29.435  18.863  10.471  0.00  0.00    -0.645 OA
BRANCH  24  26
HETATM   26  O   UNK N   1      27.637  18.245   9.324  0.00  0.00    -0.771 OA
HETATM   27  H   UNK N   1      27.156  17.500   9.625  0.00  0.00     0.167 HD
ENDBRANCH  24  26
ENDBRANCH   3  24
TORSDOF 11
ENDMDL
MODEL 9
REMARK VINA RESULT:      -5.4      4.176      5.739
REMARK  11 active torsions:
REMARK  status: ('A' for Active; 'I' for Inactive)
REMARK    1  A    between atoms: C_6  and  C_3 
REMARK    2  A    between atoms: O_14  and  C_3 
REMARK    3  A    between atoms: O_15  and  C_4 
REMARK    4  A    between atoms: C_5  and  O_16 
REMARK    5  A    between atoms: C_9  and  C_6 
REMARK    6  A    between atoms: C_6  and  O_17 
REMARK    7  A    between atoms: C_11  and  C_7 
REMARK    8  A    between atoms: C_8  and  N_12 
REMARK    9  A    between atoms: C_10  and  C_9 
REMARK   10  A    between atoms: C_9  and  O_18 
REMARK   11  A    between atoms: O_20  and  C_11 
ROOT
HETATM    1  C   UNK N   1      30.374  17.620   8.872  0.00  0.00     0.050 C 
HETATM    2  C   UNK N   1      31.543  16.745   8.547  0.00  0.00     0.169 C 
HETATM    3  C   UNK N   1      29.360  17.723   8.003  0.00  0.00     0.141 C 
HETATM    4  C   UNK N   1      31.831  16.852   7.049  0.00  0.00     0.148 C 
HETATM    5  C   UNK N   1      30.543  16.475   6.249  0.00  0.00     0.186 C 
HETATM    6  O   UNK N   1      29.412  17.082   6.798  0.00  0.00    -0.335 OA
ENDROOT
BRANCH   5   7
HETATM    7  C   UNK N   1      30.667  16.902   4.761  0.00  0.00     0.180 C 
BRANCH   7   8
HETATM    8  C   UNK N   1      31.072  15.767   3.793  0.00  0.00     0.173 C 
BRANCH   8   9
HETATM    9  C   UNK N   1      32.298  16.129   2.963  0.00  0.00     0.198 C 
BRANCH   9  10
HETATM   10  O   UNK N   1      31.991  17.167   2.080  0.00  0.00    -0.398 OA
HETATM   11  H   UNK N   1      32.034  18.091   2.372  0.00  0.00     0.209 HD
ENDBRANCH   9  10
ENDBRANCH   8   9
BRANCH   8  12
HETATM   12  O   UNK N   1      31.309  14.577   4.488  0.00  0.00    -0.391 OA
HETATM   13  H   UNK N   1      30.582  13.959   4.660  0.00  0.00     0.210 HD
ENDBRANCH   8  12
ENDBRANCH   7   8
BRANCH   7  14
HETATM   14  O   UNK N   1      31.587  17.946   4.633  0.00  0.00    -0.390 OA
HETATM   15  H   UNK N   1      31.718  18.572   5.364  0.00  0.00     0.210 HD
ENDBRANCH   7  14
ENDBRANCH   5   7
BRANCH   4  16
HETATM   16  N   UNK N   1      32.931  15.961   6.710  0.00  0.00    -0.365 N 
HETATM   17  C   UNK N   1      34.065  16.359   6.240  0.00  0.00     0.107 C 
HETATM   18  C   UNK N   1      35.118  15.355   5.925  0.00  0.00     0.097 C 
ATOM     19  HN  UNK N   1      32.797  14.960   6.853  1.00  0.00     0.161 HD
BRANCH  17  20
HETATM   20  O   UNK N   1      34.327  17.670   6.061  0.00  0.00    -0.350 OA
HETATM   21  H   UNK N   1      34.819  18.420   5.787  0.00  0.00     0.219 HD
ENDBRANCH  17  20
ENDBRANCH   4  16
BRANCH   2  22
HETATM   22  O   UNK N   1      32.652  17.157   9.289  0.00  0.00    -0.389 OA
HETATM   23  H   UNK N   1      33.071  16.596   9.959  0.00  0.00     0.210 HD
ENDBRANCH   2  22
BRANCH   3  24
HETATM   24  C   UNK N   1      28.174  18.533   8.339  0.00  0.00     0.200 C 
HETATM   25  O   UNK N   1      27.865  19.482   7.639  0.00  0.00    -0.645 OA
BRANCH  24  26
HETATM   26  O   UNK N   1      27.424  18.230   9.418  0.00  0.00    -0.771 OA
HETATM   27  H   UNK N   1      27.099  18.908   9.977  0.00  0.00     0.167 HD
ENDBRANCH  24  26
ENDBRANCH   3  24
TORSDOF 11
ENDMDL
