REMARK  5 active torsions:
REMARK  status: ('A' for Active; 'I' for Inactive)
REMARK    1  A    between atoms: C_2  and  C_3 
REMARK    2  A    between atoms: C_3  and  C_4 
REMARK    3  A    between atoms: C_4  and  P_5 
REMARK    4  A    between atoms: P_5  and  O_6 
REMARK    5  A    between atoms: P_5  and  O_7 
ROOT
HETATM    1  P   UNK N   1       3.517  -0.328  -0.009  0.00  0.00     0.235 P 
HETATM    2  O   UNK N   1       3.225   1.098  -0.553  0.00  0.00    -0.653 OA
ENDROOT
BRANCH   1   3
HETATM    3  C   UNK N   1       2.005  -1.022   0.818  0.00  0.00     0.125 C 
BRANCH   3   4
HETATM    4  C   UNK N   1       0.826  -0.955  -0.131  0.00  0.00     0.011 C 
BRANCH   4   5
HETATM    5  C   UNK N   1      -0.339  -1.717   0.462  0.00  0.00    -0.004 C 
HETATM    6  C   UNK N   1      -1.621  -1.296  -0.224  0.00  0.00     0.005 C 
ENDBRANCH   4   5
ENDBRANCH   3   4
ENDBRANCH   1   3
BRANCH   1   7
HETATM    7  O   UNK N   1       4.885  -0.104   1.035  0.00  0.00    -0.329 OA
HETATM    8  H   UNK N   1       5.375  -0.704   1.619  0.00  0.00     0.220 HD
ENDBRANCH   1   7
BRANCH   1   9
HETATM    9  O   UNK N   1       4.069  -1.205  -1.400  0.00  0.00    -0.329 OA
HETATM   10  H   UNK N   1       3.799  -1.718  -2.178  0.00  0.00     0.220 HD
ENDBRANCH   1   9
TORSDOF 5
