MODEL 1
REMARK VINA RESULT:      -5.2      0.000      0.000
REMARK  2 active torsions:
REMARK  status: ('A' for Active; 'I' for Inactive)
REMARK    1  A    between atoms: C_7  and  O_10 
REMARK    2  A    between atoms: C_8  and  N_9 
ROOT
HETATM    1  C   UNK N   1      30.723  17.083   4.644  0.00  0.00     0.001 A 
HETATM    2  C   UNK N   1      31.864  17.492   3.955  0.00  0.00     0.003 A 
HETATM    3  C   UNK N   1      30.774  16.906   6.027  0.00  0.00     0.013 A 
HETATM    4  C   UNK N   1      33.051  17.725   4.650  0.00  0.00     0.037 A 
HETATM    5  C   UNK N   1      31.970  17.117   6.734  0.00  0.00     0.014 A 
HETATM    6  C   UNK N   1      33.120  17.536   6.034  0.00  0.00     0.082 A 
HETATM    7  C   UNK N   1      31.953  16.926   8.217  0.00  0.00     0.219 C 
HETATM    8  C   UNK N   1      34.683  17.559   7.948  0.00  0.00     0.288 C 
HETATM    9  O   UNK N   1      34.298  17.806   6.646  0.00  0.00    -0.317 OA
HETATM   10  S   UNK N   1      33.565  16.521   8.951  0.00  0.00    -0.080 SA
ENDROOT
BRANCH   8  11
HETATM   11  N   UNK N   1      34.947  18.813   8.630  0.00  0.00    -0.397 N 
HETATM   12  H   UNK N   1      35.609  19.576   8.773  0.00  0.00     0.153 HD
HETATM   13  H   UNK N   1      34.129  19.016   9.206  0.00  0.00     0.153 HD
ENDBRANCH   8  11
BRANCH   7  14
HETATM   14  O   UNK N   1      31.374  18.026   8.849  0.00  0.00    -0.380 OA
HETATM   15  H   UNK N   1      31.291  18.973   9.045  0.00  0.00     0.211 HD
ENDBRANCH   7  14
TORSDOF 2
ENDMDL
MODEL 2
REMARK VINA RESULT:      -4.9     10.170     11.375
REMARK  2 active torsions:
REMARK  status: ('A' for Active; 'I' for Inactive)
REMARK    1  A    between atoms: C_7  and  O_10 
REMARK    2  A    between atoms: C_8  and  N_9 
ROOT
HETATM    1  C   UNK N   1      25.388  18.936   4.352  0.00  0.00     0.001 A 
HETATM    2  C   UNK N   1      25.743  19.978   3.498  0.00  0.00     0.003 A 
HETATM    3  C   UNK N   1      24.053  18.542   4.450  0.00  0.00     0.013 A 
HETATM    4  C   UNK N   1      24.764  20.623   2.742  0.00  0.00     0.037 A 
HETATM    5  C   UNK N   1      23.055  19.199   3.710  0.00  0.00     0.014 A 
HETATM    6  C   UNK N   1      23.419  20.249   2.843  0.00  0.00     0.082 A 
HETATM    7  C   UNK N   1      21.646  18.719   3.847  0.00  0.00     0.219 C 
HETATM    8  C   UNK N   1      21.148  20.847   2.074  0.00  0.00     0.288 C 
HETATM    9  O   UNK N   1      22.527  20.902   2.060  0.00  0.00    -0.317 OA
HETATM   10  S   UNK N   1      20.377  19.963   3.473  0.00  0.00    -0.080 SA
ENDROOT
BRANCH   8  11
HETATM   11  N   UNK N   1      20.664  20.310   0.815  0.00  0.00    -0.397 N 
HETATM   12  H   UNK N   1      20.214  19.523   0.347  0.00  0.00     0.153 HD
HETATM   13  H   UNK N   1      20.852  21.014   0.100  0.00  0.00     0.153 HD
ENDBRANCH   8  11
BRANCH   7  14
HETATM   14  O   UNK N   1      21.447  17.556   3.103  0.00  0.00    -0.380 OA
HETATM   15  H   UNK N   1      21.748  16.771   2.617  0.00  0.00     0.211 HD
ENDBRANCH   7  14
TORSDOF 2
ENDMDL
MODEL 3
REMARK VINA RESULT:      -4.8     10.071     11.760
REMARK  2 active torsions:
REMARK  status: ('A' for Active; 'I' for Inactive)
REMARK    1  A    between atoms: C_7  and  O_10 
REMARK    2  A    between atoms: C_8  and  N_9 
ROOT
HETATM    1  C   UNK N   1      35.316  11.740  18.966  0.00  0.00     0.001 A 
HETATM    2  C   UNK N   1      35.131  13.120  18.912  0.00  0.00     0.003 A 
HETATM    3  C   UNK N   1      35.590  11.030  17.798  0.00  0.00     0.013 A 
HETATM    4  C   UNK N   1      35.222  13.787  17.690  0.00  0.00     0.037 A 
HETATM    5  C   UNK N   1      35.663  11.688  16.558  0.00  0.00     0.014 A 
HETATM    6  C   UNK N   1      35.481  13.085  16.508  0.00  0.00     0.082 A 
HETATM    7  C   UNK N   1      35.976  10.872  15.346  0.00  0.00     0.219 C 
HETATM    8  C   UNK N   1      35.669  13.356  14.059  0.00  0.00     0.288 C 
HETATM    9  O   UNK N   1      35.581  13.801  15.363  0.00  0.00    -0.317 OA
HETATM   10  S   UNK N   1      35.383  11.576  13.779  0.00  0.00    -0.080 SA
ENDROOT
BRANCH   8  11
HETATM   11  N   UNK N   1      36.943  13.754  13.488  0.00  0.00    -0.397 N 
HETATM   12  H   UNK N   1      37.416  14.327  12.789  0.00  0.00     0.153 HD
HETATM   13  H   UNK N   1      37.668  13.252  14.001  0.00  0.00     0.153 HD
ENDBRANCH   8  11
BRANCH   7  14
HETATM   14  O   UNK N   1      37.340  10.584  15.284  0.00  0.00    -0.380 OA
HETATM   15  H   UNK N   1      38.101   9.984  15.232  0.00  0.00     0.211 HD
ENDBRANCH   7  14
TORSDOF 2
ENDMDL
MODEL 4
REMARK VINA RESULT:      -4.7      2.039      2.333
REMARK  2 active torsions:
REMARK  status: ('A' for Active; 'I' for Inactive)
REMARK    1  A    between atoms: C_7  and  O_10 
REMARK    2  A    between atoms: C_8  and  N_9 
ROOT
HETATM    1  C   UNK N   1      31.584  16.359   6.020  0.00  0.00     0.001 A 
HETATM    2  C   UNK N   1      32.562  17.324   5.783  0.00  0.00     0.003 A 
HETATM    3  C   UNK N   1      31.663  15.553   7.155  0.00  0.00     0.013 A 
HETATM    4  C   UNK N   1      33.616  17.481   6.685  0.00  0.00     0.037 A 
HETATM    5  C   UNK N   1      32.732  15.688   8.058  0.00  0.00     0.014 A 
HETATM    6  C   UNK N   1      33.716  16.669   7.819  0.00  0.00     0.082 A 
HETATM    7  C   UNK N   1      32.749  14.805   9.264  0.00  0.00     0.219 C 
HETATM    8  C   UNK N   1      35.172  16.154   9.749  0.00  0.00     0.288 C 
HETATM    9  O   UNK N   1      34.751  16.895   8.663  0.00  0.00    -0.317 OA
HETATM   10  S   UNK N   1      34.397  14.517   9.973  0.00  0.00    -0.080 SA
ENDROOT
BRANCH   8  11
HETATM   11  N   UNK N   1      35.041  16.941  10.962  0.00  0.00    -0.397 N 
HETATM   12  H   UNK N   1      34.650  17.781  11.389  0.00  0.00     0.153 HD
HETATM   13  H   UNK N   1      35.552  16.445  11.693  0.00  0.00     0.153 HD
ENDBRANCH   8  11
BRANCH   7  14
HETATM   14  O   UNK N   1      31.859  15.274  10.231  0.00  0.00    -0.380 OA
HETATM   15  H   UNK N   1      31.561  15.415  11.144  0.00  0.00     0.211 HD
ENDBRANCH   7  14
TORSDOF 2
ENDMDL
MODEL 5
REMARK VINA RESULT:      -4.7     10.535     12.206
REMARK  2 active torsions:
REMARK  status: ('A' for Active; 'I' for Inactive)
REMARK    1  A    between atoms: C_7  and  O_10 
REMARK    2  A    between atoms: C_8  and  N_9 
ROOT
HETATM    1  C   UNK N   1      35.134  13.396  18.809  0.00  0.00     0.001 A 
HETATM    2  C   UNK N   1      35.300  12.101  19.299  0.00  0.00     0.003 A 
HETATM    3  C   UNK N   1      35.274  13.644  17.444  0.00  0.00     0.013 A 
HETATM    4  C   UNK N   1      35.601  11.059  18.422  0.00  0.00     0.037 A 
HETATM    5  C   UNK N   1      35.599  12.606  16.554  0.00  0.00     0.014 A 
HETATM    6  C   UNK N   1      35.759  11.297  17.052  0.00  0.00     0.082 A 
HETATM    7  C   UNK N   1      35.717  12.936  15.101  0.00  0.00     0.219 C 
HETATM    8  C   UNK N   1      36.380  10.206  14.924  0.00  0.00     0.288 C 
HETATM    9  O   UNK N   1      36.026  10.233  16.258  0.00  0.00    -0.317 OA
HETATM   10  S   UNK N   1      36.778  11.810  14.148  0.00  0.00    -0.080 SA
ENDROOT
BRANCH   8  11
HETATM   11  N   UNK N   1      35.356   9.519  14.157  0.00  0.00    -0.397 N 
HETATM   12  H   UNK N   1      35.129   9.040  13.285  0.00  0.00     0.153 HD
HETATM   13  H   UNK N   1      34.511   9.512  14.729  0.00  0.00     0.153 HD
ENDBRANCH   8  11
BRANCH   7  14
HETATM   14  O   UNK N   1      34.455  13.054  14.518  0.00  0.00    -0.380 OA
HETATM   15  H   UNK N   1      33.707  12.732  13.991  0.00  0.00     0.211 HD
ENDBRANCH   7  14
TORSDOF 2
ENDMDL
MODEL 6
REMARK VINA RESULT:      -4.6      5.230      6.076
REMARK  2 active torsions:
REMARK  status: ('A' for Active; 'I' for Inactive)
REMARK    1  A    between atoms: C_7  and  O_10 
REMARK    2  A    between atoms: C_8  and  N_9 
ROOT
HETATM    1  C   UNK N   1      25.856  19.295   3.364  0.00  0.00     0.001 A 
HETATM    2  C   UNK N   1      26.143  20.546   3.908  0.00  0.00     0.003 A 
HETATM    3  C   UNK N   1      26.226  18.139   4.049  0.00  0.00     0.013 A 
HETATM    4  C   UNK N   1      26.798  20.637   5.136  0.00  0.00     0.037 A 
HETATM    5  C   UNK N   1      26.906  18.218   5.277  0.00  0.00     0.014 A 
HETATM    6  C   UNK N   1      27.189  19.485   5.827  0.00  0.00     0.082 A 
HETATM    7  C   UNK N   1      27.260  16.941   5.969  0.00  0.00     0.219 C 
HETATM    8  C   UNK N   1      28.416  18.711   7.827  0.00  0.00     0.288 C 
HETATM    9  O   UNK N   1      27.797  19.649   7.026  0.00  0.00    -0.317 OA
HETATM   10  S   UNK N   1      28.676  17.057   7.102  0.00  0.00    -0.080 SA
ENDROOT
BRANCH   8  11
HETATM   11  N   UNK N   1      27.710  18.599   9.090  0.00  0.00    -0.397 N 
HETATM   12  H   UNK N   1      27.120  18.013   9.682  0.00  0.00     0.153 HD
HETATM   13  H   UNK N   1      27.872  19.469   9.599  0.00  0.00     0.153 HD
ENDBRANCH   8  11
BRANCH   7  14
HETATM   14  O   UNK N   1      26.145  16.401   6.610  0.00  0.00    -0.380 OA
HETATM   15  H   UNK N   1      25.580  15.670   6.904  0.00  0.00     0.211 HD
ENDBRANCH   7  14
TORSDOF 2
ENDMDL
MODEL 7
REMARK VINA RESULT:      -4.6     10.344     11.600
REMARK  2 active torsions:
REMARK  status: ('A' for Active; 'I' for Inactive)
REMARK    1  A    between atoms: C_7  and  O_10 
REMARK    2  A    between atoms: C_8  and  N_9 
ROOT
HETATM    1  C   UNK N   1      22.356  12.000  11.716  0.00  0.00     0.001 A 
HETATM    2  C   UNK N   1      23.745  11.942  11.619  0.00  0.00     0.003 A 
HETATM    3  C   UNK N   1      21.608  12.527  10.664  0.00  0.00     0.013 A 
HETATM    4  C   UNK N   1      24.382  12.409  10.469  0.00  0.00     0.037 A 
HETATM    5  C   UNK N   1      22.240  13.020   9.510  0.00  0.00     0.014 A 
HETATM    6  C   UNK N   1      23.645  12.955   9.412  0.00  0.00     0.082 A 
HETATM    7  C   UNK N   1      21.380  13.557   8.411  0.00  0.00     0.219 C 
HETATM    8  C   UNK N   1      23.878  14.071   7.220  0.00  0.00     0.288 C 
HETATM    9  O   UNK N   1      24.328  13.364   8.317  0.00  0.00    -0.317 OA
HETATM   10  S   UNK N   1      22.195  14.767   7.328  0.00  0.00    -0.080 SA
ENDROOT
BRANCH   8  11
HETATM   11  N   UNK N   1      24.008  13.259   6.024  0.00  0.00    -0.397 N 
HETATM   12  H   UNK N   1      23.956  13.237   5.005  0.00  0.00     0.153 HD
HETATM   13  H   UNK N   1      24.255  12.317   6.329  0.00  0.00     0.153 HD
ENDBRANCH   8  11
BRANCH   7  14
HETATM   14  O   UNK N   1      20.819  12.516   7.671  0.00  0.00    -0.380 OA
HETATM   15  H   UNK N   1      20.570  12.071   6.845  0.00  0.00     0.211 HD
ENDBRANCH   7  14
TORSDOF 2
ENDMDL
MODEL 8
REMARK VINA RESULT:      -4.6     10.805     12.236
REMARK  2 active torsions:
REMARK  status: ('A' for Active; 'I' for Inactive)
REMARK    1  A    between atoms: C_7  and  O_10 
REMARK    2  A    between atoms: C_8  and  N_9 
ROOT
HETATM    1  C   UNK N   1      23.702  11.957  11.812  0.00  0.00     0.001 A 
HETATM    2  C   UNK N   1      22.325  12.012  12.022  0.00  0.00     0.003 A 
HETATM    3  C   UNK N   1      24.215  12.103  10.524  0.00  0.00     0.013 A 
HETATM    4  C   UNK N   1      21.465  12.215  10.942  0.00  0.00     0.037 A 
HETATM    5  C   UNK N   1      23.357  12.287   9.426  0.00  0.00     0.014 A 
HETATM    6  C   UNK N   1      21.965  12.348   9.642  0.00  0.00     0.082 A 
HETATM    7  C   UNK N   1      23.970  12.454   8.073  0.00  0.00     0.219 C 
HETATM    8  C   UNK N   1      21.272  12.578   7.282  0.00  0.00     0.288 C 
HETATM    9  O   UNK N   1      21.073  12.569   8.647  0.00  0.00    -0.317 OA
HETATM   10  S   UNK N   1      22.894  11.989   6.686  0.00  0.00    -0.080 SA
ENDROOT
BRANCH   8  11
HETATM   11  N   UNK N   1      20.995  13.901   6.752  0.00  0.00    -0.397 N 
HETATM   12  H   UNK N   1      21.166  14.563   5.995  0.00  0.00     0.153 HD
HETATM   13  H   UNK N   1      20.365  14.359   7.412  0.00  0.00     0.153 HD
ENDBRANCH   8  11
BRANCH   7  14
HETATM   14  O   UNK N   1      24.468  13.747   7.914  0.00  0.00    -0.380 OA
HETATM   15  H   UNK N   1      25.124  14.450   8.045  0.00  0.00     0.211 HD
ENDBRANCH   7  14
TORSDOF 2
ENDMDL
MODEL 9
REMARK VINA RESULT:      -4.6     16.504     17.660
REMARK  2 active torsions:
REMARK  status: ('A' for Active; 'I' for Inactive)
REMARK    1  A    between atoms: C_7  and  O_10 
REMARK    2  A    between atoms: C_8  and  N_9 
ROOT
HETATM    1  C   UNK N   1      26.187  27.133  -6.506  0.00  0.00     0.001 A 
HETATM    2  C   UNK N   1      25.858  26.532  -5.293  0.00  0.00     0.003 A 
HETATM    3  C   UNK N   1      26.204  26.372  -7.675  0.00  0.00     0.013 A 
HETATM    4  C   UNK N   1      25.545  25.173  -5.251  0.00  0.00     0.037 A 
HETATM    5  C   UNK N   1      25.912  24.998  -7.643  0.00  0.00     0.014 A 
HETATM    6  C   UNK N   1      25.573  24.395  -6.414  0.00  0.00     0.082 A 
HETATM    7  C   UNK N   1      25.931  24.244  -8.933  0.00  0.00     0.219 C 
HETATM    8  C   UNK N   1      25.328  22.079  -7.239  0.00  0.00     0.288 C 
HETATM    9  O   UNK N   1      25.233  23.089  -6.303  0.00  0.00    -0.317 OA
HETATM   10  S   UNK N   1      26.246  22.462  -8.769  0.00  0.00    -0.080 SA
ENDROOT
BRANCH   8  11
HETATM   11  N   UNK N   1      24.004  21.580  -7.561  0.00  0.00    -0.397 N 
HETATM   12  H   UNK N   1      23.049  21.434  -7.231  0.00  0.00     0.153 HD
HETATM   13  H   UNK N   1      24.043  21.229  -8.519  0.00  0.00     0.153 HD
ENDBRANCH   8  11
BRANCH   7  14
HETATM   14  O   UNK N   1      24.767  24.484  -9.663  0.00  0.00    -0.380 OA
HETATM   15  H   UNK N   1      24.105  25.057 -10.081  0.00  0.00     0.211 HD
ENDBRANCH   7  14
TORSDOF 2
ENDMDL
