MODEL 1
REMARK VINA RESULT:      -5.1      0.000      0.000
REMARK  4 active torsions:
REMARK  status: ('A' for Active; 'I' for Inactive)
REMARK    1  A    between atoms: C_2  and  O_1 
REMARK    2  A    between atoms: C_5  and  O_6 
REMARK    3  A    between atoms: C_7  and  O_8 
REMARK    4  A    between atoms: C_9  and  O_10 
ROOT
HETATM    1  C   UNK N   1      20.226  17.818   2.765  0.00  0.00     0.173 A 
HETATM    2  C   UNK N   1      20.691  18.587   3.996  0.00  0.00     0.205 A 
HETATM    3  O   UNK N   1      21.155  19.930   3.877  0.00  0.00    -0.356 OA
HETATM    4  C   UNK N   1      21.171  20.519   2.596  0.00  0.00     0.288 A 
HETATM    5  C   UNK N   1      20.731  19.846   1.299  0.00  0.00     0.204 A 
HETATM    6  C   UNK N   1      20.235  18.431   1.378  0.00  0.00     0.182 A 
ENDROOT
BRANCH   1   7
HETATM    7  O   UNK N   1      19.789  16.508   2.983  0.00  0.00    -0.391 OA
HETATM    8  H   UNK N   1      19.598  16.204   3.885  0.00  0.00     0.210 HD
ENDBRANCH   1   7
BRANCH   6   9
HETATM    9  O   UNK N   1      19.815  17.749   0.233  0.00  0.00    -0.390 OA
HETATM   10  H   UNK N   1      20.341  17.799  -0.581  0.00  0.00     0.210 HD
ENDBRANCH   6   9
BRANCH   5  11
HETATM   11  O   UNK N   1      20.790  20.527   0.083  0.00  0.00    -0.388 OA
HETATM   12  H   UNK N   1      20.778  20.032  -0.751  0.00  0.00     0.210 HD
ENDBRANCH   5  11
BRANCH   4  13
HETATM   13  O   UNK N   1      21.638  21.834   2.560  0.00  0.00    -0.369 OA
HETATM   14  H   UNK N   1      21.054  22.563   2.819  0.00  0.00     0.212 HD
ENDBRANCH   4  13
TORSDOF 4
ENDMDL
MODEL 2
REMARK VINA RESULT:      -5.0      0.788      2.407
REMARK  4 active torsions:
REMARK  status: ('A' for Active; 'I' for Inactive)
REMARK    1  A    between atoms: C_2  and  O_1 
REMARK    2  A    between atoms: C_5  and  O_6 
REMARK    3  A    between atoms: C_7  and  O_8 
REMARK    4  A    between atoms: C_9  and  O_10 
ROOT
HETATM    1  C   UNK N   1      20.418  18.230   1.041  0.00  0.00     0.173 A 
HETATM    2  C   UNK N   1      20.362  17.341   2.278  0.00  0.00     0.205 A 
HETATM    3  O   UNK N   1      20.580  17.892   3.575  0.00  0.00    -0.356 OA
HETATM    4  C   UNK N   1      20.847  19.273   3.676  0.00  0.00     0.288 A 
HETATM    5  C   UNK N   1      20.927  20.254   2.511  0.00  0.00     0.204 A 
HETATM    6  C   UNK N   1      20.703  19.717   1.126  0.00  0.00     0.182 A 
ENDROOT
BRANCH   1   7
HETATM    7  O   UNK N   1      20.191  17.597  -0.185  0.00  0.00    -0.391 OA
HETATM    8  H   UNK N   1      20.677  17.883  -0.976  0.00  0.00     0.210 HD
ENDBRANCH   1   7
BRANCH   6   9
HETATM    9  O   UNK N   1      20.761  20.555   0.009  0.00  0.00    -0.390 OA
HETATM   10  H   UNK N   1      21.428  20.401  -0.678  0.00  0.00     0.210 HD
ENDBRANCH   6   9
BRANCH   5  11
HETATM   11  O   UNK N   1      21.198  21.605   2.729  0.00  0.00    -0.388 OA
HETATM   12  H   UNK N   1      21.017  22.255   2.032  0.00  0.00     0.210 HD
ENDBRANCH   5  11
BRANCH   4  13
HETATM   13  O   UNK N   1      21.049  19.738   4.976  0.00  0.00    -0.369 OA
HETATM   14  H   UNK N   1      20.604  19.305   5.721  0.00  0.00     0.212 HD
ENDBRANCH   4  13
TORSDOF 4
ENDMDL
MODEL 3
REMARK VINA RESULT:      -5.0      0.675      3.266
REMARK  4 active torsions:
REMARK  status: ('A' for Active; 'I' for Inactive)
REMARK    1  A    between atoms: C_2  and  O_1 
REMARK    2  A    between atoms: C_5  and  O_6 
REMARK    3  A    between atoms: C_7  and  O_8 
REMARK    4  A    between atoms: C_9  and  O_10 
ROOT
HETATM    1  C   UNK N   1      21.067  20.391   2.574  0.00  0.00     0.173 A 
HETATM    2  C   UNK N   1      20.976  19.616   3.884  0.00  0.00     0.205 A 
HETATM    3  O   UNK N   1      20.524  18.265   3.895  0.00  0.00    -0.356 OA
HETATM    4  C   UNK N   1      20.166  17.672   2.666  0.00  0.00     0.288 A 
HETATM    5  C   UNK N   1      20.216  18.349   1.300  0.00  0.00     0.204 A 
HETATM    6  C   UNK N   1      20.687  19.774   1.242  0.00  0.00     0.182 A 
ENDROOT
BRANCH   1   7
HETATM    7  O   UNK N   1      21.522  21.710   2.667  0.00  0.00    -0.391 OA
HETATM    8  H   UNK N   1      22.062  21.985   3.425  0.00  0.00     0.210 HD
ENDBRANCH   1   7
BRANCH   6   9
HETATM    9  O   UNK N   1      20.760  20.460   0.027  0.00  0.00    -0.390 OA
HETATM   10  H   UNK N   1      20.991  21.403   0.016  0.00  0.00     0.210 HD
ENDBRANCH   6   9
BRANCH   5  11
HETATM   11  O   UNK N   1      19.836  17.664   0.146  0.00  0.00    -0.388 OA
HETATM   12  H   UNK N   1      18.902  17.455  -0.009  0.00  0.00     0.210 HD
ENDBRANCH   5  11
BRANCH   4  13
HETATM   13  O   UNK N   1      19.733  16.348   2.757  0.00  0.00    -0.369 OA
HETATM   14  H   UNK N   1      19.417  15.885   1.966  0.00  0.00     0.212 HD
ENDBRANCH   4  13
TORSDOF 4
ENDMDL
MODEL 4
REMARK VINA RESULT:      -4.7      9.614     11.668
REMARK  4 active torsions:
REMARK  status: ('A' for Active; 'I' for Inactive)
REMARK    1  A    between atoms: C_2  and  O_1 
REMARK    2  A    between atoms: C_5  and  O_6 
REMARK    3  A    between atoms: C_7  and  O_8 
REMARK    4  A    between atoms: C_9  and  O_10 
ROOT
HETATM    1  C   UNK N   1      21.428  12.954   9.934  0.00  0.00     0.173 A 
HETATM    2  C   UNK N   1      22.747  13.362   9.286  0.00  0.00     0.205 A 
HETATM    3  O   UNK N   1      23.987  13.073   9.927  0.00  0.00    -0.356 OA
HETATM    4  C   UNK N   1      23.956  12.404  11.168  0.00  0.00     0.288 A 
HETATM    5  C   UNK N   1      22.701  11.950  11.907  0.00  0.00     0.204 A 
HETATM    6  C   UNK N   1      21.371  12.234  11.267  0.00  0.00     0.182 A 
ENDROOT
BRANCH   1   7
HETATM    7  O   UNK N   1      20.266  13.281   9.229  0.00  0.00    -0.391 OA
HETATM    8  H   UNK N   1      19.644  13.930   9.594  0.00  0.00     0.210 HD
ENDBRANCH   1   7
BRANCH   6   9
HETATM    9  O   UNK N   1      20.178  11.849  11.883  0.00  0.00    -0.390 OA
HETATM   10  H   UNK N   1      19.930  12.230  12.740  0.00  0.00     0.210 HD
ENDBRANCH   6   9
BRANCH   5  11
HETATM   11  O   UNK N   1      22.789  11.293  13.134  0.00  0.00    -0.388 OA
HETATM   12  H   UNK N   1      23.654  11.162  13.553  0.00  0.00     0.210 HD
ENDBRANCH   5  11
BRANCH   4  13
HETATM   13  O   UNK N   1      25.208  12.156  11.733  0.00  0.00    -0.369 OA
HETATM   14  H   UNK N   1      25.285  11.974  12.683  0.00  0.00     0.212 HD
ENDBRANCH   4  13
TORSDOF 4
ENDMDL
MODEL 5
REMARK VINA RESULT:      -4.7     14.156     15.109
REMARK  4 active torsions:
REMARK  status: ('A' for Active; 'I' for Inactive)
REMARK    1  A    between atoms: C_2  and  O_1 
REMARK    2  A    between atoms: C_5  and  O_6 
REMARK    3  A    between atoms: C_7  and  O_8 
REMARK    4  A    between atoms: C_9  and  O_10 
ROOT
HETATM    1  C   UNK N   1      33.293  15.928   7.234  0.00  0.00     0.173 A 
HETATM    2  C   UNK N   1      33.655  17.096   6.323  0.00  0.00     0.205 A 
HETATM    3  O   UNK N   1      34.368  18.219   6.837  0.00  0.00    -0.356 OA
HETATM    4  C   UNK N   1      34.724  18.215   8.201  0.00  0.00     0.288 A 
HETATM    5  C   UNK N   1      34.415  17.105   9.202  0.00  0.00     0.204 A 
HETATM    6  C   UNK N   1      33.665  15.903   8.704  0.00  0.00     0.182 A 
ENDROOT
BRANCH   1   7
HETATM    7  O   UNK N   1      32.594  14.874   6.638  0.00  0.00    -0.391 OA
HETATM    8  H   UNK N   1      32.742  14.661   5.702  0.00  0.00     0.210 HD
ENDBRANCH   1   7
BRANCH   6   9
HETATM    9  O   UNK N   1      33.346  14.846   9.560  0.00  0.00    -0.390 OA
HETATM   10  H   UNK N   1      33.327  13.937   9.222  0.00  0.00     0.210 HD
ENDBRANCH   6   9
BRANCH   5  11
HETATM   11  O   UNK N   1      34.817  17.208  10.533  0.00  0.00    -0.388 OA
HETATM   12  H   UNK N   1      34.220  16.927  11.244  0.00  0.00     0.210 HD
ENDBRANCH   5  11
BRANCH   4  13
HETATM   13  O   UNK N   1      35.419  19.347   8.630  0.00  0.00    -0.369 OA
HETATM   14  H   UNK N   1      36.057  19.777   8.040  0.00  0.00     0.212 HD
ENDBRANCH   4  13
TORSDOF 4
ENDMDL
MODEL 6
REMARK VINA RESULT:      -4.7      9.796     11.690
REMARK  4 active torsions:
REMARK  status: ('A' for Active; 'I' for Inactive)
REMARK    1  A    between atoms: C_2  and  O_1 
REMARK    2  A    between atoms: C_5  and  O_6 
REMARK    3  A    between atoms: C_7  and  O_8 
REMARK    4  A    between atoms: C_9  and  O_10 
ROOT
HETATM    1  C   UNK N   1      24.032  12.353  11.155  0.00  0.00     0.173 A 
HETATM    2  C   UNK N   1      23.971  13.016   9.783  0.00  0.00     0.205 A 
HETATM    3  O   UNK N   1      22.716  13.273   9.159  0.00  0.00    -0.356 OA
HETATM    4  C   UNK N   1      21.542  12.898   9.844  0.00  0.00     0.288 A 
HETATM    5  C   UNK N   1      21.482  12.232  11.215  0.00  0.00     0.204 A 
HETATM    6  C   UNK N   1      22.782  11.942  11.909  0.00  0.00     0.182 A 
ENDROOT
BRANCH   1   7
HETATM    7  O   UNK N   1      25.308  12.142  11.684  0.00  0.00    -0.391 OA
HETATM    8  H   UNK N   1      25.590  12.625  12.477  0.00  0.00     0.210 HD
ENDBRANCH   1   7
BRANCH   6   9
HETATM    9  O   UNK N   1      22.807  11.333  13.167  0.00  0.00    -0.390 OA
HETATM   10  H   UNK N   1      23.562  10.780  13.422  0.00  0.00     0.210 HD
ENDBRANCH   6   9
BRANCH   5  11
HETATM   11  O   UNK N   1      20.259  11.904  11.799  0.00  0.00    -0.388 OA
HETATM   12  H   UNK N   1      19.603  12.597  11.972  0.00  0.00     0.210 HD
ENDBRANCH   5  11
BRANCH   4  13
HETATM   13  O   UNK N   1      20.353  13.182   9.170  0.00  0.00    -0.369 OA
HETATM   14  H   UNK N   1      19.688  13.757   9.580  0.00  0.00     0.212 HD
ENDBRANCH   4  13
TORSDOF 4
ENDMDL
MODEL 7
REMARK VINA RESULT:      -4.6     14.432     15.646
REMARK  4 active torsions:
REMARK  status: ('A' for Active; 'I' for Inactive)
REMARK    1  A    between atoms: C_2  and  O_1 
REMARK    2  A    between atoms: C_5  and  O_6 
REMARK    3  A    between atoms: C_7  and  O_8 
REMARK    4  A    between atoms: C_9  and  O_10 
ROOT
HETATM    1  C   UNK N   1      34.051  17.232   7.126  0.00  0.00     0.173 A 
HETATM    2  C   UNK N   1      33.377  15.866   7.056  0.00  0.00     0.205 A 
HETATM    3  O   UNK N   1      33.280  15.047   8.219  0.00  0.00    -0.356 OA
HETATM    4  C   UNK N   1      33.822  15.536   9.426  0.00  0.00     0.288 A 
HETATM    5  C   UNK N   1      34.516  16.882   9.612  0.00  0.00     0.204 A 
HETATM    6  C   UNK N   1      34.641  17.777   8.412  0.00  0.00     0.182 A 
ENDROOT
BRANCH   1   7
HETATM    7  O   UNK N   1      34.098  17.960   5.934  0.00  0.00    -0.391 OA
HETATM    8  H   UNK N   1      33.435  18.647   5.759  0.00  0.00     0.210 HD
ENDBRANCH   1   7
BRANCH   6   9
HETATM    9  O   UNK N   1      35.264  19.024   8.505  0.00  0.00    -0.390 OA
HETATM   10  H   UNK N   1      34.825  19.752   8.973  0.00  0.00     0.210 HD
ENDBRANCH   6   9
BRANCH   5  11
HETATM   11  O   UNK N   1      35.017  17.264  10.857  0.00  0.00    -0.388 OA
HETATM   12  H   UNK N   1      34.413  17.582  11.546  0.00  0.00     0.210 HD
ENDBRANCH   5  11
BRANCH   4  13
HETATM   13  O   UNK N   1      33.688  14.679  10.519  0.00  0.00    -0.369 OA
HETATM   14  H   UNK N   1      34.375  14.655  11.204  0.00  0.00     0.212 HD
ENDBRANCH   4  13
TORSDOF 4
ENDMDL
MODEL 8
REMARK VINA RESULT:      -4.6     14.149     15.155
REMARK  4 active torsions:
REMARK  status: ('A' for Active; 'I' for Inactive)
REMARK    1  A    between atoms: C_2  and  O_1 
REMARK    2  A    between atoms: C_5  and  O_6 
REMARK    3  A    between atoms: C_7  and  O_8 
REMARK    4  A    between atoms: C_9  and  O_10 
ROOT
HETATM    1  C   UNK N   1      33.477  15.742   9.365  0.00  0.00     0.173 A 
HETATM    2  C   UNK N   1      32.819  15.333   8.053  0.00  0.00     0.205 A 
HETATM    3  O   UNK N   1      33.016  16.108   6.872  0.00  0.00    -0.356 OA
HETATM    4  C   UNK N   1      33.832  17.255   6.957  0.00  0.00     0.288 A 
HETATM    5  C   UNK N   1      34.539  17.757   8.212  0.00  0.00     0.204 A 
HETATM    6  C   UNK N   1      34.359  16.971   9.479  0.00  0.00     0.182 A 
ENDROOT
BRANCH   1   7
HETATM    7  O   UNK N   1      33.224  14.919  10.466  0.00  0.00    -0.391 OA
HETATM    8  H   UNK N   1      33.033  15.312  11.333  0.00  0.00     0.210 HD
ENDBRANCH   1   7
BRANCH   6   9
HETATM    9  O   UNK N   1      34.975  17.368  10.668  0.00  0.00    -0.390 OA
HETATM   10  H   UNK N   1      34.443  17.745  11.387  0.00  0.00     0.210 HD
ENDBRANCH   6   9
BRANCH   5  11
HETATM   11  O   UNK N   1      35.326  18.909   8.179  0.00  0.00    -0.388 OA
HETATM   12  H   UNK N   1      35.798  19.196   8.976  0.00  0.00     0.210 HD
ENDBRANCH   5  11
BRANCH   4  13
HETATM   13  O   UNK N   1      33.978  17.961   5.762  0.00  0.00    -0.369 OA
HETATM   14  H   UNK N   1      33.581  17.620   4.945  0.00  0.00     0.212 HD
ENDBRANCH   4  13
TORSDOF 4
ENDMDL
MODEL 9
REMARK VINA RESULT:      -4.5      9.899     11.626
REMARK  4 active torsions:
REMARK  status: ('A' for Active; 'I' for Inactive)
REMARK    1  A    between atoms: C_2  and  O_1 
REMARK    2  A    between atoms: C_5  and  O_6 
REMARK    3  A    between atoms: C_7  and  O_8 
REMARK    4  A    between atoms: C_9  and  O_10 
ROOT
HETATM    1  C   UNK N   1      21.419  12.186  11.221  0.00  0.00     0.173 A 
HETATM    2  C   UNK N   1      21.335  12.799   9.827  0.00  0.00     0.205 A 
HETATM    3  O   UNK N   1      22.520  13.174   9.130  0.00  0.00    -0.356 OA
HETATM    4  C   UNK N   1      23.762  12.961   9.764  0.00  0.00     0.288 A 
HETATM    5  C   UNK N   1      23.965  12.358  11.150  0.00  0.00     0.204 A 
HETATM    6  C   UNK N   1      22.743  11.948  11.921  0.00  0.00     0.182 A 
ENDROOT
BRANCH   1   7
HETATM    7  O   UNK N   1      20.202  11.851  11.823  0.00  0.00    -0.391 OA
HETATM    8  H   UNK N   1      20.193  11.448  12.706  0.00  0.00     0.210 HD
ENDBRANCH   1   7
BRANCH   6   9
HETATM    9  O   UNK N   1      22.849  11.389  13.197  0.00  0.00    -0.390 OA
HETATM   10  H   UNK N   1      22.065  11.324  13.765  0.00  0.00     0.210 HD
ENDBRANCH   6   9
BRANCH   5  11
HETATM   11  O   UNK N   1      25.245  12.194  11.680  0.00  0.00    -0.388 OA
HETATM   12  H   UNK N   1      25.571  11.306  11.895  0.00  0.00     0.210 HD
ENDBRANCH   5  11
BRANCH   4  13
HETATM   13  O   UNK N   1      24.876  13.353   9.019  0.00  0.00    -0.369 OA
HETATM   14  H   UNK N   1      25.536  13.947   9.409  0.00  0.00     0.212 HD
ENDBRANCH   4  13
TORSDOF 4
ENDMDL
