MODEL 1
REMARK VINA RESULT:      -8.1      0.000      0.000
REMARK WARNING: 32 MAX_TORS EXCEEDED!!!
REMARK  33 active torsions:
REMARK  status: ('A' for Active; 'I' for Inactive)
REMARK    1  A    between atoms: O_2  and  C_3 
REMARK    2  A    between atoms: C_5  and  C_6 
REMARK    3  A    between atoms: C_6  and  C_7 
REMARK    4  A    between atoms: C_7  and  C_8 
REMARK    5  A    between atoms: C_8  and  S_10 
REMARK    6  A    between atoms: S_10  and  C_11 
REMARK    7  A    between atoms: C_11  and  C_12 
REMARK    8  A    between atoms: C_12  and  N_13 
REMARK       I    between atoms: N_13  and  C_14 
REMARK    9  A    between atoms: C_14  and  C_16 
REMARK   10  A    between atoms: C_16  and  C_17 
REMARK   11  A    between atoms: C_17  and  N_18 
REMARK       I    between atoms: N_18  and  C_19 
REMARK   12  A    between atoms: C_19  and  C_21 
REMARK   13  A    between atoms: C_21  and  O_22 
REMARK   14  A    between atoms: C_21  and  C_23 
REMARK   15  A    between atoms: C_23  and  C_26 
REMARK   16  A    between atoms: C_26  and  O_27 
REMARK   17  A    between atoms: P_28  and  O_27 
REMARK   18  A    between atoms: P_28  and  O_29 
REMARK   19  A    between atoms: P_28  and  O_31 
REMARK   20  A    between atoms: P_32  and  O_31 
REMARK   21  A    between atoms: P_32  and  O_33 
REMARK   22  A    between atoms: P_32  and  O_35 
REMARK   23  A    between atoms: O_35  and  C_36 
REMARK   24  A    between atoms: C_37  and  C_36 
REMARK   25  A    between atoms: C_39  and  N_48 
REMARK   26  A    between atoms: C_40  and  O_41 
REMARK   27  A    between atoms: C_42  and  O_43 
REMARK   28  A    between atoms: O_43  and  P_44 
REMARK   29  A    between atoms: P_44  and  O_45 
REMARK   30  A    between atoms: P_44  and  O_46 
REMARK   31  A    between atoms: C_53  and  N_54 
REMARK   32  A    between atoms: C_62  and  O_63 
REMARK   33  A    between atoms: C_64  and  O_65 
ROOT
HETATM    1  P   UNK N   1      33.436  12.483   7.924  0.00  0.00     0.401 P 
HETATM    2  O   UNK N   1      32.315  13.219   8.707  0.00  0.00    -0.631 OA
ENDROOT
BRANCH   1   3
HETATM    3  O   UNK N   1      34.194  13.635   6.865  0.00  0.00    -0.296 OA
BRANCH   3   4
HETATM    4  C   UNK N   1      33.236  14.589   6.507  0.00  0.00     0.192 C 
BRANCH   4   5
HETATM    5  C   UNK N   1      33.943  15.874   6.069  0.00  0.00     0.009 C 
HETATM    6  C   UNK N   1      33.414  16.291   4.710  0.00  0.00     0.020 C 
HETATM    7  C   UNK N   1      35.420  15.581   5.907  0.00  0.00     0.020 C 
BRANCH   5   8
HETATM    8  C   UNK N   1      33.659  17.000   7.091  0.00  0.00     0.219 C 
BRANCH   8   9
HETATM    9  C   UNK N   1      33.472  16.543   8.521  0.00  0.00     0.247 C 
HETATM   10  N   UNK N   1      32.266  16.542   9.132  0.00  0.00    -0.358 N 
HETATM   11  H   UNK N   1      32.223  16.310  10.086  0.00  0.00     0.162 HD
HETATM   12  O   UNK N   1      34.449  16.161   9.145  0.00  0.00    -0.271 OA
BRANCH  10  13
HETATM   13  C   UNK N   1      31.040  16.867   8.447  0.00  0.00     0.132 C 
BRANCH  13  14
HETATM   14  C   UNK N   1      30.259  17.993   9.122  0.00  0.00     0.122 C 
BRANCH  14  15
HETATM   15  C   UNK N   1      28.796  17.747   9.382  0.00  0.00     0.219 C 
HETATM   16  N   UNK N   1      27.804  18.354   8.669  0.00  0.00    -0.360 N 
HETATM   17  H   UNK N   1      26.880  18.218   8.982  0.00  0.00     0.162 HD
HETATM   18  O   UNK N   1      28.494  17.000  10.299  0.00  0.00    -0.274 OA
BRANCH  16  19
HETATM   19  C   UNK N   1      27.989  19.183   7.491  0.00  0.00     0.133 C 
BRANCH  19  20
HETATM   20  C   UNK N   1      27.672  18.454   6.193  0.00  0.00     0.102 C 
BRANCH  20  21
HETATM   21  S   UNK N   1      28.147  19.425   4.732  0.00  0.00    -0.086 SA
BRANCH  21  22
HETATM   22  C   UNK N   1      26.686  20.482   4.728  0.00  0.00     0.208 C 
HETATM   23  O   UNK N   1      26.669  21.454   5.462  0.00  0.00    -0.281 OA
BRANCH  22  24
HETATM   24  C   UNK N   1      25.526  20.152   3.863  0.00  0.00     0.063 C 
BRANCH  24  25
HETATM   25  C   UNK N   1      24.500  19.325   4.129  0.00  0.00     0.016 C 
BRANCH  25  26
HETATM   26  C   UNK N   1      23.117  19.374   3.613  0.00  0.00    -0.031 A 
HETATM   27  C   UNK N   1      22.275  18.297   3.897  0.00  0.00     0.051 A 
HETATM   28  C   UNK N   1      20.952  18.273   3.446  0.00  0.00     0.104 A 
HETATM   29  C   UNK N   1      20.458  19.379   2.706  0.00  0.00     0.132 A 
HETATM   30  C   UNK N   1      21.303  20.465   2.434  0.00  0.00     0.102 A 
HETATM   31  C   UNK N   1      22.621  20.454   2.882  0.00  0.00     0.051 A 
BRANCH  28  32
HETATM   32  O   UNK N   1      20.207  17.178   3.748  0.00  0.00    -0.353 OA
HETATM   33  C   UNK N   1      20.176  16.009   3.025  0.00  0.00     0.210 C 
ENDBRANCH  28  32
BRANCH  29  34
HETATM   34  O   UNK N   1      19.189  19.412   2.260  0.00  0.00    -0.356 OA
HETATM   35  H   UNK N   1      18.616  18.671   2.278  0.00  0.00     0.218 HD
ENDBRANCH  29  34
BRANCH  30  36
HETATM   36  O   UNK N   1      20.847  21.523   1.743  0.00  0.00    -0.358 OA
HETATM   37  H   UNK N   1      21.168  21.833   0.918  0.00  0.00     0.217 HD
ENDBRANCH  30  36
ENDBRANCH  25  26
ENDBRANCH  24  25
ENDBRANCH  22  24
ENDBRANCH  21  22
ENDBRANCH  20  21
ENDBRANCH  19  20
ENDBRANCH  16  19
ENDBRANCH  14  15
ENDBRANCH  13  14
ENDBRANCH  10  13
ENDBRANCH   8   9
BRANCH   8  38
HETATM   38  O   UNK N   1      34.539  18.083   6.990  0.00  0.00    -0.385 OA
HETATM   39  H   UNK N   1      35.477  17.946   6.784  0.00  0.00     0.210 HD
ENDBRANCH   8  38
ENDBRANCH   5   8
ENDBRANCH   4   5
ENDBRANCH   3   4
ENDBRANCH   1   3
BRANCH   1  40
HETATM   40  O   UNK N   1      32.642  11.266   6.976  0.00  0.00    -0.307 OA
HETATM   41  H   UNK N   1      32.315  10.766   6.213  0.00  0.00     0.222 HD
ENDBRANCH   1  40
BRANCH   1  42
HETATM   42  O   UNK N   1      34.510  11.744   9.082  0.00  0.00    -0.195 OA
BRANCH  42  43
HETATM   43  P   UNK N   1      33.666  10.393   9.790  0.00  0.00     0.401 P 
HETATM   44  O   UNK N   1      33.888   9.172   8.854  0.00  0.00    -0.631 OA
BRANCH  43  45
HETATM   45  O   UNK N   1      31.956  10.690   9.776  0.00  0.00    -0.307 OA
HETATM   46  H   UNK N   1      31.123  11.181   9.852  0.00  0.00     0.222 HD
ENDBRANCH  43  45
BRANCH  43  47
HETATM   47  O   UNK N   1      34.195   9.992  11.417  0.00  0.00    -0.294 OA
BRANCH  47  48
HETATM   48  C   UNK N   1      35.436  10.588  11.636  0.00  0.00     0.215 C 
BRANCH  48  49
HETATM   49  C   UNK N   1      35.247  11.625  12.713  0.00  0.00     0.180 C 
HETATM   50  O   UNK N   1      35.598  11.183  13.982  0.00  0.00    -0.353 OA
HETATM   51  C   UNK N   1      35.315  12.364  14.663  0.00  0.00     0.262 C 
HETATM   52  C   UNK N   1      35.615  13.613  13.840  0.00  0.00     0.199 C 
HETATM   53  C   UNK N   1      35.944  12.957  12.520  0.00  0.00     0.197 C 
BRANCH  51  54
HETATM   54  N   UNK N   1      35.349  12.307  16.114  0.00  0.00    -0.297 N 
HETATM   55  C   UNK N   1      34.922  13.288  16.945  0.00  0.00     0.188 A 
HETATM   56  N   UNK N   1      35.068  12.930  18.251  0.00  0.00    -0.346 N 
HETATM   57  C   UNK N   1      35.597  11.695  18.197  0.00  0.00     0.122 A 
ATOM     58  HN  UNK N   1      34.830  13.473  19.080  1.00  0.00     0.167 HD
HETATM   59  C   UNK N   1      35.960  10.837  19.220  0.00  0.00     0.131 A 
HETATM   60  C   UNK N   1      35.761  11.320  16.915  0.00  0.00     0.142 A 
HETATM   61  N   UNK N   1      36.484   9.621  18.883  0.00  0.00    -0.337 N 
HETATM   62  C   UNK N   1      36.639   9.259  17.567  0.00  0.00     0.183 A 
ATOM     63  HN  UNK N   1      36.764   8.972  19.619  1.00  0.00     0.168 HD
HETATM   64  N   UNK N   1      36.270  10.115  16.566  0.00  0.00    -0.336 N 
ATOM     65  HN  UNK N   1      36.374   9.853  15.585  1.00  0.00     0.168 HD
BRANCH  59  66
HETATM   66  N   UNK N   1      35.798  11.202  20.572  0.00  0.00    -0.383 N 
HETATM   67  H   UNK N   1      35.823  12.150  20.837  0.00  0.00     0.157 HD
HETATM   68  H   UNK N   1      35.660  10.506  21.254  0.00  0.00     0.157 HD
ENDBRANCH  59  66
ENDBRANCH  51  54
BRANCH  52  69
HETATM   69  O   UNK N   1      36.737  14.302  14.292  0.00  0.00    -0.388 OA
HETATM   70  H   UNK N   1      36.758  15.265  14.403  0.00  0.00     0.210 HD
ENDBRANCH  52  69
BRANCH  53  71
HETATM   71  O   UNK N   1      35.418  13.678  11.444  0.00  0.00    -0.286 OA
BRANCH  71  72
HETATM   72  P   UNK N   1      36.783  14.262  10.522  0.00  0.00     0.391 P 
HETATM   73  O   UNK N   1      38.029  13.427  10.923  0.00  0.00    -0.632 OA
BRANCH  72  74
HETATM   74  O   UNK N   1      36.528  14.000   8.826  0.00  0.00    -0.307 OA
HETATM   75  H   UNK N   1      36.700  13.389   8.092  0.00  0.00     0.222 HD
ENDBRANCH  72  74
BRANCH  72  76
HETATM   76  O   UNK N   1      37.166  15.930  10.824  0.00  0.00    -0.307 OA
HETATM   77  H   UNK N   1      37.734  16.530  10.316  0.00  0.00     0.222 HD
ENDBRANCH  72  76
ENDBRANCH  71  72
ENDBRANCH  53  71
ENDBRANCH  48  49
ENDBRANCH  47  48
ENDBRANCH  43  47
ENDBRANCH  42  43
ENDBRANCH   1  42
TORSDOF 33
ENDMDL
MODEL 2
REMARK VINA RESULT:      -8.0      8.973     13.176
REMARK WARNING: 32 MAX_TORS EXCEEDED!!!
REMARK  33 active torsions:
REMARK  status: ('A' for Active; 'I' for Inactive)
REMARK    1  A    between atoms: O_2  and  C_3 
REMARK    2  A    between atoms: C_5  and  C_6 
REMARK    3  A    between atoms: C_6  and  C_7 
REMARK    4  A    between atoms: C_7  and  C_8 
REMARK    5  A    between atoms: C_8  and  S_10 
REMARK    6  A    between atoms: S_10  and  C_11 
REMARK    7  A    between atoms: C_11  and  C_12 
REMARK    8  A    between atoms: C_12  and  N_13 
REMARK       I    between atoms: N_13  and  C_14 
REMARK    9  A    between atoms: C_14  and  C_16 
REMARK   10  A    between atoms: C_16  and  C_17 
REMARK   11  A    between atoms: C_17  and  N_18 
REMARK       I    between atoms: N_18  and  C_19 
REMARK   12  A    between atoms: C_19  and  C_21 
REMARK   13  A    between atoms: C_21  and  O_22 
REMARK   14  A    between atoms: C_21  and  C_23 
REMARK   15  A    between atoms: C_23  and  C_26 
REMARK   16  A    between atoms: C_26  and  O_27 
REMARK   17  A    between atoms: P_28  and  O_27 
REMARK   18  A    between atoms: P_28  and  O_29 
REMARK   19  A    between atoms: P_28  and  O_31 
REMARK   20  A    between atoms: P_32  and  O_31 
REMARK   21  A    between atoms: P_32  and  O_33 
REMARK   22  A    between atoms: P_32  and  O_35 
REMARK   23  A    between atoms: O_35  and  C_36 
REMARK   24  A    between atoms: C_37  and  C_36 
REMARK   25  A    between atoms: C_39  and  N_48 
REMARK   26  A    between atoms: C_40  and  O_41 
REMARK   27  A    between atoms: C_42  and  O_43 
REMARK   28  A    between atoms: O_43  and  P_44 
REMARK   29  A    between atoms: P_44  and  O_45 
REMARK   30  A    between atoms: P_44  and  O_46 
REMARK   31  A    between atoms: C_53  and  N_54 
REMARK   32  A    between atoms: C_62  and  O_63 
REMARK   33  A    between atoms: C_64  and  O_65 
ROOT
HETATM    1  P   UNK N   1      20.160  16.521   8.132  0.00  0.00     0.401 P 
HETATM    2  O   UNK N   1      19.725  17.681   9.069  0.00  0.00    -0.631 OA
ENDROOT
BRANCH   1   3
HETATM    3  O   UNK N   1      20.838  15.261   9.119  0.00  0.00    -0.296 OA
BRANCH   3   4
HETATM    4  C   UNK N   1      22.069  14.892   8.566  0.00  0.00     0.192 C 
BRANCH   4   5
HETATM    5  C   UNK N   1      22.272  13.386   8.744  0.00  0.00     0.009 C 
HETATM    6  C   UNK N   1      21.075  12.654   8.170  0.00  0.00     0.020 C 
HETATM    7  C   UNK N   1      22.322  13.078  10.226  0.00  0.00     0.020 C 
BRANCH   5   8
HETATM    8  C   UNK N   1      23.549  12.940   7.992  0.00  0.00     0.219 C 
BRANCH   8   9
HETATM    9  C   UNK N   1      24.826  13.626   8.423  0.00  0.00     0.247 C 
HETATM   10  N   UNK N   1      25.476  14.513   7.636  0.00  0.00    -0.358 N 
HETATM   11  H   UNK N   1      26.343  14.864   7.941  0.00  0.00     0.162 HD
HETATM   12  O   UNK N   1      25.286  13.367   9.524  0.00  0.00    -0.271 OA
BRANCH  10  13
HETATM   13  C   UNK N   1      24.956  14.968   6.372  0.00  0.00     0.132 C 
BRANCH  13  14
HETATM   14  C   UNK N   1      26.000  15.688   5.520  0.00  0.00     0.122 C 
BRANCH  14  15
HETATM   15  C   UNK N   1      27.440  15.305   5.739  0.00  0.00     0.219 C 
HETATM   16  N   UNK N   1      28.293  16.037   6.512  0.00  0.00    -0.360 N 
HETATM   17  H   UNK N   1      29.241  15.771   6.507  0.00  0.00     0.162 HD
HETATM   18  O   UNK N   1      27.864  14.315   5.164  0.00  0.00    -0.274 OA
BRANCH  16  19
HETATM   19  C   UNK N   1      27.927  17.173   7.341  0.00  0.00     0.133 C 
BRANCH  19  20
HETATM   20  C   UNK N   1      28.656  18.451   6.954  0.00  0.00     0.102 C 
BRANCH  20  21
HETATM   21  S   UNK N   1      27.504  19.770   6.466  0.00  0.00    -0.086 SA
BRANCH  21  22
HETATM   22  C   UNK N   1      27.645  19.493   4.690  0.00  0.00     0.208 C 
HETATM   23  O   UNK N   1      28.129  18.445   4.302  0.00  0.00    -0.281 OA
BRANCH  22  24
HETATM   24  C   UNK N   1      27.199  20.535   3.732  0.00  0.00     0.063 C 
BRANCH  24  25
HETATM   25  C   UNK N   1      26.135  20.508   2.910  0.00  0.00     0.016 C 
BRANCH  25  26
HETATM   26  C   UNK N   1      24.762  20.047   3.194  0.00  0.00    -0.031 A 
HETATM   27  C   UNK N   1      23.702  20.778   2.653  0.00  0.00     0.051 A 
HETATM   28  C   UNK N   1      22.374  20.402   2.874  0.00  0.00     0.104 A 
HETATM   29  C   UNK N   1      22.108  19.240   3.646  0.00  0.00     0.132 A 
HETATM   30  C   UNK N   1      23.175  18.500   4.176  0.00  0.00     0.102 A 
HETATM   31  C   UNK N   1      24.488  18.908   3.953  0.00  0.00     0.051 A 
BRANCH  28  32
HETATM   32  O   UNK N   1      21.403  21.180   2.330  0.00  0.00    -0.353 OA
HETATM   33  C   UNK N   1      20.749  20.928   1.146  0.00  0.00     0.210 C 
ENDBRANCH  28  32
BRANCH  29  34
HETATM   34  O   UNK N   1      20.849  18.827   3.877  0.00  0.00    -0.356 OA
HETATM   35  H   UNK N   1      20.367  18.281   3.288  0.00  0.00     0.218 HD
ENDBRANCH  29  34
BRANCH  30  36
HETATM   36  O   UNK N   1      22.940  17.393   4.900  0.00  0.00    -0.358 OA
HETATM   37  H   UNK N   1      22.653  16.562   4.575  0.00  0.00     0.217 HD
ENDBRANCH  30  36
ENDBRANCH  25  26
ENDBRANCH  24  25
ENDBRANCH  22  24
ENDBRANCH  21  22
ENDBRANCH  20  21
ENDBRANCH  19  20
ENDBRANCH  16  19
ENDBRANCH  14  15
ENDBRANCH  13  14
ENDBRANCH  10  13
ENDBRANCH   8   9
BRANCH   8  38
HETATM   38  O   UNK N   1      23.693  11.551   7.910  0.00  0.00    -0.385 OA
HETATM   39  H   UNK N   1      23.751  11.106   7.050  0.00  0.00     0.210 HD
ENDBRANCH   8  38
ENDBRANCH   5   8
ENDBRANCH   4   5
ENDBRANCH   3   4
ENDBRANCH   1   3
BRANCH   1  40
HETATM   40  O   UNK N   1      21.395  17.172   7.101  0.00  0.00    -0.307 OA
HETATM   41  H   UNK N   1      22.217  17.253   6.593  0.00  0.00     0.222 HD
ENDBRANCH   1  40
BRANCH   1  42
HETATM   42  O   UNK N   1      18.775  16.040   7.187  0.00  0.00    -0.195 OA
BRANCH  42  43
HETATM   43  P   UNK N   1      19.353  15.584   5.607  0.00  0.00     0.401 P 
HETATM   44  O   UNK N   1      19.164  16.815   4.677  0.00  0.00    -0.631 OA
BRANCH  43  45
HETATM   45  O   UNK N   1      18.343  14.336   4.946  0.00  0.00    -0.307 OA
HETATM   46  H   UNK N   1      17.927  13.465   4.851  0.00  0.00     0.222 HD
ENDBRANCH  43  45
BRANCH  43  47
HETATM   47  O   UNK N   1      21.034  15.076   5.580  0.00  0.00    -0.294 OA
BRANCH  47  48
HETATM   48  C   UNK N   1      21.141  13.948   4.768  0.00  0.00     0.215 C 
BRANCH  48  49
HETATM   49  C   UNK N   1      22.294  14.184   3.829  0.00  0.00     0.180 C 
HETATM   50  O   UNK N   1      23.061  13.051   3.588  0.00  0.00    -0.353 OA
HETATM   51  C   UNK N   1      23.967  13.635   2.709  0.00  0.00     0.262 C 
HETATM   52  C   UNK N   1      23.338  14.712   1.830  0.00  0.00     0.199 C 
HETATM   53  C   UNK N   1      21.970  14.773   2.470  0.00  0.00     0.197 C 
BRANCH  51  54
HETATM   54  N   UNK N   1      25.121  12.838   2.332  0.00  0.00    -0.297 N 
HETATM   55  C   UNK N   1      25.112  11.498   2.128  0.00  0.00     0.188 A 
HETATM   56  N   UNK N   1      26.345  11.044   1.768  0.00  0.00    -0.346 N 
HETATM   57  C   UNK N   1      27.113  12.147   1.755  0.00  0.00     0.122 A 
ATOM     58  HN  UNK N   1      26.623  10.085   1.556  1.00  0.00     0.167 HD
HETATM   59  C   UNK N   1      28.457  12.293   1.461  0.00  0.00     0.131 A 
HETATM   60  C   UNK N   1      26.377  13.224   2.089  0.00  0.00     0.142 A 
HETATM   61  N   UNK N   1      28.997  13.546   1.526  0.00  0.00    -0.337 N 
HETATM   62  C   UNK N   1      28.224  14.631   1.866  0.00  0.00     0.183 A 
ATOM     63  HN  UNK N   1      29.987  13.679   1.319  1.00  0.00     0.168 HD
HETATM   64  N   UNK N   1      26.895  14.472   2.148  0.00  0.00    -0.336 N 
ATOM     65  HN  UNK N   1      26.312  15.272   2.395  1.00  0.00     0.168 HD
BRANCH  59  66
HETATM   66  N   UNK N   1      29.252  11.184   1.107  0.00  0.00    -0.383 N 
HETATM   67  H   UNK N   1      30.121  11.316   0.665  0.00  0.00     0.157 HD
HETATM   68  H   UNK N   1      28.935  10.272   1.302  0.00  0.00     0.157 HD
ENDBRANCH  59  66
ENDBRANCH  51  54
BRANCH  52  69
HETATM   69  O   UNK N   1      23.196  14.313   0.504  0.00  0.00    -0.388 OA
HETATM   70  H   UNK N   1      22.374  13.939   0.149  0.00  0.00     0.210 HD
ENDBRANCH  52  69
BRANCH  53  71
HETATM   71  O   UNK N   1      21.506  16.088   2.561  0.00  0.00    -0.286 OA
BRANCH  71  72
HETATM   72  P   UNK N   1      20.050  16.169   1.596  0.00  0.00     0.391 P 
HETATM   73  O   UNK N   1      20.441  15.935   0.113  0.00  0.00    -0.632 OA
BRANCH  72  74
HETATM   74  O   UNK N   1      18.960  14.892   2.036  0.00  0.00    -0.307 OA
HETATM   75  H   UNK N   1      18.529  14.451   2.785  0.00  0.00     0.222 HD
ENDBRANCH  72  74
BRANCH  72  76
HETATM   76  O   UNK N   1      19.244  17.705   1.678  0.00  0.00    -0.307 OA
HETATM   77  H   UNK N   1      19.038  18.249   2.455  0.00  0.00     0.222 HD
ENDBRANCH  72  76
ENDBRANCH  71  72
ENDBRANCH  53  71
ENDBRANCH  48  49
ENDBRANCH  47  48
ENDBRANCH  43  47
ENDBRANCH  42  43
ENDBRANCH   1  42
TORSDOF 33
ENDMDL
MODEL 3
REMARK VINA RESULT:      -7.8      7.720     13.432
REMARK WARNING: 32 MAX_TORS EXCEEDED!!!
REMARK  33 active torsions:
REMARK  status: ('A' for Active; 'I' for Inactive)
REMARK    1  A    between atoms: O_2  and  C_3 
REMARK    2  A    between atoms: C_5  and  C_6 
REMARK    3  A    between atoms: C_6  and  C_7 
REMARK    4  A    between atoms: C_7  and  C_8 
REMARK    5  A    between atoms: C_8  and  S_10 
REMARK    6  A    between atoms: S_10  and  C_11 
REMARK    7  A    between atoms: C_11  and  C_12 
REMARK    8  A    between atoms: C_12  and  N_13 
REMARK       I    between atoms: N_13  and  C_14 
REMARK    9  A    between atoms: C_14  and  C_16 
REMARK   10  A    between atoms: C_16  and  C_17 
REMARK   11  A    between atoms: C_17  and  N_18 
REMARK       I    between atoms: N_18  and  C_19 
REMARK   12  A    between atoms: C_19  and  C_21 
REMARK   13  A    between atoms: C_21  and  O_22 
REMARK   14  A    between atoms: C_21  and  C_23 
REMARK   15  A    between atoms: C_23  and  C_26 
REMARK   16  A    between atoms: C_26  and  O_27 
REMARK   17  A    between atoms: P_28  and  O_27 
REMARK   18  A    between atoms: P_28  and  O_29 
REMARK   19  A    between atoms: P_28  and  O_31 
REMARK   20  A    between atoms: P_32  and  O_31 
REMARK   21  A    between atoms: P_32  and  O_33 
REMARK   22  A    between atoms: P_32  and  O_35 
REMARK   23  A    between atoms: O_35  and  C_36 
REMARK   24  A    between atoms: C_37  and  C_36 
REMARK   25  A    between atoms: C_39  and  N_48 
REMARK   26  A    between atoms: C_40  and  O_41 
REMARK   27  A    between atoms: C_42  and  O_43 
REMARK   28  A    between atoms: O_43  and  P_44 
REMARK   29  A    between atoms: P_44  and  O_45 
REMARK   30  A    between atoms: P_44  and  O_46 
REMARK   31  A    between atoms: C_53  and  N_54 
REMARK   32  A    between atoms: C_62  and  O_63 
REMARK   33  A    between atoms: C_64  and  O_65 
ROOT
HETATM    1  P   UNK N   1      20.210  13.392   2.073  0.00  0.00     0.401 P 
HETATM    2  O   UNK N   1      18.798  14.007   1.871  0.00  0.00    -0.631 OA
ENDROOT
BRANCH   1   3
HETATM    3  O   UNK N   1      21.154  14.515   3.007  0.00  0.00    -0.296 OA
BRANCH   3   4
HETATM    4  C   UNK N   1      20.687  15.805   2.734  0.00  0.00     0.192 C 
BRANCH   4   5
HETATM    5  C   UNK N   1      20.616  16.603   4.038  0.00  0.00     0.009 C 
HETATM    6  C   UNK N   1      19.448  16.098   4.864  0.00  0.00     0.020 C 
HETATM    7  C   UNK N   1      20.337  18.053   3.702  0.00  0.00     0.020 C 
BRANCH   5   8
HETATM    8  C   UNK N   1      21.925  16.410   4.840  0.00  0.00     0.219 C 
BRANCH   8   9
HETATM    9  C   UNK N   1      22.299  17.557   5.753  0.00  0.00     0.247 C 
HETATM   10  N   UNK N   1      23.223  18.484   5.416  0.00  0.00    -0.358 N 
HETATM   11  H   UNK N   1      23.479  19.157   6.086  0.00  0.00     0.162 HD
HETATM   12  O   UNK N   1      21.743  17.646   6.836  0.00  0.00    -0.271 OA
BRANCH  10  13
HETATM   13  C   UNK N   1      23.851  18.530   4.120  0.00  0.00     0.132 C 
BRANCH  13  14
HETATM   14  C   UNK N   1      23.822  19.922   3.490  0.00  0.00     0.122 C 
BRANCH  14  15
HETATM   15  C   UNK N   1      25.095  20.404   2.845  0.00  0.00     0.219 C 
HETATM   16  N   UNK N   1      26.228  20.678   3.554  0.00  0.00    -0.360 N 
HETATM   17  H   UNK N   1      26.973  21.093   3.063  0.00  0.00     0.162 HD
HETATM   18  O   UNK N   1      25.091  20.594   1.639  0.00  0.00    -0.274 OA
BRANCH  16  19
HETATM   19  C   UNK N   1      26.432  20.412   4.967  0.00  0.00     0.133 C 
BRANCH  19  20
HETATM   20  C   UNK N   1      27.635  19.520   5.238  0.00  0.00     0.102 C 
BRANCH  20  21
HETATM   21  S   UNK N   1      27.695  18.096   4.110  0.00  0.00    -0.086 SA
BRANCH  21  22
HETATM   22  C   UNK N   1      27.206  16.867   5.336  0.00  0.00     0.208 C 
HETATM   23  O   UNK N   1      26.022  16.606   5.458  0.00  0.00    -0.281 OA
BRANCH  22  24
HETATM   24  C   UNK N   1      28.229  16.213   6.189  0.00  0.00     0.063 C 
BRANCH  24  25
HETATM   25  C   UNK N   1      29.033  16.781   7.105  0.00  0.00     0.016 C 
BRANCH  25  26
HETATM   26  C   UNK N   1      30.480  17.061   7.015  0.00  0.00    -0.031 A 
HETATM   27  C   UNK N   1      31.051  17.146   5.744  0.00  0.00     0.051 A 
HETATM   28  C   UNK N   1      32.413  17.412   5.577  0.00  0.00     0.104 A 
HETATM   29  C   UNK N   1      33.219  17.621   6.728  0.00  0.00     0.132 A 
HETATM   30  C   UNK N   1      32.638  17.548   8.002  0.00  0.00     0.102 A 
HETATM   31  C   UNK N   1      31.282  17.265   8.139  0.00  0.00     0.051 A 
BRANCH  28  32
HETATM   32  O   UNK N   1      32.894  17.457   4.307  0.00  0.00    -0.353 OA
HETATM   33  C   UNK N   1      32.248  16.976   3.192  0.00  0.00     0.210 C 
ENDBRANCH  28  32
BRANCH  29  34
HETATM   34  O   UNK N   1      34.532  17.893   6.623  0.00  0.00    -0.356 OA
HETATM   35  H   UNK N   1      35.134  17.816   7.336  0.00  0.00     0.218 HD
ENDBRANCH  29  34
BRANCH  30  36
HETATM   36  O   UNK N   1      33.385  17.752   9.101  0.00  0.00    -0.358 OA
HETATM   37  H   UNK N   1      33.814  18.549   9.346  0.00  0.00     0.217 HD
ENDBRANCH  30  36
ENDBRANCH  25  26
ENDBRANCH  24  25
ENDBRANCH  22  24
ENDBRANCH  21  22
ENDBRANCH  20  21
ENDBRANCH  19  20
ENDBRANCH  16  19
ENDBRANCH  14  15
ENDBRANCH  13  14
ENDBRANCH  10  13
ENDBRANCH   8   9
BRANCH   8  38
HETATM   38  O   UNK N   1      22.013  15.170   5.480  0.00  0.00    -0.385 OA
HETATM   39  H   UNK N   1      21.270  14.547   5.464  0.00  0.00     0.210 HD
ENDBRANCH   8  38
ENDBRANCH   5   8
ENDBRANCH   4   5
ENDBRANCH   3   4
ENDBRANCH   1   3
BRANCH   1  40
HETATM   40  O   UNK N   1      20.901  13.241   0.488  0.00  0.00    -0.307 OA
HETATM   41  H   UNK N   1      21.385  13.449  -0.326  0.00  0.00     0.222 HD
ENDBRANCH   1  40
BRANCH   1  42
HETATM   42  O   UNK N   1      20.018  11.821   2.802  0.00  0.00    -0.195 OA
BRANCH  42  43
HETATM   43  P   UNK N   1      19.396  12.064   4.413  0.00  0.00     0.401 P 
HETATM   44  O   UNK N   1      18.830  10.700   4.897  0.00  0.00    -0.631 OA
BRANCH  43  45
HETATM   45  O   UNK N   1      18.039  13.146   4.366  0.00  0.00    -0.307 OA
HETATM   46  H   UNK N   1      17.298  13.651   3.997  0.00  0.00     0.222 HD
ENDBRANCH  43  45
BRANCH  43  47
HETATM   47  O   UNK N   1      20.593  12.647   5.560  0.00  0.00    -0.294 OA
BRANCH  47  48
HETATM   48  C   UNK N   1      21.032  11.568   6.325  0.00  0.00     0.215 C 
BRANCH  48  49
HETATM   49  C   UNK N   1      22.524  11.707   6.474  0.00  0.00     0.180 C 
HETATM   50  O   UNK N   1      23.130  12.384   5.423  0.00  0.00    -0.353 OA
HETATM   51  C   UNK N   1      24.434  12.327   5.907  0.00  0.00     0.262 C 
HETATM   52  C   UNK N   1      24.511  12.418   7.427  0.00  0.00     0.199 C 
HETATM   53  C   UNK N   1      23.035  12.356   7.745  0.00  0.00     0.197 C 
BRANCH  51  54
HETATM   54  N   UNK N   1      25.486  12.758   5.003  0.00  0.00    -0.297 N 
HETATM   55  C   UNK N   1      26.757  12.285   5.000  0.00  0.00     0.188 A 
HETATM   56  N   UNK N   1      27.501  12.873   4.023  0.00  0.00    -0.346 N 
HETATM   57  C   UNK N   1      26.649  13.722   3.423  0.00  0.00     0.122 A 
ATOM     58  HN  UNK N   1      28.482  12.707   3.797  1.00  0.00     0.167 HD
HETATM   59  C   UNK N   1      26.853  14.587   2.362  0.00  0.00     0.131 A 
HETATM   60  C   UNK N   1      25.439  13.649   4.008  0.00  0.00     0.142 A 
HETATM   61  N   UNK N   1      25.800  15.351   1.945  0.00  0.00    -0.337 N 
HETATM   62  C   UNK N   1      24.573  15.257   2.556  0.00  0.00     0.183 A 
ATOM     63  HN  UNK N   1      25.926  16.001   1.169  1.00  0.00     0.168 HD
HETATM   64  N   UNK N   1      24.385  14.392   3.600  0.00  0.00    -0.336 N 
ATOM     65  HN  UNK N   1      23.476  14.310   4.056  1.00  0.00     0.168 HD
BRANCH  59  66
HETATM   66  N   UNK N   1      28.109  14.683   1.729  0.00  0.00    -0.383 N 
HETATM   67  H   UNK N   1      28.498  15.564   1.527  0.00  0.00     0.157 HD
HETATM   68  H   UNK N   1      28.599  13.864   1.488  0.00  0.00     0.157 HD
ENDBRANCH  59  66
ENDBRANCH  51  54
BRANCH  52  69
HETATM   69  O   UNK N   1      25.014  13.637   7.872  0.00  0.00    -0.388 OA
HETATM   70  H   UNK N   1      24.455  14.411   8.042  0.00  0.00     0.210 HD
ENDBRANCH  52  69
BRANCH  53  71
HETATM   71  O   UNK N   1      22.787  11.571   8.875  0.00  0.00    -0.286 OA
BRANCH  71  72
HETATM   72  P   UNK N   1      22.620  12.675  10.220  0.00  0.00     0.391 P 
HETATM   73  O   UNK N   1      21.799  11.965  11.328  0.00  0.00    -0.632 OA
BRANCH  72  74
HETATM   74  O   UNK N   1      24.174  13.040  10.903  0.00  0.00    -0.307 OA
HETATM   75  H   UNK N   1      25.097  13.244  10.687  0.00  0.00     0.222 HD
ENDBRANCH  72  74
BRANCH  72  76
HETATM   76  O   UNK N   1      21.779  14.140   9.818  0.00  0.00    -0.307 OA
HETATM   77  H   UNK N   1      21.771  14.991  10.285  0.00  0.00     0.222 HD
ENDBRANCH  72  76
ENDBRANCH  71  72
ENDBRANCH  53  71
ENDBRANCH  48  49
ENDBRANCH  47  48
ENDBRANCH  43  47
ENDBRANCH  42  43
ENDBRANCH   1  42
TORSDOF 33
ENDMDL
MODEL 4
REMARK VINA RESULT:      -7.8      5.886     11.274
REMARK WARNING: 32 MAX_TORS EXCEEDED!!!
REMARK  33 active torsions:
REMARK  status: ('A' for Active; 'I' for Inactive)
REMARK    1  A    between atoms: O_2  and  C_3 
REMARK    2  A    between atoms: C_5  and  C_6 
REMARK    3  A    between atoms: C_6  and  C_7 
REMARK    4  A    between atoms: C_7  and  C_8 
REMARK    5  A    between atoms: C_8  and  S_10 
REMARK    6  A    between atoms: S_10  and  C_11 
REMARK    7  A    between atoms: C_11  and  C_12 
REMARK    8  A    between atoms: C_12  and  N_13 
REMARK       I    between atoms: N_13  and  C_14 
REMARK    9  A    between atoms: C_14  and  C_16 
REMARK   10  A    between atoms: C_16  and  C_17 
REMARK   11  A    between atoms: C_17  and  N_18 
REMARK       I    between atoms: N_18  and  C_19 
REMARK   12  A    between atoms: C_19  and  C_21 
REMARK   13  A    between atoms: C_21  and  O_22 
REMARK   14  A    between atoms: C_21  and  C_23 
REMARK   15  A    between atoms: C_23  and  C_26 
REMARK   16  A    between atoms: C_26  and  O_27 
REMARK   17  A    between atoms: P_28  and  O_27 
REMARK   18  A    between atoms: P_28  and  O_29 
REMARK   19  A    between atoms: P_28  and  O_31 
REMARK   20  A    between atoms: P_32  and  O_31 
REMARK   21  A    between atoms: P_32  and  O_33 
REMARK   22  A    between atoms: P_32  and  O_35 
REMARK   23  A    between atoms: O_35  and  C_36 
REMARK   24  A    between atoms: C_37  and  C_36 
REMARK   25  A    between atoms: C_39  and  N_48 
REMARK   26  A    between atoms: C_40  and  O_41 
REMARK   27  A    between atoms: C_42  and  O_43 
REMARK   28  A    between atoms: O_43  and  P_44 
REMARK   29  A    between atoms: P_44  and  O_45 
REMARK   30  A    between atoms: P_44  and  O_46 
REMARK   31  A    between atoms: C_53  and  N_54 
REMARK   32  A    between atoms: C_62  and  O_63 
REMARK   33  A    between atoms: C_64  and  O_65 
ROOT
HETATM    1  P   UNK N   1      29.517  15.096   5.320  0.00  0.00     0.401 P 
HETATM    2  O   UNK N   1      28.777  16.289   5.984  0.00  0.00    -0.631 OA
ENDROOT
BRANCH   1   3
HETATM    3  O   UNK N   1      31.000  14.836   6.190  0.00  0.00    -0.296 OA
BRANCH   3   4
HETATM    4  C   UNK N   1      32.034  15.455   5.479  0.00  0.00     0.192 C 
BRANCH   4   5
HETATM    5  C   UNK N   1      33.219  15.695   6.416  0.00  0.00     0.009 C 
HETATM    6  C   UNK N   1      34.508  15.424   5.664  0.00  0.00     0.020 C 
HETATM    7  C   UNK N   1      33.144  14.698   7.554  0.00  0.00     0.020 C 
BRANCH   5   8
HETATM    8  C   UNK N   1      33.213  17.165   6.900  0.00  0.00     0.219 C 
BRANCH   8   9
HETATM    9  C   UNK N   1      33.251  17.351   8.401  0.00  0.00     0.247 C 
HETATM   10  N   UNK N   1      32.133  17.525   9.140  0.00  0.00    -0.358 N 
HETATM   11  H   UNK N   1      32.230  17.722  10.099  0.00  0.00     0.162 HD
HETATM   12  O   UNK N   1      34.335  17.345   8.962  0.00  0.00    -0.271 OA
BRANCH  10  13
HETATM   13  C   UNK N   1      30.805  17.436   8.587  0.00  0.00     0.132 C 
BRANCH  13  14
HETATM   14  C   UNK N   1      29.740  18.062   9.487  0.00  0.00     0.122 C 
BRANCH  14  15
HETATM   15  C   UNK N   1      28.302  17.796   9.126  0.00  0.00     0.219 C 
HETATM   16  N   UNK N   1      27.624  18.525   8.193  0.00  0.00    -0.360 N 
HETATM   17  H   UNK N   1      26.659  18.352   8.104  0.00  0.00     0.162 HD
HETATM   18  O   UNK N   1      27.713  16.912   9.728  0.00  0.00    -0.274 OA
BRANCH  16  19
HETATM   19  C   UNK N   1      28.200  19.534   7.320  0.00  0.00     0.133 C 
BRANCH  19  20
HETATM   20  C   UNK N   1      27.254  19.971   6.211  0.00  0.00     0.102 C 
BRANCH  20  21
HETATM   21  S   UNK N   1      27.835  19.439   4.573  0.00  0.00    -0.086 SA
BRANCH  21  22
HETATM   22  C   UNK N   1      26.196  19.167   3.872  0.00  0.00     0.208 C 
HETATM   23  O   UNK N   1      25.961  18.097   3.342  0.00  0.00    -0.281 OA
BRANCH  22  24
HETATM   24  C   UNK N   1      25.173  20.241   3.925  0.00  0.00     0.063 C 
BRANCH  24  25
HETATM   25  C   UNK N   1      24.310  20.614   2.963  0.00  0.00     0.016 C 
BRANCH  25  26
HETATM   26  C   UNK N   1      22.891  20.240   2.800  0.00  0.00    -0.031 A 
HETATM   27  C   UNK N   1      22.354  19.310   3.691  0.00  0.00     0.051 A 
HETATM   28  C   UNK N   1      21.018  18.908   3.602  0.00  0.00     0.104 A 
HETATM   29  C   UNK N   1      20.193  19.481   2.598  0.00  0.00     0.132 A 
HETATM   30  C   UNK N   1      20.733  20.426   1.713  0.00  0.00     0.102 A 
HETATM   31  C   UNK N   1      22.073  20.794   1.815  0.00  0.00     0.051 A 
BRANCH  28  32
HETATM   32  O   UNK N   1      20.580  17.983   4.495  0.00  0.00    -0.353 OA
HETATM   33  C   UNK N   1      21.037  17.838   5.784  0.00  0.00     0.210 C 
ENDBRANCH  28  32
BRANCH  29  34
HETATM   34  O   UNK N   1      18.898  19.140   2.478  0.00  0.00    -0.356 OA
HETATM   35  H   UNK N   1      18.446  18.599   3.095  0.00  0.00     0.218 HD
ENDBRANCH  29  34
BRANCH  30  36
HETATM   36  O   UNK N   1      19.963  20.983   0.763  0.00  0.00    -0.358 OA
HETATM   37  H   UNK N   1      19.782  21.896   0.655  0.00  0.00     0.217 HD
ENDBRANCH  30  36
ENDBRANCH  25  26
ENDBRANCH  24  25
ENDBRANCH  22  24
ENDBRANCH  21  22
ENDBRANCH  20  21
ENDBRANCH  19  20
ENDBRANCH  16  19
ENDBRANCH  14  15
ENDBRANCH  13  14
ENDBRANCH  10  13
ENDBRANCH   8   9
BRANCH   8  38
HETATM   38  O   UNK N   1      34.140  17.976   6.239  0.00  0.00    -0.385 OA
HETATM   39  H   UNK N   1      34.016  18.221   5.308  0.00  0.00     0.210 HD
ENDBRANCH   8  38
ENDBRANCH   5   8
ENDBRANCH   4   5
ENDBRANCH   3   4
ENDBRANCH   1   3
BRANCH   1  40
HETATM   40  O   UNK N   1      29.882  15.597   3.699  0.00  0.00    -0.307 OA
HETATM   41  H   UNK N   1      30.312  15.657   2.832  0.00  0.00     0.222 HD
ENDBRANCH   1  40
BRANCH   1  42
HETATM   42  O   UNK N   1      28.436  13.729   5.302  0.00  0.00    -0.195 OA
BRANCH  42  43
HETATM   43  P   UNK N   1      26.843  14.326   4.920  0.00  0.00     0.401 P 
HETATM   44  O   UNK N   1      26.071  13.167   4.231  0.00  0.00    -0.631 OA
BRANCH  43  45
HETATM   45  O   UNK N   1      26.953  15.588   3.734  0.00  0.00    -0.307 OA
HETATM   46  H   UNK N   1      27.361  16.236   3.138  0.00  0.00     0.222 HD
ENDBRANCH  43  45
BRANCH  43  47
HETATM   47  O   UNK N   1      25.938  14.889   6.317  0.00  0.00    -0.294 OA
BRANCH  47  48
HETATM   48  C   UNK N   1      25.288  13.798   6.891  0.00  0.00     0.215 C 
BRANCH  48  49
HETATM   49  C   UNK N   1      23.811  14.086   6.847  0.00  0.00     0.180 C 
HETATM   50  O   UNK N   1      23.246  13.923   5.589  0.00  0.00    -0.353 OA
HETATM   51  C   UNK N   1      21.939  14.247   5.940  0.00  0.00     0.262 C 
HETATM   52  C   UNK N   1      21.569  13.793   7.349  0.00  0.00     0.199 C 
HETATM   53  C   UNK N   1      22.928  13.319   7.811  0.00  0.00     0.197 C 
BRANCH  51  54
HETATM   54  N   UNK N   1      20.989  14.406   4.853  0.00  0.00    -0.297 N 
HETATM   55  C   UNK N   1      19.645  14.507   4.996  0.00  0.00     0.188 A 
HETATM   56  N   UNK N   1      19.029  14.667   3.792  0.00  0.00    -0.346 N 
HETATM   57  C   UNK N   1      20.037  14.662   2.902  0.00  0.00     0.122 A 
ATOM     58  HN  UNK N   1      18.031  14.767   3.607  1.00  0.00     0.167 HD
HETATM   59  C   UNK N   1      20.008  14.786   1.524  0.00  0.00     0.131 A 
HETATM   60  C   UNK N   1      21.213  14.511   3.539  0.00  0.00     0.142 A 
HETATM   61  N   UNK N   1      21.196  14.746   0.851  0.00  0.00    -0.337 N 
HETATM   62  C   UNK N   1      22.385  14.595   1.524  0.00  0.00     0.183 A 
ATOM     63  HN  UNK N   1      21.201  14.830  -0.166  1.00  0.00     0.168 HD
HETATM   64  N   UNK N   1      22.398  14.479   2.887  0.00  0.00    -0.336 N 
ATOM     65  HN  UNK N   1      23.276  14.373   3.396  1.00  0.00     0.168 HD
BRANCH  59  66
HETATM   66  N   UNK N   1      18.792  14.947   0.831  0.00  0.00    -0.383 N 
HETATM   67  H   UNK N   1      18.057  14.304   0.958  0.00  0.00     0.157 HD
HETATM   68  H   UNK N   1      18.676  15.707   0.216  0.00  0.00     0.157 HD
ENDBRANCH  59  66
ENDBRANCH  51  54
BRANCH  52  69
HETATM   69  O   UNK N   1      20.690  12.715   7.357  0.00  0.00    -0.388 OA
HETATM   70  H   UNK N   1      20.977  11.797   7.227  0.00  0.00     0.210 HD
ENDBRANCH  52  69
BRANCH  53  71
HETATM   71  O   UNK N   1      23.167  13.670   9.143  0.00  0.00    -0.286 OA
BRANCH  71  72
HETATM   72  P   UNK N   1      23.690  12.213   9.955  0.00  0.00     0.391 P 
HETATM   73  O   UNK N   1      24.050  11.161   8.873  0.00  0.00    -0.632 OA
BRANCH  72  74
HETATM   74  O   UNK N   1      25.137  12.512  10.866  0.00  0.00    -0.307 OA
HETATM   75  H   UNK N   1      25.583  12.336  11.709  0.00  0.00     0.222 HD
ENDBRANCH  72  74
BRANCH  72  76
HETATM   76  O   UNK N   1      22.472  11.507  10.972  0.00  0.00    -0.307 OA
HETATM   77  H   UNK N   1      22.424  11.475  11.940  0.00  0.00     0.222 HD
ENDBRANCH  72  76
ENDBRANCH  71  72
ENDBRANCH  53  71
ENDBRANCH  48  49
ENDBRANCH  47  48
ENDBRANCH  43  47
ENDBRANCH  42  43
ENDBRANCH   1  42
TORSDOF 33
ENDMDL
MODEL 5
REMARK VINA RESULT:      -7.7      7.814     13.249
REMARK WARNING: 32 MAX_TORS EXCEEDED!!!
REMARK  33 active torsions:
REMARK  status: ('A' for Active; 'I' for Inactive)
REMARK    1  A    between atoms: O_2  and  C_3 
REMARK    2  A    between atoms: C_5  and  C_6 
REMARK    3  A    between atoms: C_6  and  C_7 
REMARK    4  A    between atoms: C_7  and  C_8 
REMARK    5  A    between atoms: C_8  and  S_10 
REMARK    6  A    between atoms: S_10  and  C_11 
REMARK    7  A    between atoms: C_11  and  C_12 
REMARK    8  A    between atoms: C_12  and  N_13 
REMARK       I    between atoms: N_13  and  C_14 
REMARK    9  A    between atoms: C_14  and  C_16 
REMARK   10  A    between atoms: C_16  and  C_17 
REMARK   11  A    between atoms: C_17  and  N_18 
REMARK       I    between atoms: N_18  and  C_19 
REMARK   12  A    between atoms: C_19  and  C_21 
REMARK   13  A    between atoms: C_21  and  O_22 
REMARK   14  A    between atoms: C_21  and  C_23 
REMARK   15  A    between atoms: C_23  and  C_26 
REMARK   16  A    between atoms: C_26  and  O_27 
REMARK   17  A    between atoms: P_28  and  O_27 
REMARK   18  A    between atoms: P_28  and  O_29 
REMARK   19  A    between atoms: P_28  and  O_31 
REMARK   20  A    between atoms: P_32  and  O_31 
REMARK   21  A    between atoms: P_32  and  O_33 
REMARK   22  A    between atoms: P_32  and  O_35 
REMARK   23  A    between atoms: O_35  and  C_36 
REMARK   24  A    between atoms: C_37  and  C_36 
REMARK   25  A    between atoms: C_39  and  N_48 
REMARK   26  A    between atoms: C_40  and  O_41 
REMARK   27  A    between atoms: C_42  and  O_43 
REMARK   28  A    between atoms: O_43  and  P_44 
REMARK   29  A    between atoms: P_44  and  O_45 
REMARK   30  A    between atoms: P_44  and  O_46 
REMARK   31  A    between atoms: C_53  and  N_54 
REMARK   32  A    between atoms: C_62  and  O_63 
REMARK   33  A    between atoms: C_64  and  O_65 
ROOT
HETATM    1  P   UNK N   1      20.124  13.431   2.126  0.00  0.00     0.401 P 
HETATM    2  O   UNK N   1      18.736  14.095   1.917  0.00  0.00    -0.631 OA
ENDROOT
BRANCH   1   3
HETATM    3  O   UNK N   1      21.095  14.511   3.081  0.00  0.00    -0.296 OA
BRANCH   3   4
HETATM    4  C   UNK N   1      20.748  15.823   2.741  0.00  0.00     0.192 C 
BRANCH   4   5
HETATM    5  C   UNK N   1      20.755  16.691   4.002  0.00  0.00     0.009 C 
HETATM    6  C   UNK N   1      19.555  16.332   4.857  0.00  0.00     0.020 C 
HETATM    7  C   UNK N   1      20.598  18.140   3.591  0.00  0.00     0.020 C 
BRANCH   5   8
HETATM    8  C   UNK N   1      22.049  16.429   4.808  0.00  0.00     0.219 C 
BRANCH   8   9
HETATM    9  C   UNK N   1      22.558  17.604   5.614  0.00  0.00     0.247 C 
HETATM   10  N   UNK N   1      23.734  18.214   5.347  0.00  0.00    -0.358 N 
HETATM   11  H   UNK N   1      24.046  18.919   5.957  0.00  0.00     0.162 HD
HETATM   12  O   UNK N   1      21.877  18.015   6.540  0.00  0.00    -0.271 OA
BRANCH  10  13
HETATM   13  C   UNK N   1      24.553  17.876   4.210  0.00  0.00     0.132 C 
BRANCH  13  14
HETATM   14  C   UNK N   1      25.690  18.869   3.976  0.00  0.00     0.122 C 
BRANCH  14  15
HETATM   15  C   UNK N   1      27.088  18.383   4.259  0.00  0.00     0.219 C 
HETATM   16  N   UNK N   1      27.857  18.883   5.268  0.00  0.00    -0.360 N 
HETATM   17  H   UNK N   1      28.794  18.584   5.308  0.00  0.00     0.162 HD
HETATM   18  O   UNK N   1      27.558  17.531   3.523  0.00  0.00    -0.274 OA
BRANCH  16  19
HETATM   19  C   UNK N   1      27.417  19.818   6.290  0.00  0.00     0.133 C 
BRANCH  19  20
HETATM   20  C   UNK N   1      27.958  19.487   7.673  0.00  0.00     0.102 C 
BRANCH  20  21
HETATM   21  S   UNK N   1      28.447  17.742   7.814  0.00  0.00    -0.086 SA
BRANCH  21  22
HETATM   22  C   UNK N   1      29.886  18.034   8.860  0.00  0.00     0.208 C 
HETATM   23  O   UNK N   1      29.749  18.715   9.861  0.00  0.00    -0.281 OA
BRANCH  22  24
HETATM   24  C   UNK N   1      31.208  17.474   8.487  0.00  0.00     0.063 C 
BRANCH  24  25
HETATM   25  C   UNK N   1      31.776  17.424   7.270  0.00  0.00     0.016 C 
BRANCH  25  26
HETATM   26  C   UNK N   1      31.413  16.578   6.116  0.00  0.00    -0.031 A 
HETATM   27  C   UNK N   1      31.437  15.193   6.288  0.00  0.00     0.051 A 
HETATM   28  C   UNK N   1      31.103  14.327   5.243  0.00  0.00     0.104 A 
HETATM   29  C   UNK N   1      30.711  14.876   3.993  0.00  0.00     0.132 A 
HETATM   30  C   UNK N   1      30.675  16.268   3.828  0.00  0.00     0.102 A 
HETATM   31  C   UNK N   1      31.030  17.106   4.882  0.00  0.00     0.051 A 
BRANCH  28  32
HETATM   32  O   UNK N   1      31.172  12.992   5.488  0.00  0.00    -0.353 OA
HETATM   33  C   UNK N   1      32.251  12.185   5.214  0.00  0.00     0.210 C 
ENDBRANCH  28  32
BRANCH  29  34
HETATM   34  O   UNK N   1      30.366  14.087   2.960  0.00  0.00    -0.356 OA
HETATM   35  H   UNK N   1      30.931  13.912   2.233  0.00  0.00     0.218 HD
ENDBRANCH  29  34
BRANCH  30  36
HETATM   36  O   UNK N   1      30.298  16.802   2.655  0.00  0.00    -0.358 OA
HETATM   37  H   UNK N   1      29.420  16.911   2.346  0.00  0.00     0.217 HD
ENDBRANCH  30  36
ENDBRANCH  25  26
ENDBRANCH  24  25
ENDBRANCH  22  24
ENDBRANCH  21  22
ENDBRANCH  20  21
ENDBRANCH  19  20
ENDBRANCH  16  19
ENDBRANCH  14  15
ENDBRANCH  13  14
ENDBRANCH  10  13
ENDBRANCH   8   9
BRANCH   8  38
HETATM   38  O   UNK N   1      22.015  15.247   5.555  0.00  0.00    -0.385 OA
HETATM   39  H   UNK N   1      21.400  15.144   6.298  0.00  0.00     0.210 HD
ENDBRANCH   8  38
ENDBRANCH   5   8
ENDBRANCH   4   5
ENDBRANCH   3   4
ENDBRANCH   1   3
BRANCH   1  40
HETATM   40  O   UNK N   1      20.825  13.274   0.546  0.00  0.00    -0.307 OA
HETATM   41  H   UNK N   1      21.388  12.968  -0.181  0.00  0.00     0.222 HD
ENDBRANCH   1  40
BRANCH   1  42
HETATM   42  O   UNK N   1      19.872  11.859   2.836  0.00  0.00    -0.195 OA
BRANCH  42  43
HETATM   43  P   UNK N   1      19.338  12.105   4.477  0.00  0.00     0.401 P 
HETATM   44  O   UNK N   1      18.779  10.748   4.986  0.00  0.00    -0.631 OA
BRANCH  43  45
HETATM   45  O   UNK N   1      17.996  13.206   4.504  0.00  0.00    -0.307 OA
HETATM   46  H   UNK N   1      17.077  13.513   4.450  0.00  0.00     0.222 HD
ENDBRANCH  43  45
BRANCH  43  47
HETATM   47  O   UNK N   1      20.600  12.668   5.562  0.00  0.00    -0.294 OA
BRANCH  47  48
HETATM   48  C   UNK N   1      21.048  11.585   6.316  0.00  0.00     0.215 C 
BRANCH  48  49
HETATM   49  C   UNK N   1      22.544  11.715   6.436  0.00  0.00     0.180 C 
HETATM   50  O   UNK N   1      23.117  12.509   5.450  0.00  0.00    -0.353 OA
HETATM   51  C   UNK N   1      24.434  12.406   5.886  0.00  0.00     0.262 C 
HETATM   52  C   UNK N   1      24.557  12.325   7.404  0.00  0.00     0.199 C 
HETATM   53  C   UNK N   1      23.091  12.219   7.756  0.00  0.00     0.197 C 
BRANCH  51  54
HETATM   54  N   UNK N   1      25.458  12.941   5.006  0.00  0.00    -0.297 N 
HETATM   55  C   UNK N   1      26.794  12.776   5.168  0.00  0.00     0.188 A 
HETATM   56  N   UNK N   1      27.493  13.382   4.169  0.00  0.00    -0.346 N 
HETATM   57  C   UNK N   1      26.546  13.924   3.384  0.00  0.00     0.122 A 
ATOM     58  HN  UNK N   1      28.505  13.416   4.044  1.00  0.00     0.167 HD
HETATM   59  C   UNK N   1      26.669  14.663   2.221  0.00  0.00     0.131 A 
HETATM   60  C   UNK N   1      25.325  13.655   3.884  0.00  0.00     0.142 A 
HETATM   61  N   UNK N   1      25.526  15.102   1.615  0.00  0.00    -0.337 N 
HETATM   62  C   UNK N   1      24.290  14.812   2.142  0.00  0.00     0.183 A 
ATOM     63  HN  UNK N   1      25.590  15.653   0.758  1.00  0.00     0.168 HD
HETATM   64  N   UNK N   1      24.184  14.075   3.290  0.00  0.00    -0.336 N 
ATOM     65  HN  UNK N   1      23.271  13.849   3.686  1.00  0.00     0.168 HD
BRANCH  59  66
HETATM   66  N   UNK N   1      27.934  14.958   1.674  0.00  0.00    -0.383 N 
HETATM   67  H   UNK N   1      28.753  14.779   2.189  0.00  0.00     0.157 HD
HETATM   68  H   UNK N   1      27.998  15.346   0.771  0.00  0.00     0.157 HD
ENDBRANCH  59  66
ENDBRANCH  51  54
BRANCH  52  69
HETATM   69  O   UNK N   1      25.071  13.489   7.968  0.00  0.00    -0.388 OA
HETATM   70  H   UNK N   1      24.564  14.055   8.571  0.00  0.00     0.210 HD
ENDBRANCH  52  69
BRANCH  53  71
HETATM   71  O   UNK N   1      22.879  11.311   8.798  0.00  0.00    -0.286 OA
BRANCH  71  72
HETATM   72  P   UNK N   1      22.269  12.237  10.149  0.00  0.00     0.391 P 
HETATM   73  O   UNK N   1      23.070  13.564  10.225  0.00  0.00    -0.632 OA
BRANCH  72  74
HETATM   74  O   UNK N   1      20.608  12.668   9.889  0.00  0.00    -0.307 OA
HETATM   75  H   UNK N   1      19.804  12.992  10.324  0.00  0.00     0.222 HD
ENDBRANCH  72  74
BRANCH  72  76
HETATM   76  O   UNK N   1      22.452  11.439  11.680  0.00  0.00    -0.307 OA
HETATM   77  H   UNK N   1      21.904  11.508  12.478  0.00  0.00     0.222 HD
ENDBRANCH  72  76
ENDBRANCH  71  72
ENDBRANCH  53  71
ENDBRANCH  48  49
ENDBRANCH  47  48
ENDBRANCH  43  47
ENDBRANCH  42  43
ENDBRANCH   1  42
TORSDOF 33
ENDMDL
MODEL 6
REMARK VINA RESULT:      -7.6      4.528     15.269
REMARK WARNING: 32 MAX_TORS EXCEEDED!!!
REMARK  33 active torsions:
REMARK  status: ('A' for Active; 'I' for Inactive)
REMARK    1  A    between atoms: O_2  and  C_3 
REMARK    2  A    between atoms: C_5  and  C_6 
REMARK    3  A    between atoms: C_6  and  C_7 
REMARK    4  A    between atoms: C_7  and  C_8 
REMARK    5  A    between atoms: C_8  and  S_10 
REMARK    6  A    between atoms: S_10  and  C_11 
REMARK    7  A    between atoms: C_11  and  C_12 
REMARK    8  A    between atoms: C_12  and  N_13 
REMARK       I    between atoms: N_13  and  C_14 
REMARK    9  A    between atoms: C_14  and  C_16 
REMARK   10  A    between atoms: C_16  and  C_17 
REMARK   11  A    between atoms: C_17  and  N_18 
REMARK       I    between atoms: N_18  and  C_19 
REMARK   12  A    between atoms: C_19  and  C_21 
REMARK   13  A    between atoms: C_21  and  O_22 
REMARK   14  A    between atoms: C_21  and  C_23 
REMARK   15  A    between atoms: C_23  and  C_26 
REMARK   16  A    between atoms: C_26  and  O_27 
REMARK   17  A    between atoms: P_28  and  O_27 
REMARK   18  A    between atoms: P_28  and  O_29 
REMARK   19  A    between atoms: P_28  and  O_31 
REMARK   20  A    between atoms: P_32  and  O_31 
REMARK   21  A    between atoms: P_32  and  O_33 
REMARK   22  A    between atoms: P_32  and  O_35 
REMARK   23  A    between atoms: O_35  and  C_36 
REMARK   24  A    between atoms: C_37  and  C_36 
REMARK   25  A    between atoms: C_39  and  N_48 
REMARK   26  A    between atoms: C_40  and  O_41 
REMARK   27  A    between atoms: C_42  and  O_43 
REMARK   28  A    between atoms: O_43  and  P_44 
REMARK   29  A    between atoms: P_44  and  O_45 
REMARK   30  A    between atoms: P_44  and  O_46 
REMARK   31  A    between atoms: C_53  and  N_54 
REMARK   32  A    between atoms: C_62  and  O_63 
REMARK   33  A    between atoms: C_64  and  O_65 
ROOT
HETATM    1  P   UNK N   1      29.193  17.006   5.121  0.00  0.00     0.401 P 
HETATM    2  O   UNK N   1      28.342  15.805   5.616  0.00  0.00    -0.631 OA
ENDROOT
BRANCH   1   3
HETATM    3  O   UNK N   1      30.770  16.406   4.700  0.00  0.00    -0.296 OA
BRANCH   3   4
HETATM    4  C   UNK N   1      31.498  16.235   5.883  0.00  0.00     0.192 C 
BRANCH   4   5
HETATM    5  C   UNK N   1      32.902  16.815   5.700  0.00  0.00     0.009 C 
HETATM    6  C   UNK N   1      32.952  17.591   4.398  0.00  0.00     0.020 C 
HETATM    7  C   UNK N   1      33.886  15.669   5.580  0.00  0.00     0.020 C 
BRANCH   5   8
HETATM    8  C   UNK N   1      33.229  17.770   6.872  0.00  0.00     0.219 C 
BRANCH   8   9
HETATM    9  C   UNK N   1      32.519  17.464   8.173  0.00  0.00     0.247 C 
HETATM   10  N   UNK N   1      32.970  16.536   9.047  0.00  0.00    -0.358 N 
HETATM   11  H   UNK N   1      32.420  16.327   9.835  0.00  0.00     0.162 HD
HETATM   12  O   UNK N   1      31.499  18.079   8.440  0.00  0.00    -0.271 OA
BRANCH  10  13
HETATM   13  C   UNK N   1      34.220  15.840   8.875  0.00  0.00     0.132 C 
BRANCH  13  14
HETATM   14  C   UNK N   1      34.702  15.154  10.153  0.00  0.00     0.122 C 
BRANCH  14  15
HETATM   15  C   UNK N   1      36.149  15.347  10.525  0.00  0.00     0.219 C 
HETATM   16  N   UNK N   1      37.059  14.331  10.516  0.00  0.00    -0.360 N 
HETATM   17  H   UNK N   1      37.953  14.527  10.880  0.00  0.00     0.162 HD
HETATM   18  O   UNK N   1      36.505  16.457  10.887  0.00  0.00    -0.274 OA
BRANCH  16  19
HETATM   19  C   UNK N   1      36.827  12.987  10.017  0.00  0.00     0.133 C 
BRANCH  19  20
HETATM   20  C   UNK N   1      36.617  11.967  11.127  0.00  0.00     0.102 C 
BRANCH  20  21
HETATM   21  S   UNK N   1      34.937  11.274  11.106  0.00  0.00    -0.086 SA
BRANCH  21  22
HETATM   22  C   UNK N   1      34.772  11.131  12.896  0.00  0.00     0.208 C 
HETATM   23  O   UNK N   1      33.801  10.550  13.345  0.00  0.00    -0.281 OA
BRANCH  22  24
HETATM   24  C   UNK N   1      35.791  11.733  13.792  0.00  0.00     0.063 C 
BRANCH  24  25
HETATM   25  C   UNK N   1      35.670  12.819  14.575  0.00  0.00     0.016 C 
BRANCH  25  26
HETATM   26  C   UNK N   1      35.498  12.885  16.040  0.00  0.00    -0.031 A 
HETATM   27  C   UNK N   1      35.405  11.683  16.743  0.00  0.00     0.051 A 
HETATM   28  C   UNK N   1      35.245  11.664  18.131  0.00  0.00     0.104 A 
HETATM   29  C   UNK N   1      35.201  12.897  18.834  0.00  0.00     0.132 A 
HETATM   30  C   UNK N   1      35.309  14.103  18.127  0.00  0.00     0.102 A 
HETATM   31  C   UNK N   1      35.451  14.091  16.741  0.00  0.00     0.051 A 
BRANCH  28  32
HETATM   32  O   UNK N   1      35.141  10.452  18.735  0.00  0.00    -0.353 OA
HETATM   33  C   UNK N   1      34.486   9.358  18.221  0.00  0.00     0.210 C 
ENDBRANCH  28  32
BRANCH  29  34
HETATM   34  O   UNK N   1      35.062  12.935  20.172  0.00  0.00    -0.356 OA
HETATM   35  H   UNK N   1      34.257  13.147  20.602  0.00  0.00     0.218 HD
ENDBRANCH  29  34
BRANCH  30  36
HETATM   36  O   UNK N   1      35.278  15.278  18.779  0.00  0.00    -0.358 OA
HETATM   37  H   UNK N   1      36.015  15.757  19.102  0.00  0.00     0.217 HD
ENDBRANCH  30  36
ENDBRANCH  25  26
ENDBRANCH  24  25
ENDBRANCH  22  24
ENDBRANCH  21  22
ENDBRANCH  20  21
ENDBRANCH  19  20
ENDBRANCH  16  19
ENDBRANCH  14  15
ENDBRANCH  13  14
ENDBRANCH  10  13
ENDBRANCH   8   9
BRANCH   8  38
HETATM   38  O   UNK N   1      34.599  17.987   7.053  0.00  0.00    -0.385 OA
HETATM   39  H   UNK N   1      34.926  18.518   7.796  0.00  0.00     0.210 HD
ENDBRANCH   8  38
ENDBRANCH   5   8
ENDBRANCH   4   5
ENDBRANCH   3   4
ENDBRANCH   1   3
BRANCH   1  40
HETATM   40  O   UNK N   1      29.331  18.087   6.471  0.00  0.00    -0.307 OA
HETATM   41  H   UNK N   1      29.154  18.525   7.318  0.00  0.00     0.222 HD
ENDBRANCH   1  40
BRANCH   1  42
HETATM   42  O   UNK N   1      28.335  17.776   3.813  0.00  0.00    -0.195 OA
BRANCH  42  43
HETATM   43  P   UNK N   1      27.234  18.929   4.517  0.00  0.00     0.401 P 
HETATM   44  O   UNK N   1      28.067  20.184   4.901  0.00  0.00    -0.631 OA
BRANCH  43  45
HETATM   45  O   UNK N   1      26.603  18.310   6.011  0.00  0.00    -0.307 OA
HETATM   46  H   UNK N   1      26.205  18.315   6.896  0.00  0.00     0.222 HD
ENDBRANCH  43  45
BRANCH  43  47
HETATM   47  O   UNK N   1      25.916  19.400   3.455  0.00  0.00    -0.294 OA
BRANCH  47  48
HETATM   48  C   UNK N   1      24.823  19.761   4.241  0.00  0.00     0.215 C 
BRANCH  48  49
HETATM   49  C   UNK N   1      23.834  18.627   4.174  0.00  0.00     0.180 C 
HETATM   50  O   UNK N   1      23.809  17.838   5.317  0.00  0.00    -0.353 OA
HETATM   51  C   UNK N   1      22.814  16.959   4.901  0.00  0.00     0.262 C 
HETATM   52  C   UNK N   1      21.751  17.626   4.035  0.00  0.00     0.199 C 
HETATM   53  C   UNK N   1      22.392  18.985   3.875  0.00  0.00     0.197 C 
BRANCH  51  54
HETATM   54  N   UNK N   1      22.582  15.792   5.735  0.00  0.00    -0.297 N 
HETATM   55  C   UNK N   1      23.109  14.562   5.523  0.00  0.00     0.188 A 
HETATM   56  N   UNK N   1      22.719  13.683   6.487  0.00  0.00    -0.346 N 
HETATM   57  C   UNK N   1      21.936  14.412   7.302  0.00  0.00     0.122 A 
ATOM     58  HN  UNK N   1      22.965  12.697   6.573  1.00  0.00     0.167 HD
HETATM   59  C   UNK N   1      21.259  14.043   8.451  0.00  0.00     0.131 A 
HETATM   60  C   UNK N   1      21.858  15.678   6.853  0.00  0.00     0.142 A 
HETATM   61  N   UNK N   1      20.522  14.996   9.096  0.00  0.00    -0.337 N 
HETATM   62  C   UNK N   1      20.460  16.284   8.620  0.00  0.00     0.183 A 
ATOM     63  HN  UNK N   1      20.010  14.748   9.943  1.00  0.00     0.168 HD
HETATM   64  N   UNK N   1      21.139  16.635   7.485  0.00  0.00    -0.336 N 
ATOM     65  HN  UNK N   1      21.105  17.589   7.128  1.00  0.00     0.168 HD
BRANCH  59  66
HETATM   66  N   UNK N   1      21.324  12.725   8.946  0.00  0.00    -0.383 N 
HETATM   67  H   UNK N   1      20.662  12.406   9.601  0.00  0.00     0.157 HD
HETATM   68  H   UNK N   1      22.035  12.120   8.634  0.00  0.00     0.157 HD
ENDBRANCH  59  66
ENDBRANCH  51  54
BRANCH  52  69
HETATM   69  O   UNK N   1      20.534  17.779   4.693  0.00  0.00    -0.388 OA
HETATM   70  H   UNK N   1      19.680  17.563   4.285  0.00  0.00     0.210 HD
ENDBRANCH  52  69
BRANCH  53  71
HETATM   71  O   UNK N   1      22.228  19.479   2.577  0.00  0.00    -0.286 OA
BRANCH  71  72
HETATM   72  P   UNK N   1      20.669  20.270   2.540  0.00  0.00     0.391 P 
HETATM   73  O   UNK N   1      20.350  20.774   3.972  0.00  0.00    -0.632 OA
BRANCH  72  74
HETATM   74  O   UNK N   1      20.724  21.670   1.515  0.00  0.00    -0.307 OA
HETATM   75  H   UNK N   1      21.257  22.137   0.853  0.00  0.00     0.222 HD
ENDBRANCH  72  74
BRANCH  72  76
HETATM   76  O   UNK N   1      19.368  19.224   2.062  0.00  0.00    -0.307 OA
HETATM   77  H   UNK N   1      18.419  19.415   1.995  0.00  0.00     0.222 HD
ENDBRANCH  72  76
ENDBRANCH  71  72
ENDBRANCH  53  71
ENDBRANCH  48  49
ENDBRANCH  47  48
ENDBRANCH  43  47
ENDBRANCH  42  43
ENDBRANCH   1  42
TORSDOF 33
ENDMDL
MODEL 7
REMARK VINA RESULT:      -7.6      5.591     14.369
REMARK WARNING: 32 MAX_TORS EXCEEDED!!!
REMARK  33 active torsions:
REMARK  status: ('A' for Active; 'I' for Inactive)
REMARK    1  A    between atoms: O_2  and  C_3 
REMARK    2  A    between atoms: C_5  and  C_6 
REMARK    3  A    between atoms: C_6  and  C_7 
REMARK    4  A    between atoms: C_7  and  C_8 
REMARK    5  A    between atoms: C_8  and  S_10 
REMARK    6  A    between atoms: S_10  and  C_11 
REMARK    7  A    between atoms: C_11  and  C_12 
REMARK    8  A    between atoms: C_12  and  N_13 
REMARK       I    between atoms: N_13  and  C_14 
REMARK    9  A    between atoms: C_14  and  C_16 
REMARK   10  A    between atoms: C_16  and  C_17 
REMARK   11  A    between atoms: C_17  and  N_18 
REMARK       I    between atoms: N_18  and  C_19 
REMARK   12  A    between atoms: C_19  and  C_21 
REMARK   13  A    between atoms: C_21  and  O_22 
REMARK   14  A    between atoms: C_21  and  C_23 
REMARK   15  A    between atoms: C_23  and  C_26 
REMARK   16  A    between atoms: C_26  and  O_27 
REMARK   17  A    between atoms: P_28  and  O_27 
REMARK   18  A    between atoms: P_28  and  O_29 
REMARK   19  A    between atoms: P_28  and  O_31 
REMARK   20  A    between atoms: P_32  and  O_31 
REMARK   21  A    between atoms: P_32  and  O_33 
REMARK   22  A    between atoms: P_32  and  O_35 
REMARK   23  A    between atoms: O_35  and  C_36 
REMARK   24  A    between atoms: C_37  and  C_36 
REMARK   25  A    between atoms: C_39  and  N_48 
REMARK   26  A    between atoms: C_40  and  O_41 
REMARK   27  A    between atoms: C_42  and  O_43 
REMARK   28  A    between atoms: O_43  and  P_44 
REMARK   29  A    between atoms: P_44  and  O_45 
REMARK   30  A    between atoms: P_44  and  O_46 
REMARK   31  A    between atoms: C_53  and  N_54 
REMARK   32  A    between atoms: C_62  and  O_63 
REMARK   33  A    between atoms: C_64  and  O_65 
ROOT
HETATM    1  P   UNK N   1      23.275  14.333   1.834  0.00  0.00     0.401 P 
HETATM    2  O   UNK N   1      23.301  12.799   1.595  0.00  0.00    -0.631 OA
ENDROOT
BRANCH   1   3
HETATM    3  O   UNK N   1      24.858  14.958   1.476  0.00  0.00    -0.296 OA
BRANCH   3   4
HETATM    4  C   UNK N   1      25.786  14.260   2.256  0.00  0.00     0.192 C 
BRANCH   4   5
HETATM    5  C   UNK N   1      26.476  15.233   3.213  0.00  0.00     0.009 C 
HETATM    6  C   UNK N   1      25.951  16.633   2.959  0.00  0.00     0.020 C 
HETATM    7  C   UNK N   1      27.959  15.245   2.903  0.00  0.00     0.020 C 
BRANCH   5   8
HETATM    8  C   UNK N   1      26.169  14.834   4.676  0.00  0.00     0.219 C 
BRANCH   8   9
HETATM    9  C   UNK N   1      25.537  15.916   5.523  0.00  0.00     0.247 C 
HETATM   10  N   UNK N   1      26.254  16.683   6.375  0.00  0.00    -0.358 N 
HETATM   11  H   UNK N   1      25.773  17.314   6.956  0.00  0.00     0.162 HD
HETATM   12  O   UNK N   1      24.335  16.102   5.431  0.00  0.00    -0.271 OA
BRANCH  10  13
HETATM   13  C   UNK N   1      27.690  16.617   6.472  0.00  0.00     0.132 C 
BRANCH  13  14
HETATM   14  C   UNK N   1      28.290  17.781   7.258  0.00  0.00     0.122 C 
BRANCH  14  15
HETATM   15  C   UNK N   1      28.467  17.583   8.741  0.00  0.00     0.219 C 
HETATM   16  N   UNK N   1      29.690  17.517   9.340  0.00  0.00    -0.360 N 
HETATM   17  H   UNK N   1      29.709  17.275  10.294  0.00  0.00     0.162 HD
HETATM   18  O   UNK N   1      27.465  17.436   9.423  0.00  0.00    -0.274 OA
BRANCH  16  19
HETATM   19  C   UNK N   1      30.967  17.772   8.696  0.00  0.00     0.133 C 
BRANCH  19  20
HETATM   20  C   UNK N   1      31.546  16.542   8.012  0.00  0.00     0.102 C 
BRANCH  20  21
HETATM   21  S   UNK N   1      32.472  16.971   6.508  0.00  0.00    -0.086 SA
BRANCH  21  22
HETATM   22  C   UNK N   1      34.053  16.309   7.067  0.00  0.00     0.208 C 
HETATM   23  O   UNK N   1      35.019  16.411   6.332  0.00  0.00    -0.281 OA
BRANCH  22  24
HETATM   24  C   UNK N   1      34.159  15.634   8.384  0.00  0.00     0.063 C 
BRANCH  24  25
HETATM   25  C   UNK N   1      35.009  15.905   9.390  0.00  0.00     0.016 C 
BRANCH  25  26
HETATM   26  C   UNK N   1      35.717  14.962  10.279  0.00  0.00    -0.031 A 
HETATM   27  C   UNK N   1      35.002  14.395  11.335  0.00  0.00     0.051 A 
HETATM   28  C   UNK N   1      35.602  13.491  12.216  0.00  0.00     0.104 A 
HETATM   29  C   UNK N   1      36.960  13.131  12.011  0.00  0.00     0.132 A 
HETATM   30  C   UNK N   1      37.672  13.692  10.941  0.00  0.00     0.102 A 
HETATM   31  C   UNK N   1      37.052  14.602  10.089  0.00  0.00     0.051 A 
BRANCH  28  32
HETATM   32  O   UNK N   1      34.841  13.003  13.229  0.00  0.00    -0.353 OA
HETATM   33  C   UNK N   1      35.056  13.228  14.569  0.00  0.00     0.210 C 
ENDBRANCH  28  32
BRANCH  29  34
HETATM   34  O   UNK N   1      37.582  12.256  12.821  0.00  0.00    -0.356 OA
HETATM   35  H   UNK N   1      38.514  12.189  12.892  0.00  0.00     0.218 HD
ENDBRANCH  29  34
BRANCH  30  36
HETATM   36  O   UNK N   1      38.955  13.354  10.728  0.00  0.00    -0.358 OA
HETATM   37  H   UNK N   1      39.352  12.523  10.904  0.00  0.00     0.217 HD
ENDBRANCH  30  36
ENDBRANCH  25  26
ENDBRANCH  24  25
ENDBRANCH  22  24
ENDBRANCH  21  22
ENDBRANCH  20  21
ENDBRANCH  19  20
ENDBRANCH  16  19
ENDBRANCH  14  15
ENDBRANCH  13  14
ENDBRANCH  10  13
ENDBRANCH   8   9
BRANCH   8  38
HETATM   38  O   UNK N   1      25.503  13.610   4.794  0.00  0.00    -0.385 OA
HETATM   39  H   UNK N   1      24.689  13.434   4.296  0.00  0.00     0.210 HD
ENDBRANCH   8  38
ENDBRANCH   5   8
ENDBRANCH   4   5
ENDBRANCH   3   4
ENDBRANCH   1   3
BRANCH   1  40
HETATM   40  O   UNK N   1      22.939  14.552   3.523  0.00  0.00    -0.307 OA
HETATM   41  H   UNK N   1      22.910  14.943   4.409  0.00  0.00     0.222 HD
ENDBRANCH   1  40
BRANCH   1  42
HETATM   42  O   UNK N   1      21.990  15.010   0.869  0.00  0.00    -0.195 OA
BRANCH  42  43
HETATM   43  P   UNK N   1      20.503  14.256   1.375  0.00  0.00     0.401 P 
HETATM   44  O   UNK N   1      20.240  13.066   0.411  0.00  0.00    -0.631 OA
BRANCH  43  45
HETATM   45  O   UNK N   1      19.175  15.351   1.142  0.00  0.00    -0.307 OA
HETATM   46  H   UNK N   1      18.315  15.773   1.291  0.00  0.00     0.222 HD
ENDBRANCH  43  45
BRANCH  43  47
HETATM   47  O   UNK N   1      20.522  13.678   3.034  0.00  0.00    -0.294 OA
BRANCH  47  48
HETATM   48  C   UNK N   1      19.324  14.045   3.644  0.00  0.00     0.215 C 
BRANCH  48  49
HETATM   49  C   UNK N   1      19.673  14.680   4.964  0.00  0.00     0.180 C 
HETATM   50  O   UNK N   1      20.408  13.853   5.805  0.00  0.00    -0.353 OA
HETATM   51  C   UNK N   1      20.543  14.751   6.859  0.00  0.00     0.262 C 
HETATM   52  C   UNK N   1      20.673  16.199   6.397  0.00  0.00     0.199 C 
HETATM   53  C   UNK N   1      20.411  16.003   4.922  0.00  0.00     0.197 C 
BRANCH  51  54
HETATM   54  N   UNK N   1      21.099  14.230   8.095  0.00  0.00    -0.297 N 
HETATM   55  C   UNK N   1      20.408  14.040   9.246  0.00  0.00     0.188 A 
HETATM   56  N   UNK N   1      21.203  13.521  10.222  0.00  0.00    -0.346 N 
HETATM   57  C   UNK N   1      22.407  13.396   9.636  0.00  0.00     0.122 A 
ATOM     58  HN  UNK N   1      20.945  13.282  11.179  1.00  0.00     0.167 HD
HETATM   59  C   UNK N   1      23.602  12.924  10.150  0.00  0.00     0.131 A 
HETATM   60  C   UNK N   1      22.343  13.817   8.359  0.00  0.00     0.142 A 
HETATM   61  N   UNK N   1      24.692  12.906   9.326  0.00  0.00    -0.337 N 
HETATM   62  C   UNK N   1      24.601  13.337   8.024  0.00  0.00     0.183 A 
ATOM     63  HN  UNK N   1      25.586  12.567   9.682  1.00  0.00     0.168 HD
HETATM   64  N   UNK N   1      23.411  13.796   7.529  0.00  0.00    -0.336 N 
ATOM     65  HN  UNK N   1      23.332  14.112   6.562  1.00  0.00     0.168 HD
BRANCH  59  66
HETATM   66  N   UNK N   1      23.698  12.476  11.482  0.00  0.00    -0.383 N 
HETATM   67  H   UNK N   1      23.565  13.103  12.229  0.00  0.00     0.157 HD
HETATM   68  H   UNK N   1      23.898  11.530  11.667  0.00  0.00     0.157 HD
ENDBRANCH  59  66
ENDBRANCH  51  54
BRANCH  52  69
HETATM   69  O   UNK N   1      21.959  16.706   6.561  0.00  0.00    -0.388 OA
HETATM   70  H   UNK N   1      22.137  17.611   6.861  0.00  0.00     0.210 HD
ENDBRANCH  52  69
BRANCH  53  71
HETATM   71  O   UNK N   1      19.621  17.033   4.401  0.00  0.00    -0.286 OA
BRANCH  71  72
HETATM   72  P   UNK N   1      20.667  17.996   3.385  0.00  0.00     0.391 P 
HETATM   73  O   UNK N   1      20.621  19.461   3.897  0.00  0.00    -0.632 OA
BRANCH  72  74
HETATM   74  O   UNK N   1      22.313  17.465   3.531  0.00  0.00    -0.307 OA
HETATM   75  H   UNK N   1      22.913  16.719   3.374  0.00  0.00     0.222 HD
ENDBRANCH  72  74
BRANCH  72  76
HETATM   76  O   UNK N   1      20.187  18.021   1.716  0.00  0.00    -0.307 OA
HETATM   77  H   UNK N   1      19.340  17.767   1.317  0.00  0.00     0.222 HD
ENDBRANCH  72  76
ENDBRANCH  71  72
ENDBRANCH  53  71
ENDBRANCH  48  49
ENDBRANCH  47  48
ENDBRANCH  43  47
ENDBRANCH  42  43
ENDBRANCH   1  42
TORSDOF 33
ENDMDL
MODEL 8
REMARK VINA RESULT:      -7.6      5.882     12.047
REMARK WARNING: 32 MAX_TORS EXCEEDED!!!
REMARK  33 active torsions:
REMARK  status: ('A' for Active; 'I' for Inactive)
REMARK    1  A    between atoms: O_2  and  C_3 
REMARK    2  A    between atoms: C_5  and  C_6 
REMARK    3  A    between atoms: C_6  and  C_7 
REMARK    4  A    between atoms: C_7  and  C_8 
REMARK    5  A    between atoms: C_8  and  S_10 
REMARK    6  A    between atoms: S_10  and  C_11 
REMARK    7  A    between atoms: C_11  and  C_12 
REMARK    8  A    between atoms: C_12  and  N_13 
REMARK       I    between atoms: N_13  and  C_14 
REMARK    9  A    between atoms: C_14  and  C_16 
REMARK   10  A    between atoms: C_16  and  C_17 
REMARK   11  A    between atoms: C_17  and  N_18 
REMARK       I    between atoms: N_18  and  C_19 
REMARK   12  A    between atoms: C_19  and  C_21 
REMARK   13  A    between atoms: C_21  and  O_22 
REMARK   14  A    between atoms: C_21  and  C_23 
REMARK   15  A    between atoms: C_23  and  C_26 
REMARK   16  A    between atoms: C_26  and  O_27 
REMARK   17  A    between atoms: P_28  and  O_27 
REMARK   18  A    between atoms: P_28  and  O_29 
REMARK   19  A    between atoms: P_28  and  O_31 
REMARK   20  A    between atoms: P_32  and  O_31 
REMARK   21  A    between atoms: P_32  and  O_33 
REMARK   22  A    between atoms: P_32  and  O_35 
REMARK   23  A    between atoms: O_35  and  C_36 
REMARK   24  A    between atoms: C_37  and  C_36 
REMARK   25  A    between atoms: C_39  and  N_48 
REMARK   26  A    between atoms: C_40  and  O_41 
REMARK   27  A    between atoms: C_42  and  O_43 
REMARK   28  A    between atoms: O_43  and  P_44 
REMARK   29  A    between atoms: P_44  and  O_45 
REMARK   30  A    between atoms: P_44  and  O_46 
REMARK   31  A    between atoms: C_53  and  N_54 
REMARK   32  A    between atoms: C_62  and  O_63 
REMARK   33  A    between atoms: C_64  and  O_65 
ROOT
HETATM    1  P   UNK N   1      29.903  14.947   4.892  0.00  0.00     0.401 P 
HETATM    2  O   UNK N   1      30.391  13.708   5.690  0.00  0.00    -0.631 OA
ENDROOT
BRANCH   1   3
HETATM    3  O   UNK N   1      30.982  16.266   5.239  0.00  0.00    -0.296 OA
BRANCH   3   4
HETATM    4  C   UNK N   1      32.035  15.771   6.015  0.00  0.00     0.192 C 
BRANCH   4   5
HETATM    5  C   UNK N   1      33.248  16.692   5.867  0.00  0.00     0.009 C 
HETATM    6  C   UNK N   1      33.071  17.548   4.628  0.00  0.00     0.020 C 
HETATM    7  C   UNK N   1      34.480  15.836   5.652  0.00  0.00     0.020 C 
BRANCH   5   8
HETATM    8  C   UNK N   1      33.361  17.610   7.107  0.00  0.00     0.219 C 
BRANCH   8   9
HETATM    9  C   UNK N   1      32.982  16.968   8.423  0.00  0.00     0.247 C 
HETATM   10  N   UNK N   1      31.809  17.224   9.046  0.00  0.00    -0.358 N 
HETATM   11  H   UNK N   1      31.657  16.838   9.937  0.00  0.00     0.162 HD
HETATM   12  O   UNK N   1      33.768  16.191   8.941  0.00  0.00    -0.271 OA
BRANCH  10  13
HETATM   13  C   UNK N   1      30.772  18.037   8.462  0.00  0.00     0.132 C 
BRANCH  13  14
HETATM   14  C   UNK N   1      29.680  18.419   9.459  0.00  0.00     0.122 C 
BRANCH  14  15
HETATM   15  C   UNK N   1      28.274  17.994   9.125  0.00  0.00     0.219 C 
HETATM   16  N   UNK N   1      27.469  18.696   8.276  0.00  0.00    -0.360 N 
HETATM   17  H   UNK N   1      26.531  18.404   8.205  0.00  0.00     0.162 HD
HETATM   18  O   UNK N   1      27.830  16.998   9.672  0.00  0.00    -0.274 OA
BRANCH  16  19
HETATM   19  C   UNK N   1      27.871  19.835   7.470  0.00  0.00     0.133 C 
BRANCH  19  20
HETATM   20  C   UNK N   1      28.035  19.493   5.996  0.00  0.00     0.102 C 
BRANCH  20  21
HETATM   21  S   UNK N   1      26.555  18.686   5.316  0.00  0.00    -0.086 SA
BRANCH  21  22
HETATM   22  C   UNK N   1      26.503  19.646   3.790  0.00  0.00     0.208 C 
HETATM   23  O   UNK N   1      27.516  20.218   3.428  0.00  0.00    -0.281 OA
BRANCH  22  24
HETATM   24  C   UNK N   1      25.242  19.752   3.014  0.00  0.00     0.063 C 
BRANCH  24  25
HETATM   25  C   UNK N   1      24.138  20.456   3.316  0.00  0.00     0.016 C 
BRANCH  25  26
HETATM   26  C   UNK N   1      22.726  20.124   3.037  0.00  0.00    -0.031 A 
HETATM   27  C   UNK N   1      22.095  19.199   3.871  0.00  0.00     0.051 A 
HETATM   28  C   UNK N   1      20.760  18.836   3.673  0.00  0.00     0.104 A 
HETATM   29  C   UNK N   1      20.033  19.442   2.614  0.00  0.00     0.132 A 
HETATM   30  C   UNK N   1      20.666  20.381   1.787  0.00  0.00     0.102 A 
HETATM   31  C   UNK N   1      22.003  20.711   1.998  0.00  0.00     0.051 A 
BRANCH  28  32
HETATM   32  O   UNK N   1      20.228  17.913   4.516  0.00  0.00    -0.353 OA
HETATM   33  C   UNK N   1      19.640  16.730   4.136  0.00  0.00     0.210 C 
ENDBRANCH  28  32
BRANCH  29  34
HETATM   34  O   UNK N   1      18.743  19.139   2.388  0.00  0.00    -0.356 OA
HETATM   35  H   UNK N   1      18.458  18.315   2.044  0.00  0.00     0.218 HD
ENDBRANCH  29  34
BRANCH  30  36
HETATM   36  O   UNK N   1      19.989  20.970   0.787  0.00  0.00    -0.358 OA
HETATM   37  H   UNK N   1      20.287  21.093  -0.093  0.00  0.00     0.217 HD
ENDBRANCH  30  36
ENDBRANCH  25  26
ENDBRANCH  24  25
ENDBRANCH  22  24
ENDBRANCH  21  22
ENDBRANCH  20  21
ENDBRANCH  19  20
ENDBRANCH  16  19
ENDBRANCH  14  15
ENDBRANCH  13  14
ENDBRANCH  10  13
ENDBRANCH   8   9
BRANCH   8  38
HETATM   38  O   UNK N   1      34.574  18.303   7.182  0.00  0.00    -0.385 OA
HETATM   39  H   UNK N   1      35.407  17.833   7.342  0.00  0.00     0.210 HD
ENDBRANCH   8  38
ENDBRANCH   5   8
ENDBRANCH   4   5
ENDBRANCH   3   4
ENDBRANCH   1   3
BRANCH   1  40
HETATM   40  O   UNK N   1      28.323  15.322   5.504  0.00  0.00    -0.307 OA
HETATM   41  H   UNK N   1      27.380  15.545   5.534  0.00  0.00     0.222 HD
ENDBRANCH   1  40
BRANCH   1  42
HETATM   42  O   UNK N   1      29.811  14.506   3.208  0.00  0.00    -0.195 OA
BRANCH  42  43
HETATM   43  P   UNK N   1      28.157  14.719   2.701  0.00  0.00     0.401 P 
HETATM   44  O   UNK N   1      28.125  14.546   1.156  0.00  0.00    -0.631 OA
BRANCH  43  45
HETATM   45  O   UNK N   1      27.650  16.352   3.002  0.00  0.00    -0.307 OA
HETATM   46  H   UNK N   1      27.627  17.230   3.414  0.00  0.00     0.222 HD
ENDBRANCH  43  45
BRANCH  43  47
HETATM   47  O   UNK N   1      27.031  13.592   3.443  0.00  0.00    -0.294 OA
BRANCH  47  48
HETATM   48  C   UNK N   1      26.183  13.100   2.453  0.00  0.00     0.215 C 
BRANCH  48  49
HETATM   49  C   UNK N   1      24.869  13.822   2.595  0.00  0.00     0.180 C 
HETATM   50  O   UNK N   1      23.797  13.151   2.020  0.00  0.00    -0.353 OA
HETATM   51  C   UNK N   1      22.812  14.075   2.354  0.00  0.00     0.262 C 
HETATM   52  C   UNK N   1      23.058  14.749   3.701  0.00  0.00     0.199 C 
HETATM   53  C   UNK N   1      24.432  14.195   3.997  0.00  0.00     0.197 C 
BRANCH  51  54
HETATM   54  N   UNK N   1      21.501  13.877   1.762  0.00  0.00    -0.297 N 
HETATM   55  C   UNK N   1      20.830  12.699   1.721  0.00  0.00     0.188 A 
HETATM   56  N   UNK N   1      19.619  12.840   1.116  0.00  0.00    -0.346 N 
HETATM   57  C   UNK N   1      19.562  14.142   0.787  0.00  0.00     0.122 A 
ATOM     58  HN  UNK N   1      18.914  12.121   0.950  1.00  0.00     0.167 HD
HETATM   59  C   UNK N   1      18.565  14.857   0.148  0.00  0.00     0.131 A 
HETATM   60  C   UNK N   1      20.689  14.765   1.179  0.00  0.00     0.142 A 
HETATM   61  N   UNK N   1      18.767  16.191  -0.068  0.00  0.00    -0.337 N 
HETATM   62  C   UNK N   1      19.925  16.805   0.345  0.00  0.00     0.183 A 
ATOM     63  HN  UNK N   1      18.049  16.738  -0.541  1.00  0.00     0.168 HD
HETATM   64  N   UNK N   1      20.900  16.087   0.981  0.00  0.00    -0.336 N 
ATOM     65  HN  UNK N   1      21.761  16.535   1.297  1.00  0.00     0.168 HD
BRANCH  59  66
HETATM   66  N   UNK N   1      17.373  14.232  -0.272  0.00  0.00    -0.383 N 
HETATM   67  H   UNK N   1      16.925  13.575   0.308  0.00  0.00     0.157 HD
HETATM   68  H   UNK N   1      16.988  14.453  -1.150  0.00  0.00     0.157 HD
ENDBRANCH  59  66
ENDBRANCH  51  54
BRANCH  52  69
HETATM   69  O   UNK N   1      22.178  14.321   4.689  0.00  0.00    -0.388 OA
HETATM   70  H   UNK N   1      22.420  13.675   5.371  0.00  0.00     0.210 HD
ENDBRANCH  52  69
BRANCH  53  71
HETATM   71  O   UNK N   1      25.262  15.163   4.570  0.00  0.00    -0.286 OA
BRANCH  71  72
HETATM   72  P   UNK N   1      24.760  15.325   6.237  0.00  0.00     0.391 P 
HETATM   73  O   UNK N   1      24.320  13.927   6.746  0.00  0.00    -0.632 OA
BRANCH  72  74
HETATM   74  O   UNK N   1      26.095  15.823   7.227  0.00  0.00    -0.307 OA
HETATM   75  H   UNK N   1      26.413  16.519   7.823  0.00  0.00     0.222 HD
ENDBRANCH  72  74
BRANCH  72  76
HETATM   76  O   UNK N   1      23.412  16.398   6.457  0.00  0.00    -0.307 OA
HETATM   77  H   UNK N   1      23.368  17.234   6.947  0.00  0.00     0.222 HD
ENDBRANCH  72  76
ENDBRANCH  71  72
ENDBRANCH  53  71
ENDBRANCH  48  49
ENDBRANCH  47  48
ENDBRANCH  43  47
ENDBRANCH  42  43
ENDBRANCH   1  42
TORSDOF 33
ENDMDL
MODEL 9
REMARK VINA RESULT:      -7.4      3.857     14.486
REMARK WARNING: 32 MAX_TORS EXCEEDED!!!
REMARK  33 active torsions:
REMARK  status: ('A' for Active; 'I' for Inactive)
REMARK    1  A    between atoms: O_2  and  C_3 
REMARK    2  A    between atoms: C_5  and  C_6 
REMARK    3  A    between atoms: C_6  and  C_7 
REMARK    4  A    between atoms: C_7  and  C_8 
REMARK    5  A    between atoms: C_8  and  S_10 
REMARK    6  A    between atoms: S_10  and  C_11 
REMARK    7  A    between atoms: C_11  and  C_12 
REMARK    8  A    between atoms: C_12  and  N_13 
REMARK       I    between atoms: N_13  and  C_14 
REMARK    9  A    between atoms: C_14  and  C_16 
REMARK   10  A    between atoms: C_16  and  C_17 
REMARK   11  A    between atoms: C_17  and  N_18 
REMARK       I    between atoms: N_18  and  C_19 
REMARK   12  A    between atoms: C_19  and  C_21 
REMARK   13  A    between atoms: C_21  and  O_22 
REMARK   14  A    between atoms: C_21  and  C_23 
REMARK   15  A    between atoms: C_23  and  C_26 
REMARK   16  A    between atoms: C_26  and  O_27 
REMARK   17  A    between atoms: P_28  and  O_27 
REMARK   18  A    between atoms: P_28  and  O_29 
REMARK   19  A    between atoms: P_28  and  O_31 
REMARK   20  A    between atoms: P_32  and  O_31 
REMARK   21  A    between atoms: P_32  and  O_33 
REMARK   22  A    between atoms: P_32  and  O_35 
REMARK   23  A    between atoms: O_35  and  C_36 
REMARK   24  A    between atoms: C_37  and  C_36 
REMARK   25  A    between atoms: C_39  and  N_48 
REMARK   26  A    between atoms: C_40  and  O_41 
REMARK   27  A    between atoms: C_42  and  O_43 
REMARK   28  A    between atoms: O_43  and  P_44 
REMARK   29  A    between atoms: P_44  and  O_45 
REMARK   30  A    between atoms: P_44  and  O_46 
REMARK   31  A    between atoms: C_53  and  N_54 
REMARK   32  A    between atoms: C_62  and  O_63 
REMARK   33  A    between atoms: C_64  and  O_65 
ROOT
HETATM    1  P   UNK N   1      32.635  14.386   7.418  0.00  0.00     0.401 P 
HETATM    2  O   UNK N   1      32.367  13.915   8.874  0.00  0.00    -0.631 OA
ENDROOT
BRANCH   1   3
HETATM    3  O   UNK N   1      34.309  14.080   7.057  0.00  0.00    -0.296 OA
BRANCH   3   4
HETATM    4  C   UNK N   1      34.727  12.991   7.829  0.00  0.00     0.192 C 
BRANCH   4   5
HETATM    5  C   UNK N   1      36.193  13.184   8.222  0.00  0.00     0.009 C 
HETATM    6  C   UNK N   1      36.921  13.881   7.090  0.00  0.00     0.020 C 
HETATM    7  C   UNK N   1      36.829  11.820   8.395  0.00  0.00     0.020 C 
BRANCH   5   8
HETATM    8  C   UNK N   1      36.281  14.057   9.497  0.00  0.00     0.219 C 
BRANCH   8   9
HETATM    9  C   UNK N   1      37.644  14.109  10.151  0.00  0.00     0.247 C 
HETATM   10  N   UNK N   1      37.906  13.509  11.334  0.00  0.00    -0.358 N 
HETATM   11  H   UNK N   1      38.788  13.647  11.746  0.00  0.00     0.162 HD
HETATM   12  O   UNK N   1      38.540  14.717   9.588  0.00  0.00    -0.271 OA
BRANCH  10  13
HETATM   13  C   UNK N   1      36.950  12.676  12.020  0.00  0.00     0.132 C 
BRANCH  13  14
HETATM   14  C   UNK N   1      37.554  11.370  12.532  0.00  0.00     0.122 C 
BRANCH  14  15
HETATM   15  C   UNK N   1      37.684  11.219  14.025  0.00  0.00     0.219 C 
HETATM   16  N   UNK N   1      37.489  10.033  14.671  0.00  0.00    -0.360 N 
HETATM   17  H   UNK N   1      37.487  10.055  15.655  0.00  0.00     0.162 HD
HETATM   18  O   UNK N   1      37.937  12.216  14.682  0.00  0.00    -0.274 OA
BRANCH  16  19
HETATM   19  C   UNK N   1      37.286   8.743  14.036  0.00  0.00     0.133 C 
BRANCH  19  20
HETATM   20  C   UNK N   1      35.832   8.293  14.053  0.00  0.00     0.102 C 
BRANCH  20  21
HETATM   21  S   UNK N   1      35.032   8.510  12.436  0.00  0.00    -0.086 SA
BRANCH  21  22
HETATM   22  C   UNK N   1      34.214  10.065  12.840  0.00  0.00     0.208 C 
HETATM   23  O   UNK N   1      33.889  10.805  11.928  0.00  0.00    -0.281 OA
BRANCH  22  24
HETATM   24  C   UNK N   1      33.968  10.436  14.255  0.00  0.00     0.063 C 
BRANCH  24  25
HETATM   25  C   UNK N   1      34.240  11.601  14.868  0.00  0.00     0.016 C 
BRANCH  25  26
HETATM   26  C   UNK N   1      34.658  11.834  16.265  0.00  0.00    -0.031 A 
HETATM   27  C   UNK N   1      34.786  13.155  16.698  0.00  0.00     0.051 A 
HETATM   28  C   UNK N   1      35.174  13.455  18.007  0.00  0.00     0.104 A 
HETATM   29  C   UNK N   1      35.418  12.389  18.913  0.00  0.00     0.132 A 
HETATM   30  C   UNK N   1      35.275  11.064  18.478  0.00  0.00     0.102 A 
HETATM   31  C   UNK N   1      34.903  10.794  17.163  0.00  0.00     0.051 A 
BRANCH  28  32
HETATM   32  O   UNK N   1      35.294  14.766  18.340  0.00  0.00    -0.353 OA
HETATM   33  C   UNK N   1      36.297  15.608  17.919  0.00  0.00     0.210 C 
ENDBRANCH  28  32
BRANCH  29  34
HETATM   34  O   UNK N   1      35.780  12.623  20.187  0.00  0.00    -0.356 OA
HETATM   35  H   UNK N   1      36.661  12.546  20.496  0.00  0.00     0.218 HD
ENDBRANCH  29  34
BRANCH  30  36
HETATM   36  O   UNK N   1      35.494  10.045  19.326  0.00  0.00    -0.358 OA
HETATM   37  H   UNK N   1      34.924   9.754  20.011  0.00  0.00     0.217 HD
ENDBRANCH  30  36
ENDBRANCH  25  26
ENDBRANCH  24  25
ENDBRANCH  22  24
ENDBRANCH  21  22
ENDBRANCH  20  21
ENDBRANCH  19  20
ENDBRANCH  16  19
ENDBRANCH  14  15
ENDBRANCH  13  14
ENDBRANCH  10  13
ENDBRANCH   8   9
BRANCH   8  38
HETATM   38  O   UNK N   1      35.715  15.326   9.346  0.00  0.00    -0.385 OA
HETATM   39  H   UNK N   1      36.098  16.100   9.789  0.00  0.00     0.210 HD
ENDBRANCH   8  38
ENDBRANCH   5   8
ENDBRANCH   4   5
ENDBRANCH   3   4
ENDBRANCH   1   3
BRANCH   1  40
HETATM   40  O   UNK N   1      32.348  16.097   7.405  0.00  0.00    -0.307 OA
HETATM   41  H   UNK N   1      32.073  16.979   7.111  0.00  0.00     0.222 HD
ENDBRANCH   1  40
BRANCH   1  42
HETATM   42  O   UNK N   1      31.505  13.574   6.369  0.00  0.00    -0.195 OA
BRANCH  42  43
HETATM   43  P   UNK N   1      31.526  14.403   4.836  0.00  0.00     0.401 P 
HETATM   44  O   UNK N   1      31.753  13.329   3.736  0.00  0.00    -0.631 OA
BRANCH  43  45
HETATM   45  O   UNK N   1      32.902  15.458   4.752  0.00  0.00    -0.307 OA
HETATM   46  H   UNK N   1      33.596  16.009   4.358  0.00  0.00     0.222 HD
ENDBRANCH  43  45
BRANCH  43  47
HETATM   47  O   UNK N   1      30.056  15.301   4.488  0.00  0.00    -0.294 OA
BRANCH  47  48
HETATM   48  C   UNK N   1      29.378  15.518   5.686  0.00  0.00     0.215 C 
BRANCH  48  49
HETATM   49  C   UNK N   1      28.878  16.939   5.662  0.00  0.00     0.180 C 
HETATM   50  O   UNK N   1      27.681  17.099   4.976  0.00  0.00    -0.353 OA
HETATM   51  C   UNK N   1      27.544  18.469   5.180  0.00  0.00     0.262 C 
HETATM   52  C   UNK N   1      28.073  18.926   6.536  0.00  0.00     0.199 C 
HETATM   53  C   UNK N   1      28.695  17.629   6.999  0.00  0.00     0.197 C 
BRANCH  51  54
HETATM   54  N   UNK N   1      26.488  19.138   4.441  0.00  0.00    -0.297 N 
HETATM   55  C   UNK N   1      26.674  20.129   3.536  0.00  0.00     0.188 A 
HETATM   56  N   UNK N   1      25.491  20.539   3.001  0.00  0.00    -0.346 N 
HETATM   57  C   UNK N   1      24.570  19.768   3.604  0.00  0.00     0.122 A 
ATOM     58  HN  UNK N   1      25.337  21.266   2.301  1.00  0.00     0.167 HD
HETATM   59  C   UNK N   1      23.194  19.741   3.454  0.00  0.00     0.131 A 
HETATM   60  C   UNK N   1      25.169  18.924   4.464  0.00  0.00     0.142 A 
HETATM   61  N   UNK N   1      22.484  18.846   4.203  0.00  0.00    -0.337 N 
HETATM   62  C   UNK N   1      23.119  17.991   5.072  0.00  0.00     0.183 A 
ATOM     63  HN  UNK N   1      21.468  18.810   4.114  1.00  0.00     0.168 HD
HETATM   64  N   UNK N   1      24.480  18.025   5.205  0.00  0.00    -0.336 N 
ATOM     65  HN  UNK N   1      24.961  17.391   5.843  1.00  0.00     0.168 HD
BRANCH  59  66
HETATM   66  N   UNK N   1      22.540  20.612   2.559  0.00  0.00    -0.383 N 
HETATM   67  H   UNK N   1      22.638  20.492   1.587  0.00  0.00     0.157 HD
HETATM   68  H   UNK N   1      21.982  21.344   2.909  0.00  0.00     0.157 HD
ENDBRANCH  59  66
ENDBRANCH  51  54
BRANCH  52  69
HETATM   69  O   UNK N   1      27.058  19.279   7.421  0.00  0.00    -0.388 OA
HETATM   70  H   UNK N   1      27.039  20.125   7.895  0.00  0.00     0.210 HD
ENDBRANCH  52  69
BRANCH  53  71
HETATM   71  O   UNK N   1      29.912  17.850   7.652  0.00  0.00    -0.286 OA
BRANCH  71  72
HETATM   72  P   UNK N   1      29.621  17.572   9.353  0.00  0.00     0.391 P 
HETATM   73  O   UNK N   1      28.141  17.138   9.524  0.00  0.00    -0.632 OA
BRANCH  72  74
HETATM   74  O   UNK N   1      30.599  16.259   9.929  0.00  0.00    -0.307 OA
HETATM   75  H   UNK N   1      31.226  15.992  10.619  0.00  0.00     0.222 HD
ENDBRANCH  72  74
BRANCH  72  76
HETATM   76  O   UNK N   1      29.861  18.980  10.340  0.00  0.00    -0.307 OA
HETATM   77  H   UNK N   1      29.697  19.913  10.128  0.00  0.00     0.222 HD
ENDBRANCH  72  76
ENDBRANCH  71  72
ENDBRANCH  53  71
ENDBRANCH  48  49
ENDBRANCH  47  48
ENDBRANCH  43  47
ENDBRANCH  42  43
ENDBRANCH   1  42
TORSDOF 33
ENDMDL
