MODEL 1
REMARK VINA RESULT:      -6.5      0.000      0.000
REMARK  15 active torsions:
REMARK  status: ('A' for Active; 'I' for Inactive)
REMARK    1  A    between atoms: C_4  and  C_3 
REMARK    2  A    between atoms: C_5  and  C_3 
REMARK    3  A    between atoms: C_6  and  C_4 
REMARK    4  A    between atoms: C_8  and  C_5 
REMARK    5  A    between atoms: C_9  and  C_6 
REMARK    6  A    between atoms: C_10  and  C_7 
REMARK    7  A    between atoms: N_18  and  C_7 
REMARK    8  A    between atoms: C_15  and  C_8 
REMARK    9  A    between atoms: C_8  and  N_19 
REMARK   10  A    between atoms: C_9  and  O_24 
REMARK   11  A    between atoms: C_10  and  O_26 
REMARK   12  A    between atoms: C_11  and  N_21 
REMARK   13  A    between atoms: C_12  and  C_16 
REMARK   14  A    between atoms: O_29  and  C_15 
REMARK   15  A    between atoms: O_31  and  C_16 
ROOT
HETATM    1  C   UNK N   1      33.904  13.412   9.447  0.00  0.00     0.111 C 
HETATM    2  N   UNK N   1      34.332  13.430  10.663  0.00  0.00    -0.359 N 
ATOM      3  HN  UNK N   1      33.652  13.474  11.423  1.00  0.00     0.162 HD
ENDROOT
BRANCH   1   4
HETATM    4  C   UNK N   1      34.861  13.262   8.293  0.00  0.00     0.083 C 
BRANCH   4   5
HETATM    5  C   UNK N   1      35.337  14.590   7.758  0.00  0.00     0.008 C 
BRANCH   5   6
HETATM    6  C   UNK N   1      34.391  15.059   6.680  0.00  0.00     0.003 C 
BRANCH   6   7
HETATM    7  C   UNK N   1      34.205  16.562   6.810  0.00  0.00     0.036 C 
BRANCH   7   8
HETATM    8  C   UNK N   1      33.754  16.966   8.211  0.00  0.00     0.181 C 
BRANCH   8   9
HETATM    9  C   UNK N   1      34.764  17.878   8.873  0.00  0.00     0.163 C 
HETATM   10  O   UNK N   1      35.313  17.560   9.919  0.00  0.00    -0.648 OA
BRANCH   9  11
HETATM   11  O   UNK N   1      35.056  19.065   8.313  0.00  0.00    -0.775 OA
HETATM   12  H   UNK N   1      35.405  19.105   7.443  0.00  0.00     0.167 HD
ENDBRANCH   9  11
ENDBRANCH   8   9
BRANCH   8  13
HETATM   13  N   UNK N   1      32.452  17.612   8.165  0.00  0.00    -0.359 N 
HETATM   14  C   UNK N   1      31.400  17.138   8.748  0.00  0.00     0.129 C 
ATOM     15  HN  UNK N   1      32.365  18.485   7.643  1.00  0.00     0.162 HD
BRANCH  14  16
HETATM   16  C   UNK N   1      30.104  17.864   8.636  0.00  0.00     0.195 C 
BRANCH  16  17
HETATM   17  N   UNK N   1      29.899  18.689   9.813  0.00  0.00    -0.423 N 
HETATM   18  H   UNK N   1      29.585  19.651   9.936  0.00  0.00     0.150 HD
HETATM   19  H   UNK N   1      30.110  18.212  10.689  0.00  0.00     0.150 HD
ENDBRANCH  16  17
ENDBRANCH  14  16
BRANCH  14  20
HETATM   20  O   UNK N   1      31.451  15.978   9.438  0.00  0.00    -0.348 OA
HETATM   21  H   UNK N   1      32.130  15.474   9.841  0.00  0.00     0.219 HD
ENDBRANCH  14  20
ENDBRANCH   8  13
ENDBRANCH   7   8
ENDBRANCH   6   7
ENDBRANCH   5   6
ENDBRANCH   4   5
ENDBRANCH   1   4
BRANCH   1  22
HETATM   22  O   UNK N   1      32.580  13.488   9.215  0.00  0.00    -0.350 OA
ATOM     23  HO  UNK N   1      31.975  13.013   9.772  1.00  0.00     0.219 HD
ENDBRANCH   1  22
BRANCH   2  24
HETATM   24  C   UNK N   1      35.740  13.393  10.989  0.00  0.00     0.209 A 
HETATM   25  C   UNK N   1      36.029  14.019  12.299  0.00  0.00     0.247 A 
HETATM   26  N   UNK N   1      36.385  12.938  12.915  0.00  0.00    -0.318 N 
HETATM   27  O   UNK N   1      35.882  15.143  12.758  0.00  0.00    -0.271 OA
HETATM   28  C   UNK N   1      36.608  12.430  14.218  0.00  0.00     0.204 C 
HETATM   29  C   UNK N   1      36.210  12.065  11.828  0.00  0.00     0.183 A 
HETATM   30  C   UNK N   1      35.481  11.363  14.317  0.00  0.00     0.033 C 
HETATM   31  C   UNK N   1      34.187  11.915  14.897  0.00  0.00     0.029 C 
HETATM   32  C   UNK N   1      35.933  10.174  15.146  0.00  0.00     0.029 C 
HETATM   33  S   UNK N   1      35.070  10.837  12.575  0.00  0.00    -0.129 SA
BRANCH  28  34
HETATM   34  C   UNK N   1      36.646  13.488  15.297  0.00  0.00     0.165 C 
HETATM   35  O   UNK N   1      35.854  13.438  16.223  0.00  0.00    -0.648 OA
BRANCH  34  36
HETATM   36  O   UNK N   1      37.563  14.476  15.260  0.00  0.00    -0.775 OA
HETATM   37  H   UNK N   1      38.187  15.146  15.062  0.00  0.00     0.167 HD
ENDBRANCH  34  36
ENDBRANCH  28  34
ENDBRANCH   2  24
TORSDOF 15
ENDMDL
MODEL 2
REMARK VINA RESULT:      -6.4      1.768      2.523
REMARK  15 active torsions:
REMARK  status: ('A' for Active; 'I' for Inactive)
REMARK    1  A    between atoms: C_4  and  C_3 
REMARK    2  A    between atoms: C_5  and  C_3 
REMARK    3  A    between atoms: C_6  and  C_4 
REMARK    4  A    between atoms: C_8  and  C_5 
REMARK    5  A    between atoms: C_9  and  C_6 
REMARK    6  A    between atoms: C_10  and  C_7 
REMARK    7  A    between atoms: N_18  and  C_7 
REMARK    8  A    between atoms: C_15  and  C_8 
REMARK    9  A    between atoms: C_8  and  N_19 
REMARK   10  A    between atoms: C_9  and  O_24 
REMARK   11  A    between atoms: C_10  and  O_26 
REMARK   12  A    between atoms: C_11  and  N_21 
REMARK   13  A    between atoms: C_12  and  C_16 
REMARK   14  A    between atoms: O_29  and  C_15 
REMARK   15  A    between atoms: O_31  and  C_16 
ROOT
HETATM    1  C   UNK N   1      33.553  14.956  10.161  0.00  0.00     0.111 C 
HETATM    2  N   UNK N   1      34.039  14.091  10.984  0.00  0.00    -0.359 N 
ATOM      3  HN  UNK N   1      33.403  13.597  11.610  1.00  0.00     0.162 HD
ENDROOT
BRANCH   1   4
HETATM    4  C   UNK N   1      34.437  15.649   9.157  0.00  0.00     0.083 C 
BRANCH   4   5
HETATM    5  C   UNK N   1      34.471  17.146   9.350  0.00  0.00     0.008 C 
BRANCH   5   6
HETATM    6  C   UNK N   1      33.666  17.805   8.257  0.00  0.00     0.003 C 
BRANCH   6   7
HETATM    7  C   UNK N   1      33.262  16.749   7.240  0.00  0.00     0.036 C 
BRANCH   7   8
HETATM    8  C   UNK N   1      31.755  16.726   7.003  0.00  0.00     0.181 C 
BRANCH   8   9
HETATM    9  C   UNK N   1      31.275  15.335   6.650  0.00  0.00     0.163 C 
HETATM   10  O   UNK N   1      30.367  15.164   5.848  0.00  0.00    -0.648 OA
BRANCH   9  11
HETATM   11  O   UNK N   1      31.843  14.267   7.237  0.00  0.00    -0.775 OA
HETATM   12  H   UNK N   1      32.657  14.354   7.694  0.00  0.00     0.167 HD
ENDBRANCH   9  11
ENDBRANCH   8   9
BRANCH   8  13
HETATM   13  N   UNK N   1      31.044  17.220   8.170  0.00  0.00    -0.359 N 
HETATM   14  C   UNK N   1      29.872  17.764   8.114  0.00  0.00     0.129 C 
ATOM     15  HN  UNK N   1      31.494  17.133   9.083  1.00  0.00     0.162 HD
BRANCH  14  16
HETATM   16  C   UNK N   1      29.224  18.252   9.364  0.00  0.00     0.195 C 
BRANCH  16  17
HETATM   17  N   UNK N   1      27.794  18.389   9.154  0.00  0.00    -0.423 N 
HETATM   18  H   UNK N   1      27.037  18.719   9.753  0.00  0.00     0.150 HD
HETATM   19  H   UNK N   1      27.486  18.100   8.227  0.00  0.00     0.150 HD
ENDBRANCH  16  17
ENDBRANCH  14  16
BRANCH  14  20
HETATM   20  O   UNK N   1      29.235  17.921   6.934  0.00  0.00    -0.348 OA
HETATM   21  H   UNK N   1      28.396  17.679   6.594  0.00  0.00     0.219 HD
ENDBRANCH  14  20
ENDBRANCH   8  13
ENDBRANCH   7   8
ENDBRANCH   6   7
ENDBRANCH   5   6
ENDBRANCH   4   5
ENDBRANCH   1   4
BRANCH   1  22
HETATM   22  O   UNK N   1      32.231  15.208  10.176  0.00  0.00    -0.350 OA
ATOM     23  HO  UNK N   1      31.629  14.602   9.760  1.00  0.00     0.219 HD
ENDBRANCH   1  22
BRANCH   2  24
HETATM   24  C   UNK N   1      35.453  13.797  11.054  0.00  0.00     0.209 A 
HETATM   25  C   UNK N   1      35.984  13.921  12.429  0.00  0.00     0.247 A 
HETATM   26  N   UNK N   1      36.239  12.665  12.613  0.00  0.00    -0.318 N 
HETATM   27  O   UNK N   1      36.066  14.839  13.233  0.00  0.00    -0.271 OA
HETATM   28  C   UNK N   1      36.530  11.735  13.640  0.00  0.00     0.204 C 
HETATM   29  C   UNK N   1      35.808  12.224  11.351  0.00  0.00     0.183 A 
HETATM   30  C   UNK N   1      35.272  10.823  13.580  0.00  0.00     0.033 C 
HETATM   31  C   UNK N   1      34.154  11.288  14.501  0.00  0.00     0.029 C 
HETATM   32  C   UNK N   1      35.629   9.386  13.915  0.00  0.00     0.029 C 
HETATM   33  S   UNK N   1      34.586  10.948  11.850  0.00  0.00    -0.129 SA
BRANCH  28  34
HETATM   34  C   UNK N   1      36.855  12.367  14.974  0.00  0.00     0.165 C 
HETATM   35  O   UNK N   1      36.455  11.849  16.004  0.00  0.00    -0.648 OA
BRANCH  34  36
HETATM   36  O   UNK N   1      37.604  13.486  15.042  0.00  0.00    -0.775 OA
HETATM   37  H   UNK N   1      38.184  14.196  15.236  0.00  0.00     0.167 HD
ENDBRANCH  34  36
ENDBRANCH  28  34
ENDBRANCH   2  24
TORSDOF 15
ENDMDL
MODEL 3
REMARK VINA RESULT:      -6.3      2.905      8.772
REMARK  15 active torsions:
REMARK  status: ('A' for Active; 'I' for Inactive)
REMARK    1  A    between atoms: C_4  and  C_3 
REMARK    2  A    between atoms: C_5  and  C_3 
REMARK    3  A    between atoms: C_6  and  C_4 
REMARK    4  A    between atoms: C_8  and  C_5 
REMARK    5  A    between atoms: C_9  and  C_6 
REMARK    6  A    between atoms: C_10  and  C_7 
REMARK    7  A    between atoms: N_18  and  C_7 
REMARK    8  A    between atoms: C_15  and  C_8 
REMARK    9  A    between atoms: C_8  and  N_19 
REMARK   10  A    between atoms: C_9  and  O_24 
REMARK   11  A    between atoms: C_10  and  O_26 
REMARK   12  A    between atoms: C_11  and  N_21 
REMARK   13  A    between atoms: C_12  and  C_16 
REMARK   14  A    between atoms: O_29  and  C_15 
REMARK   15  A    between atoms: O_31  and  C_16 
ROOT
HETATM    1  C   UNK N   1      36.535  13.873  12.201  0.00  0.00     0.111 C 
HETATM    2  N   UNK N   1      36.172  14.619  11.215  0.00  0.00    -0.359 N 
ATOM      3  HN  UNK N   1      36.722  14.601  10.356  1.00  0.00     0.162 HD
ENDROOT
BRANCH   1   4
HETATM    4  C   UNK N   1      35.710  13.798  13.459  0.00  0.00     0.083 C 
BRANCH   4   5
HETATM    5  C   UNK N   1      36.551  13.869  14.710  0.00  0.00     0.008 C 
BRANCH   5   6
HETATM    6  C   UNK N   1      35.696  13.521  15.903  0.00  0.00     0.003 C 
BRANCH   6   7
HETATM    7  C   UNK N   1      34.815  12.335  15.546  0.00  0.00     0.036 C 
BRANCH   7   8
HETATM    8  C   UNK N   1      35.217  11.071  16.301  0.00  0.00     0.181 C 
BRANCH   8   9
HETATM    9  C   UNK N   1      36.273  10.293  15.548  0.00  0.00     0.163 C 
HETATM   10  O   UNK N   1      37.175   9.716  16.139  0.00  0.00    -0.648 OA
BRANCH   9  11
HETATM   11  O   UNK N   1      36.231  10.243  14.205  0.00  0.00    -0.775 OA
HETATM   12  H   UNK N   1      35.743  10.881  13.722  0.00  0.00     0.167 HD
ENDBRANCH   9  11
ENDBRANCH   8   9
BRANCH   8  13
HETATM   13  N   UNK N   1      35.693  11.401  17.634  0.00  0.00    -0.359 N 
HETATM   14  C   UNK N   1      35.285  10.802  18.705  0.00  0.00     0.129 C 
ATOM     15  HN  UNK N   1      36.387  12.144  17.730  1.00  0.00     0.162 HD
BRANCH  14  16
HETATM   16  C   UNK N   1      35.822  11.215  20.032  0.00  0.00     0.195 C 
BRANCH  16  17
HETATM   17  N   UNK N   1      35.511  12.612  20.275  0.00  0.00    -0.423 N 
HETATM   18  H   UNK N   1      35.881  13.480  19.885  0.00  0.00     0.150 HD
HETATM   19  H   UNK N   1      34.781  12.755  20.971  0.00  0.00     0.150 HD
ENDBRANCH  16  17
ENDBRANCH  14  16
BRANCH  14  20
HETATM   20  O   UNK N   1      34.357   9.823  18.643  0.00  0.00    -0.348 OA
HETATM   21  H   UNK N   1      34.230   9.000  19.073  0.00  0.00     0.219 HD
ENDBRANCH  14  20
ENDBRANCH   8  13
ENDBRANCH   7   8
ENDBRANCH   6   7
ENDBRANCH   5   6
ENDBRANCH   4   5
ENDBRANCH   1   4
BRANCH   1  22
HETATM   22  O   UNK N   1      37.645  13.120  12.083  0.00  0.00    -0.350 OA
ATOM     23  HO  UNK N   1      38.438  13.500  11.722  1.00  0.00     0.219 HD
ENDBRANCH   1  22
BRANCH   2  24
HETATM   24  C   UNK N   1      35.016  15.484  11.283  0.00  0.00     0.209 A 
HETATM   25  C   UNK N   1      35.125  16.640  10.366  0.00  0.00     0.247 A 
HETATM   26  N   UNK N   1      34.176  16.292   9.559  0.00  0.00    -0.318 N 
HETATM   27  O   UNK N   1      35.905  17.577  10.264  0.00  0.00    -0.271 OA
HETATM   28  C   UNK N   1      33.658  16.577   8.272  0.00  0.00     0.204 C 
HETATM   29  C   UNK N   1      33.820  15.108  10.226  0.00  0.00     0.183 A 
HETATM   30  C   UNK N   1      33.916  15.227   7.543  0.00  0.00     0.033 C 
HETATM   31  C   UNK N   1      35.266  15.176   6.843  0.00  0.00     0.029 C 
HETATM   32  C   UNK N   1      32.820  14.939   6.534  0.00  0.00     0.029 C 
HETATM   33  S   UNK N   1      33.975  13.900   8.852  0.00  0.00    -0.129 SA
BRANCH  28  34
HETATM   34  C   UNK N   1      34.233  17.820   7.634  0.00  0.00     0.165 C 
HETATM   35  O   UNK N   1      34.427  17.850   6.430  0.00  0.00    -0.648 OA
BRANCH  34  36
HETATM   36  O   UNK N   1      34.515  18.908   8.379  0.00  0.00    -0.775 OA
HETATM   37  H   UNK N   1      34.576  19.737   8.813  0.00  0.00     0.167 HD
ENDBRANCH  34  36
ENDBRANCH  28  34
ENDBRANCH   2  24
TORSDOF 15
ENDMDL
MODEL 4
REMARK VINA RESULT:      -6.3     16.469     19.858
REMARK  15 active torsions:
REMARK  status: ('A' for Active; 'I' for Inactive)
REMARK    1  A    between atoms: C_4  and  C_3 
REMARK    2  A    between atoms: C_5  and  C_3 
REMARK    3  A    between atoms: C_6  and  C_4 
REMARK    4  A    between atoms: C_8  and  C_5 
REMARK    5  A    between atoms: C_9  and  C_6 
REMARK    6  A    between atoms: C_10  and  C_7 
REMARK    7  A    between atoms: N_18  and  C_7 
REMARK    8  A    between atoms: C_15  and  C_8 
REMARK    9  A    between atoms: C_8  and  N_19 
REMARK   10  A    between atoms: C_9  and  O_24 
REMARK   11  A    between atoms: C_10  and  O_26 
REMARK   12  A    between atoms: C_11  and  N_21 
REMARK   13  A    between atoms: C_12  and  C_16 
REMARK   14  A    between atoms: O_29  and  C_15 
REMARK   15  A    between atoms: O_31  and  C_16 
ROOT
HETATM    1  C   UNK N   1      27.382  24.620  -3.647  0.00  0.00     0.111 C 
HETATM    2  N   UNK N   1      28.432  23.879  -3.551  0.00  0.00    -0.359 N 
ATOM      3  HN  UNK N   1      28.321  22.865  -3.566  1.00  0.00     0.162 HD
ENDROOT
BRANCH   1   4
HETATM    4  C   UNK N   1      27.498  26.121  -3.718  0.00  0.00     0.083 C 
BRANCH   4   5
HETATM    5  C   UNK N   1      26.186  26.789  -4.046  0.00  0.00     0.008 C 
BRANCH   5   6
HETATM    6  C   UNK N   1      26.243  27.329  -5.454  0.00  0.00     0.003 C 
BRANCH   6   7
HETATM    7  C   UNK N   1      25.180  26.635  -6.290  0.00  0.00     0.036 C 
BRANCH   7   8
HETATM    8  C   UNK N   1      25.787  25.694  -7.327  0.00  0.00     0.181 C 
BRANCH   8   9
HETATM    9  C   UNK N   1      27.203  26.101  -7.676  0.00  0.00     0.163 C 
HETATM   10  O   UNK N   1      28.165  25.526  -7.185  0.00  0.00    -0.648 OA
BRANCH   9  11
HETATM   11  O   UNK N   1      27.411  27.120  -8.529  0.00  0.00    -0.775 OA
HETATM   12  H   UNK N   1      27.903  27.871  -8.259  0.00  0.00     0.167 HD
ENDBRANCH   9  11
ENDBRANCH   8   9
BRANCH   8  13
HETATM   13  N   UNK N   1      25.764  24.321  -6.851  0.00  0.00    -0.359 N 
HETATM   14  C   UNK N   1      25.263  23.341  -7.528  0.00  0.00     0.129 C 
ATOM     15  HN  UNK N   1      26.164  24.121  -5.934  1.00  0.00     0.162 HD
BRANCH  14  16
HETATM   16  C   UNK N   1      25.272  21.966  -6.954  0.00  0.00     0.195 C 
BRANCH  16  17
HETATM   17  N   UNK N   1      23.917  21.449  -6.894  0.00  0.00    -0.423 N 
HETATM   18  H   UNK N   1      23.020  21.886  -6.685  0.00  0.00     0.150 HD
HETATM   19  H   UNK N   1      23.849  20.453  -7.103  0.00  0.00     0.150 HD
ENDBRANCH  16  17
ENDBRANCH  14  16
BRANCH  14  20
HETATM   20  O   UNK N   1      24.705  23.547  -8.741  0.00  0.00    -0.348 OA
HETATM   21  H   UNK N   1      24.534  23.014  -9.493  0.00  0.00     0.219 HD
ENDBRANCH  14  20
ENDBRANCH   8  13
ENDBRANCH   7   8
ENDBRANCH   6   7
ENDBRANCH   5   6
ENDBRANCH   4   5
ENDBRANCH   1   4
BRANCH   1  22
HETATM   22  O   UNK N   1      26.171  24.038  -3.726  0.00  0.00    -0.350 OA
ATOM     23  HO  UNK N   1      25.386  24.566  -3.643  1.00  0.00     0.219 HD
ENDBRANCH   1  22
BRANCH   2  24
HETATM   24  C   UNK N   1      29.762  24.433  -3.422  0.00  0.00     0.209 A 
HETATM   25  C   UNK N   1      30.701  23.491  -2.773  0.00  0.00     0.247 A 
HETATM   26  N   UNK N   1      31.449  23.276  -3.807  0.00  0.00    -0.318 N 
HETATM   27  O   UNK N   1      30.745  22.951  -1.676  0.00  0.00    -0.271 OA
HETATM   28  C   UNK N   1      32.437  22.385  -4.290  0.00  0.00     0.204 C 
HETATM   29  C   UNK N   1      30.755  24.121  -4.689  0.00  0.00     0.183 A 
HETATM   30  C   UNK N   1      31.686  21.730  -5.484  0.00  0.00     0.033 C 
HETATM   31  C   UNK N   1      30.929  20.469  -5.094  0.00  0.00     0.029 C 
HETATM   32  C   UNK N   1      32.646  21.406  -6.615  0.00  0.00     0.029 C 
HETATM   33  S   UNK N   1      30.387  22.944  -6.048  0.00  0.00    -0.129 SA
BRANCH  28  34
HETATM   34  C   UNK N   1      32.998  21.453  -3.241  0.00  0.00     0.165 C 
HETATM   35  O   UNK N   1      34.091  20.938  -3.410  0.00  0.00    -0.648 OA
BRANCH  34  36
HETATM   36  O   UNK N   1      32.314  21.202  -2.107  0.00  0.00    -0.775 OA
HETATM   37  H   UNK N   1      31.975  21.099  -1.239  0.00  0.00     0.167 HD
ENDBRANCH  34  36
ENDBRANCH  28  34
ENDBRANCH   2  24
TORSDOF 15
ENDMDL
MODEL 5
REMARK VINA RESULT:      -6.3      3.193      5.186
REMARK  15 active torsions:
REMARK  status: ('A' for Active; 'I' for Inactive)
REMARK    1  A    between atoms: C_4  and  C_3 
REMARK    2  A    between atoms: C_5  and  C_3 
REMARK    3  A    between atoms: C_6  and  C_4 
REMARK    4  A    between atoms: C_8  and  C_5 
REMARK    5  A    between atoms: C_9  and  C_6 
REMARK    6  A    between atoms: C_10  and  C_7 
REMARK    7  A    between atoms: N_18  and  C_7 
REMARK    8  A    between atoms: C_15  and  C_8 
REMARK    9  A    between atoms: C_8  and  N_19 
REMARK   10  A    between atoms: C_9  and  O_24 
REMARK   11  A    between atoms: C_10  and  O_26 
REMARK   12  A    between atoms: C_11  and  N_21 
REMARK   13  A    between atoms: C_12  and  C_16 
REMARK   14  A    between atoms: O_29  and  C_15 
REMARK   15  A    between atoms: O_31  and  C_16 
ROOT
HETATM    1  C   UNK N   1      34.391  18.060   8.596  0.00  0.00     0.111 C 
HETATM    2  N   UNK N   1      34.780  17.067   9.321  0.00  0.00    -0.359 N 
ATOM      3  HN  UNK N   1      35.726  17.078   9.703  1.00  0.00     0.162 HD
ENDROOT
BRANCH   1   4
HETATM    4  C   UNK N   1      32.978  18.134   8.080  0.00  0.00     0.083 C 
BRANCH   4   5
HETATM    5  C   UNK N   1      32.813  17.456   6.741  0.00  0.00     0.008 C 
BRANCH   5   6
HETATM    6  C   UNK N   1      31.353  17.149   6.518  0.00  0.00     0.003 C 
BRANCH   6   7
HETATM    7  C   UNK N   1      30.662  17.043   7.868  0.00  0.00     0.036 C 
BRANCH   7   8
HETATM    8  C   UNK N   1      29.195  17.460   7.796  0.00  0.00     0.181 C 
BRANCH   8   9
HETATM    9  C   UNK N   1      28.739  18.092   9.094  0.00  0.00     0.163 C 
HETATM   10  O   UNK N   1      29.539  18.615   9.857  0.00  0.00    -0.648 OA
BRANCH   9  11
HETATM   11  O   UNK N   1      27.436  18.068   9.423  0.00  0.00    -0.775 OA
HETATM   12  H   UNK N   1      26.818  17.617   8.882  0.00  0.00     0.167 HD
ENDBRANCH   9  11
ENDBRANCH   8   9
BRANCH   8  13
HETATM   13  N   UNK N   1      28.975  18.376   6.689  0.00  0.00    -0.359 N 
HETATM   14  C   UNK N   1      27.850  18.476   6.060  0.00  0.00     0.129 C 
ATOM     15  HN  UNK N   1      29.750  18.970   6.393  1.00  0.00     0.162 HD
BRANCH  14  16
HETATM   16  C   UNK N   1      27.720  19.436   4.928  0.00  0.00     0.195 C 
BRANCH  16  17
HETATM   17  N   UNK N   1      26.317  19.706   4.671  0.00  0.00    -0.423 N 
HETATM   18  H   UNK N   1      25.459  19.394   5.126  0.00  0.00     0.150 HD
HETATM   19  H   UNK N   1      26.158  20.332   3.883  0.00  0.00     0.150 HD
ENDBRANCH  16  17
ENDBRANCH  14  16
BRANCH  14  20
HETATM   20  O   UNK N   1      26.794  17.703   6.396  0.00  0.00    -0.348 OA
HETATM   21  H   UNK N   1      26.686  16.873   6.816  0.00  0.00     0.219 HD
ENDBRANCH  14  20
ENDBRANCH   8  13
ENDBRANCH   7   8
ENDBRANCH   6   7
ENDBRANCH   5   6
ENDBRANCH   4   5
ENDBRANCH   1   4
BRANCH   1  22
HETATM   22  O   UNK N   1      35.253  19.061   8.335  0.00  0.00    -0.350 OA
ATOM     23  HO  UNK N   1      35.252  19.475   7.480  1.00  0.00     0.219 HD
ENDBRANCH   1  22
BRANCH   2  24
HETATM   24  C   UNK N   1      33.924  15.938   9.610  0.00  0.00     0.209 A 
HETATM   25  C   UNK N   1      34.338  14.720   8.879  0.00  0.00     0.247 A 
HETATM   26  N   UNK N   1      34.719  14.039   9.912  0.00  0.00    -0.318 N 
HETATM   27  O   UNK N   1      34.439  14.427   7.696  0.00  0.00    -0.271 OA
HETATM   28  C   UNK N   1      35.469  12.890  10.264  0.00  0.00     0.204 C 
HETATM   29  C   UNK N   1      34.417  15.017  10.874  0.00  0.00     0.183 A 
HETATM   30  C   UNK N   1      36.652  13.535  11.041  0.00  0.00     0.033 C 
HETATM   31  C   UNK N   1      37.837  13.872  10.149  0.00  0.00     0.029 C 
HETATM   32  C   UNK N   1      37.116  12.630  12.168  0.00  0.00     0.029 C 
HETATM   33  S   UNK N   1      36.043  15.166  11.711  0.00  0.00    -0.129 SA
BRANCH  28  34
HETATM   34  C   UNK N   1      35.822  11.999   9.096  0.00  0.00     0.165 C 
HETATM   35  O   UNK N   1      35.576  10.805   9.147  0.00  0.00    -0.648 OA
BRANCH  34  36
HETATM   36  O   UNK N   1      36.387  12.512   7.984  0.00  0.00    -0.775 OA
HETATM   37  H   UNK N   1      36.666  12.998   7.233  0.00  0.00     0.167 HD
ENDBRANCH  34  36
ENDBRANCH  28  34
ENDBRANCH   2  24
TORSDOF 15
ENDMDL
MODEL 6
REMARK VINA RESULT:      -6.3     16.861     20.108
REMARK  15 active torsions:
REMARK  status: ('A' for Active; 'I' for Inactive)
REMARK    1  A    between atoms: C_4  and  C_3 
REMARK    2  A    between atoms: C_5  and  C_3 
REMARK    3  A    between atoms: C_6  and  C_4 
REMARK    4  A    between atoms: C_8  and  C_5 
REMARK    5  A    between atoms: C_9  and  C_6 
REMARK    6  A    between atoms: C_10  and  C_7 
REMARK    7  A    between atoms: N_18  and  C_7 
REMARK    8  A    between atoms: C_15  and  C_8 
REMARK    9  A    between atoms: C_8  and  N_19 
REMARK   10  A    between atoms: C_9  and  O_24 
REMARK   11  A    between atoms: C_10  and  O_26 
REMARK   12  A    between atoms: C_11  and  N_21 
REMARK   13  A    between atoms: C_12  and  C_16 
REMARK   14  A    between atoms: O_29  and  C_15 
REMARK   15  A    between atoms: O_31  and  C_16 
ROOT
HETATM    1  C   UNK N   1      26.084  24.630  -6.109  0.00  0.00     0.111 C 
HETATM    2  N   UNK N   1      27.016  24.114  -5.383  0.00  0.00    -0.359 N 
ATOM      3  HN  UNK N   1      27.117  23.099  -5.361  1.00  0.00     0.162 HD
ENDROOT
BRANCH   1   4
HETATM    4  C   UNK N   1      25.947  26.124  -6.244  0.00  0.00     0.083 C 
BRANCH   4   5
HETATM    5  C   UNK N   1      24.790  26.675  -5.447  0.00  0.00     0.008 C 
BRANCH   5   6
HETATM    6  C   UNK N   1      25.170  28.025  -4.889  0.00  0.00     0.003 C 
BRANCH   6   7
HETATM    7  C   UNK N   1      25.919  27.822  -3.582  0.00  0.00     0.036 C 
BRANCH   7   8
HETATM    8  C   UNK N   1      27.176  28.684  -3.501  0.00  0.00     0.181 C 
BRANCH   8   9
HETATM    9  C   UNK N   1      27.194  29.735  -4.590  0.00  0.00     0.163 C 
HETATM   10  O   UNK N   1      27.739  29.523  -5.664  0.00  0.00    -0.648 OA
BRANCH   9  11
HETATM   11  O   UNK N   1      26.615  30.929  -4.371  0.00  0.00    -0.775 OA
HETATM   12  H   UNK N   1      26.386  31.484  -5.091  0.00  0.00     0.167 HD
ENDBRANCH   9  11
ENDBRANCH   8   9
BRANCH   8  13
HETATM   13  N   UNK N   1      27.282  29.314  -2.196  0.00  0.00    -0.359 N 
HETATM   14  C   UNK N   1      28.410  29.588  -1.626  0.00  0.00     0.129 C 
ATOM     15  HN  UNK N   1      26.421  29.553  -1.703  1.00  0.00     0.162 HD
BRANCH  14  16
HETATM   16  C   UNK N   1      28.422  30.225  -0.279  0.00  0.00     0.195 C 
BRANCH  16  17
HETATM   17  N   UNK N   1      27.762  29.358   0.681  0.00  0.00    -0.423 N 
HETATM   18  H   UNK N   1      28.117  28.734   1.406  0.00  0.00     0.150 HD
HETATM   19  H   UNK N   1      26.745  29.376   0.618  0.00  0.00     0.150 HD
ENDBRANCH  16  17
ENDBRANCH  14  16
BRANCH  14  20
HETATM   20  O   UNK N   1      29.583  29.280  -2.221  0.00  0.00    -0.348 OA
HETATM   21  H   UNK N   1      30.385  28.884  -1.944  0.00  0.00     0.219 HD
ENDBRANCH  14  20
ENDBRANCH   8  13
ENDBRANCH   7   8
ENDBRANCH   6   7
ENDBRANCH   5   6
ENDBRANCH   4   5
ENDBRANCH   1   4
BRANCH   1  22
HETATM   22  O   UNK N   1      25.251  23.817  -6.786  0.00  0.00    -0.350 OA
ATOM     23  HO  UNK N   1      24.797  24.140  -7.555  1.00  0.00     0.219 HD
ENDBRANCH   1  22
BRANCH   2  24
HETATM   24  C   UNK N   1      27.922  24.921  -4.597  0.00  0.00     0.209 A 
HETATM   25  C   UNK N   1      28.517  24.164  -3.474  0.00  0.00     0.247 A 
HETATM   26  N   UNK N   1      29.732  24.152  -3.918  0.00  0.00    -0.318 N 
HETATM   27  O   UNK N   1      28.061  23.597  -2.491  0.00  0.00    -0.271 OA
HETATM   28  C   UNK N   1      30.975  23.502  -3.721  0.00  0.00     0.204 C 
HETATM   29  C   UNK N   1      29.483  24.875  -5.096  0.00  0.00     0.183 A 
HETATM   30  C   UNK N   1      31.141  22.760  -5.077  0.00  0.00     0.033 C 
HETATM   31  C   UNK N   1      30.556  21.356  -5.064  0.00  0.00     0.029 C 
HETATM   32  C   UNK N   1      32.603  22.688  -5.480  0.00  0.00     0.029 C 
HETATM   33  S   UNK N   1      30.152  23.707  -6.345  0.00  0.00    -0.129 SA
BRANCH  28  34
HETATM   34  C   UNK N   1      31.043  22.661  -2.468  0.00  0.00     0.165 C 
HETATM   35  O   UNK N   1      31.727  21.651  -2.451  0.00  0.00    -0.648 OA
BRANCH  34  36
HETATM   36  O   UNK N   1      30.372  23.026  -1.357  0.00  0.00    -0.775 OA
HETATM   37  H   UNK N   1      29.795  23.155  -0.630  0.00  0.00     0.167 HD
ENDBRANCH  34  36
ENDBRANCH  28  34
ENDBRANCH   2  24
TORSDOF 15
ENDMDL
MODEL 7
REMARK VINA RESULT:      -6.2      8.042     13.374
REMARK  15 active torsions:
REMARK  status: ('A' for Active; 'I' for Inactive)
REMARK    1  A    between atoms: C_4  and  C_3 
REMARK    2  A    between atoms: C_5  and  C_3 
REMARK    3  A    between atoms: C_6  and  C_4 
REMARK    4  A    between atoms: C_8  and  C_5 
REMARK    5  A    between atoms: C_9  and  C_6 
REMARK    6  A    between atoms: C_10  and  C_7 
REMARK    7  A    between atoms: N_18  and  C_7 
REMARK    8  A    between atoms: C_15  and  C_8 
REMARK    9  A    between atoms: C_8  and  N_19 
REMARK   10  A    between atoms: C_9  and  O_24 
REMARK   11  A    between atoms: C_10  and  O_26 
REMARK   12  A    between atoms: C_11  and  N_21 
REMARK   13  A    between atoms: C_12  and  C_16 
REMARK   14  A    between atoms: O_29  and  C_15 
REMARK   15  A    between atoms: O_31  and  C_16 
ROOT
HETATM    1  C   UNK N   1      26.469  17.454   3.759  0.00  0.00     0.111 C 
HETATM    2  N   UNK N   1      25.182  17.530   3.789  0.00  0.00    -0.359 N 
ATOM      3  HN  UNK N   1      24.639  16.919   3.177  1.00  0.00     0.162 HD
ENDROOT
BRANCH   1   4
HETATM    4  C   UNK N   1      27.313  18.270   4.702  0.00  0.00     0.083 C 
BRANCH   4   5
HETATM    5  C   UNK N   1      28.792  18.049   4.496  0.00  0.00     0.008 C 
BRANCH   5   6
HETATM    6  C   UNK N   1      29.331  17.213   5.631  0.00  0.00     0.003 C 
BRANCH   6   7
HETATM    7  C   UNK N   1      28.639  17.630   6.919  0.00  0.00     0.036 C 
BRANCH   7   8
HETATM    8  C   UNK N   1      29.634  17.913   8.041  0.00  0.00     0.181 C 
BRANCH   8   9
HETATM    9  C   UNK N   1      28.928  18.373   9.298  0.00  0.00     0.163 C 
HETATM   10  O   UNK N   1      29.557  18.802  10.255  0.00  0.00    -0.648 OA
BRANCH   9  11
HETATM   11  O   UNK N   1      27.588  18.297   9.374  0.00  0.00    -0.775 OA
HETATM   12  H   UNK N   1      27.172  18.037  10.173  0.00  0.00     0.167 HD
ENDBRANCH   9  11
ENDBRANCH   8   9
BRANCH   8  13
HETATM   13  N   UNK N   1      30.439  16.736   8.322  0.00  0.00    -0.359 N 
HETATM   14  C   UNK N   1      31.688  16.789   8.653  0.00  0.00     0.129 C 
ATOM     15  HN  UNK N   1      29.995  15.819   8.254  1.00  0.00     0.162 HD
BRANCH  14  16
HETATM   16  C   UNK N   1      32.437  15.527   8.911  0.00  0.00     0.195 C 
BRANCH  16  17
HETATM   17  N   UNK N   1      32.096  15.014  10.225  0.00  0.00    -0.423 N 
HETATM   18  H   UNK N   1      31.206  14.870  10.701  0.00  0.00     0.150 HD
HETATM   19  H   UNK N   1      32.906  14.742  10.782  0.00  0.00     0.150 HD
ENDBRANCH  16  17
ENDBRANCH  14  16
BRANCH  14  20
HETATM   20  O   UNK N   1      32.333  17.972   8.743  0.00  0.00    -0.348 OA
HETATM   21  H   UNK N   1      32.232  18.746   9.260  0.00  0.00     0.219 HD
ENDBRANCH  14  20
ENDBRANCH   8  13
ENDBRANCH   7   8
ENDBRANCH   6   7
ENDBRANCH   5   6
ENDBRANCH   4   5
ENDBRANCH   1   4
BRANCH   1  22
HETATM   22  O   UNK N   1      27.057  16.602   2.899  0.00  0.00    -0.350 OA
ATOM     23  HO  UNK N   1      26.807  15.686   2.895  1.00  0.00     0.219 HD
ENDBRANCH   1  22
BRANCH   2  24
HETATM   24  C   UNK N   1      24.480  18.449   4.656  0.00  0.00     0.209 A 
HETATM   25  C   UNK N   1      23.526  19.303   3.915  0.00  0.00     0.247 A 
HETATM   26  N   UNK N   1      22.444  18.806   4.421  0.00  0.00    -0.318 N 
HETATM   27  O   UNK N   1      23.638  20.127   3.017  0.00  0.00    -0.271 OA
HETATM   28  C   UNK N   1      21.044  18.761   4.209  0.00  0.00     0.204 C 
HETATM   29  C   UNK N   1      23.070  17.872   5.263  0.00  0.00     0.183 A 
HETATM   30  C   UNK N   1      20.840  17.251   3.899  0.00  0.00     0.033 C 
HETATM   31  C   UNK N   1      20.940  16.928   2.415  0.00  0.00     0.029 C 
HETATM   32  C   UNK N   1      19.502  16.766   4.426  0.00  0.00     0.029 C 
HETATM   33  S   UNK N   1      22.244  16.329   4.711  0.00  0.00    -0.129 SA
BRANCH  28  34
HETATM   34  C   UNK N   1      20.540  19.746   3.180  0.00  0.00     0.165 C 
HETATM   35  O   UNK N   1      19.839  19.357   2.261  0.00  0.00    -0.648 OA
BRANCH  34  36
HETATM   36  O   UNK N   1      20.839  21.057   3.279  0.00  0.00    -0.775 OA
HETATM   37  H   UNK N   1      21.211  21.913   3.359  0.00  0.00     0.167 HD
ENDBRANCH  34  36
ENDBRANCH  28  34
ENDBRANCH   2  24
TORSDOF 15
ENDMDL
MODEL 8
REMARK VINA RESULT:      -6.2      5.084      9.790
REMARK  15 active torsions:
REMARK  status: ('A' for Active; 'I' for Inactive)
REMARK    1  A    between atoms: C_4  and  C_3 
REMARK    2  A    between atoms: C_5  and  C_3 
REMARK    3  A    between atoms: C_6  and  C_4 
REMARK    4  A    between atoms: C_8  and  C_5 
REMARK    5  A    between atoms: C_9  and  C_6 
REMARK    6  A    between atoms: C_10  and  C_7 
REMARK    7  A    between atoms: N_18  and  C_7 
REMARK    8  A    between atoms: C_15  and  C_8 
REMARK    9  A    between atoms: C_8  and  N_19 
REMARK   10  A    between atoms: C_9  and  O_24 
REMARK   11  A    between atoms: C_10  and  O_26 
REMARK   12  A    between atoms: C_11  and  N_21 
REMARK   13  A    between atoms: C_12  and  C_16 
REMARK   14  A    between atoms: O_29  and  C_15 
REMARK   15  A    between atoms: O_31  and  C_16 
ROOT
HETATM    1  C   UNK N   1      27.958  17.777   8.436  0.00  0.00     0.111 C 
HETATM    2  N   UNK N   1      27.447  17.622   7.263  0.00  0.00    -0.359 N 
ATOM      3  HN  UNK N   1      26.722  16.916   7.132  1.00  0.00     0.162 HD
ENDROOT
BRANCH   1   4
HETATM    4  C   UNK N   1      28.969  18.862   8.702  0.00  0.00     0.083 C 
BRANCH   4   5
HETATM    5  C   UNK N   1      30.087  18.404   9.607  0.00  0.00     0.008 C 
BRANCH   5   6
HETATM    6  C   UNK N   1      31.028  17.521   8.824  0.00  0.00     0.003 C 
BRANCH   6   7
HETATM    7  C   UNK N   1      32.186  18.366   8.319  0.00  0.00     0.036 C 
BRANCH   7   8
HETATM    8  C   UNK N   1      33.416  17.521   7.997  0.00  0.00     0.181 C 
BRANCH   8   9
HETATM    9  C   UNK N   1      34.645  18.046   8.708  0.00  0.00     0.163 C 
HETATM   10  O   UNK N   1      35.192  19.078   8.346  0.00  0.00    -0.648 OA
BRANCH   9  11
HETATM   11  O   UNK N   1      35.156  17.361   9.746  0.00  0.00    -0.775 OA
HETATM   12  H   UNK N   1      34.813  16.518   9.973  0.00  0.00     0.167 HD
ENDBRANCH   9  11
ENDBRANCH   8   9
BRANCH   8  13
HETATM   13  N   UNK N   1      33.190  16.130   8.351  0.00  0.00    -0.359 N 
HETATM   14  C   UNK N   1      33.579  15.136   7.620  0.00  0.00     0.129 C 
ATOM     15  HN  UNK N   1      32.697  15.926   9.221  1.00  0.00     0.162 HD
BRANCH  14  16
HETATM   16  C   UNK N   1      33.292  13.741   8.058  0.00  0.00     0.195 C 
BRANCH  16  17
HETATM   17  N   UNK N   1      32.361  13.757   9.172  0.00  0.00    -0.423 N 
HETATM   18  H   UNK N   1      31.921  13.014   9.715  0.00  0.00     0.150 HD
HETATM   19  H   UNK N   1      32.097  14.695   9.471  0.00  0.00     0.150 HD
ENDBRANCH  16  17
ENDBRANCH  14  16
BRANCH  14  20
HETATM   20  O   UNK N   1      34.221  15.343   6.450  0.00  0.00    -0.348 OA
HETATM   21  H   UNK N   1      34.945  14.944   6.010  0.00  0.00     0.219 HD
ENDBRANCH  14  20
ENDBRANCH   8  13
ENDBRANCH   7   8
ENDBRANCH   6   7
ENDBRANCH   5   6
ENDBRANCH   4   5
ENDBRANCH   1   4
BRANCH   1  22
HETATM   22  O   UNK N   1      27.548  16.983   9.443  0.00  0.00    -0.350 OA
ATOM     23  HO  UNK N   1      26.638  16.712   9.491  1.00  0.00     0.219 HD
ENDBRANCH   1  22
BRANCH   2  24
HETATM   24  C   UNK N   1      27.866  18.410   6.125  0.00  0.00     0.209 A 
HETATM   25  C   UNK N   1      28.934  17.746   5.346  0.00  0.00     0.247 A 
HETATM   26  N   UNK N   1      28.234  17.521   4.281  0.00  0.00    -0.318 N 
HETATM   27  O   UNK N   1      30.074  17.381   5.599  0.00  0.00    -0.271 OA
HETATM   28  C   UNK N   1      28.249  16.755   3.090  0.00  0.00     0.204 C 
HETATM   29  C   UNK N   1      27.041  18.101   4.742  0.00  0.00     0.183 A 
HETATM   30  C   UNK N   1      27.030  15.819   3.324  0.00  0.00     0.033 C 
HETATM   31  C   UNK N   1      27.403  14.513   4.011  0.00  0.00     0.029 C 
HETATM   32  C   UNK N   1      26.325  15.510   2.016  0.00  0.00     0.029 C 
HETATM   33  S   UNK N   1      25.882  16.698   4.502  0.00  0.00    -0.129 SA
BRANCH  28  34
HETATM   34  C   UNK N   1      29.575  16.092   2.796  0.00  0.00     0.165 C 
HETATM   35  O   UNK N   1      29.624  14.886   2.617  0.00  0.00    -0.648 OA
BRANCH  34  36
HETATM   36  O   UNK N   1      30.705  16.822   2.707  0.00  0.00    -0.775 OA
HETATM   37  H   UNK N   1      31.383  17.462   2.614  0.00  0.00     0.167 HD
ENDBRANCH  34  36
ENDBRANCH  28  34
ENDBRANCH   2  24
TORSDOF 15
ENDMDL
MODEL 9
REMARK VINA RESULT:      -6.1     11.077     13.610
REMARK  15 active torsions:
REMARK  status: ('A' for Active; 'I' for Inactive)
REMARK    1  A    between atoms: C_4  and  C_3 
REMARK    2  A    between atoms: C_5  and  C_3 
REMARK    3  A    between atoms: C_6  and  C_4 
REMARK    4  A    between atoms: C_8  and  C_5 
REMARK    5  A    between atoms: C_9  and  C_6 
REMARK    6  A    between atoms: C_10  and  C_7 
REMARK    7  A    between atoms: N_18  and  C_7 
REMARK    8  A    between atoms: C_15  and  C_8 
REMARK    9  A    between atoms: C_8  and  N_19 
REMARK   10  A    between atoms: C_9  and  O_24 
REMARK   11  A    between atoms: C_10  and  O_26 
REMARK   12  A    between atoms: C_11  and  N_21 
REMARK   13  A    between atoms: C_12  and  C_16 
REMARK   14  A    between atoms: O_29  and  C_15 
REMARK   15  A    between atoms: O_31  and  C_16 
ROOT
HETATM    1  C   UNK N   1      19.896  16.483   4.646  0.00  0.00     0.111 C 
HETATM    2  N   UNK N   1      19.834  15.934   5.811  0.00  0.00    -0.359 N 
ATOM      3  HN  UNK N   1      19.168  15.176   5.962  1.00  0.00     0.162 HD
ENDROOT
BRANCH   1   4
HETATM    4  C   UNK N   1      20.921  17.545   4.346  0.00  0.00     0.083 C 
BRANCH   4   5
HETATM    5  C   UNK N   1      21.921  17.107   3.303  0.00  0.00     0.008 C 
BRANCH   5   6
HETATM    6  C   UNK N   1      23.317  17.288   3.848  0.00  0.00     0.003 C 
BRANCH   6   7
HETATM    7  C   UNK N   1      23.447  18.697   4.404  0.00  0.00     0.036 C 
BRANCH   7   8
HETATM    8  C   UNK N   1      24.680  19.416   3.864  0.00  0.00     0.181 C 
BRANCH   8   9
HETATM    9  C   UNK N   1      24.295  20.532   2.917  0.00  0.00     0.163 C 
HETATM   10  O   UNK N   1      23.203  21.078   2.994  0.00  0.00    -0.648 OA
BRANCH   9  11
HETATM   11  O   UNK N   1      25.159  20.925   1.965  0.00  0.00    -0.775 OA
HETATM   12  H   UNK N   1      24.845  21.242   1.141  0.00  0.00     0.167 HD
ENDBRANCH   9  11
ENDBRANCH   8   9
BRANCH   8  13
HETATM   13  N   UNK N   1      25.487  19.940   4.953  0.00  0.00    -0.359 N 
HETATM   14  C   UNK N   1      26.778  20.003   4.918  0.00  0.00     0.129 C 
ATOM     15  HN  UNK N   1      25.009  20.275   5.791  1.00  0.00     0.162 HD
BRANCH  14  16
HETATM   16  C   UNK N   1      27.523  20.546   6.089  0.00  0.00     0.195 C 
BRANCH  16  17
HETATM   17  N   UNK N   1      27.304  19.698   7.246  0.00  0.00    -0.423 N 
HETATM   18  H   UNK N   1      26.565  19.039   7.490  0.00  0.00     0.150 HD
HETATM   19  H   UNK N   1      28.033  19.776   7.955  0.00  0.00     0.150 HD
ENDBRANCH  16  17
ENDBRANCH  14  16
BRANCH  14  20
HETATM   20  O   UNK N   1      27.466  19.560   3.844  0.00  0.00    -0.348 OA
HETATM   21  H   UNK N   1      28.065  18.857   3.683  0.00  0.00     0.219 HD
ENDBRANCH  14  20
ENDBRANCH   8  13
ENDBRANCH   7   8
ENDBRANCH   6   7
ENDBRANCH   5   6
ENDBRANCH   4   5
ENDBRANCH   1   4
BRANCH   1  22
HETATM   22  O   UNK N   1      19.058  16.067   3.678  0.00  0.00    -0.350 OA
ATOM     23  HO  UNK N   1      18.715  16.692   3.049  1.00  0.00     0.219 HD
ENDBRANCH   1  22
BRANCH   2  24
HETATM   24  C   UNK N   1      20.673  16.354   6.911  0.00  0.00     0.209 A 
HETATM   25  C   UNK N   1      20.451  15.542   8.127  0.00  0.00     0.247 A 
HETATM   26  N   UNK N   1      21.608  14.961   8.142  0.00  0.00    -0.318 N 
HETATM   27  O   UNK N   1      19.487  15.336   8.852  0.00  0.00    -0.271 OA
HETATM   28  C   UNK N   1      22.288  13.867   8.730  0.00  0.00     0.204 C 
HETATM   29  C   UNK N   1      22.121  15.588   6.995  0.00  0.00     0.183 A 
HETATM   30  C   UNK N   1      22.563  12.983   7.480  0.00  0.00     0.033 C 
HETATM   31  C   UNK N   1      21.456  11.976   7.207  0.00  0.00     0.029 C 
HETATM   32  C   UNK N   1      23.884  12.248   7.618  0.00  0.00     0.029 C 
HETATM   33  S   UNK N   1      22.590  14.119   6.001  0.00  0.00    -0.129 SA
BRANCH  28  34
HETATM   34  C   UNK N   1      21.547  13.220   9.876  0.00  0.00     0.165 C 
HETATM   35  O   UNK N   1      22.162  12.831  10.855  0.00  0.00    -0.648 OA
BRANCH  34  36
HETATM   36  O   UNK N   1      20.205  13.086   9.840  0.00  0.00    -0.775 OA
HETATM   37  H   UNK N   1      19.280  13.037   9.983  0.00  0.00     0.167 HD
ENDBRANCH  34  36
ENDBRANCH  28  34
ENDBRANCH   2  24
TORSDOF 15
ENDMDL
