MODEL 1
REMARK VINA RESULT:      -3.3      0.000      0.000
REMARK  1 active torsions:
REMARK  status: ('A' for Active; 'I' for Inactive)
REMARK    1  A    between atoms: C_2  and  O_5 
ROOT
HETATM    1  C   UNK N   1      23.148  11.878  12.717  0.00  0.00     0.045 C 
HETATM    2  C   UNK N   1      23.796  12.085  11.365  0.00  0.00     0.047 C 
HETATM    3  C   UNK N   1      24.123  12.250   9.896  0.00  0.00     0.045 C 
HETATM    4  C   UNK N   1      22.385  11.899  10.853  0.00  0.00     0.045 C 
ENDROOT
BRANCH   2   5
HETATM    5  O   UNK N   1      25.097  12.257  11.837  0.00  0.00    -0.391 OA
HETATM    6  H   UNK N   1      25.601  13.050  11.594  0.00  0.00     0.210 HD
ENDBRANCH   2   5
TORSDOF 1
ENDMDL
MODEL 2
REMARK VINA RESULT:      -3.3      0.043      1.903
REMARK  1 active torsions:
REMARK  status: ('A' for Active; 'I' for Inactive)
REMARK    1  A    between atoms: C_2  and  O_5 
ROOT
HETATM    1  C   UNK N   1      24.102  12.271   9.880  0.00  0.00     0.045 C 
HETATM    2  C   UNK N   1      23.767  12.100  11.346  0.00  0.00     0.047 C 
HETATM    3  C   UNK N   1      23.110  11.894  12.694  0.00  0.00     0.045 C 
HETATM    4  C   UNK N   1      22.355  11.943  10.827  0.00  0.00     0.045 C 
ENDROOT
BRANCH   2   5
HETATM    5  O   UNK N   1      25.069  12.246  11.825  0.00  0.00    -0.391 OA
HETATM    6  H   UNK N   1      25.350  13.087  12.218  0.00  0.00     0.210 HD
ENDBRANCH   2   5
TORSDOF 1
ENDMDL
MODEL 3
REMARK VINA RESULT:      -3.0      2.166      2.809
REMARK  1 active torsions:
REMARK  status: ('A' for Active; 'I' for Inactive)
REMARK    1  A    between atoms: C_2  and  O_5 
ROOT
HETATM    1  C   UNK N   1      20.966  13.064  10.149  0.00  0.00     0.045 C 
HETATM    2  C   UNK N   1      21.973  12.363  11.036  0.00  0.00     0.047 C 
HETATM    3  C   UNK N   1      23.209  11.811  11.714  0.00  0.00     0.045 C 
HETATM    4  C   UNK N   1      22.980  13.022  10.120  0.00  0.00     0.045 C 
ENDROOT
BRANCH   2   5
HETATM    5  O   UNK N   1      21.044  11.755  11.880  0.00  0.00    -0.391 OA
HETATM    6  H   UNK N   1      20.144  11.576  11.563  0.00  0.00     0.210 HD
ENDBRANCH   2   5
TORSDOF 1
ENDMDL
MODEL 4
REMARK VINA RESULT:      -2.9      7.772      8.478
REMARK  1 active torsions:
REMARK  status: ('A' for Active; 'I' for Inactive)
REMARK    1  A    between atoms: C_2  and  O_5 
ROOT
HETATM    1  C   UNK N   1      28.076  17.186   7.550  0.00  0.00     0.045 C 
HETATM    2  C   UNK N   1      28.676  17.923   8.729  0.00  0.00     0.047 C 
HETATM    3  C   UNK N   1      29.574  18.589   9.750  0.00  0.00     0.045 C 
HETATM    4  C   UNK N   1      29.984  17.609   8.038  0.00  0.00     0.045 C 
ENDROOT
BRANCH   2   5
HETATM    5  O   UNK N   1      27.470  18.213   9.366  0.00  0.00    -0.391 OA
HETATM    6  H   UNK N   1      27.450  18.843  10.103  0.00  0.00     0.210 HD
ENDBRANCH   2   5
TORSDOF 1
ENDMDL
MODEL 5
REMARK VINA RESULT:      -2.8     11.429     12.090
REMARK  1 active torsions:
REMARK  status: ('A' for Active; 'I' for Inactive)
REMARK    1  A    between atoms: C_2  and  O_5 
ROOT
HETATM    1  C   UNK N   1      32.233  17.200   6.483  0.00  0.00     0.045 C 
HETATM    2  C   UNK N   1      33.442  17.778   7.189  0.00  0.00     0.047 C 
HETATM    3  C   UNK N   1      34.438  18.367   8.164  0.00  0.00     0.045 C 
HETATM    4  C   UNK N   1      32.507  17.832   8.376  0.00  0.00     0.045 C 
ENDROOT
BRANCH   2   5
HETATM    5  O   UNK N   1      34.304  17.727   6.093  0.00  0.00    -0.391 OA
HETATM    6  H   UNK N   1      34.256  18.411   5.407  0.00  0.00     0.210 HD
ENDBRANCH   2   5
TORSDOF 1
ENDMDL
MODEL 6
REMARK VINA RESULT:      -2.8     11.814     12.500
REMARK  1 active torsions:
REMARK  status: ('A' for Active; 'I' for Inactive)
REMARK    1  A    between atoms: C_2  and  O_5 
ROOT
HETATM    1  C   UNK N   1      21.851  19.541   3.485  0.00  0.00     0.045 C 
HETATM    2  C   UNK N   1      21.322  20.408   2.363  0.00  0.00     0.047 C 
HETATM    3  C   UNK N   1      20.629  20.986   1.147  0.00  0.00     0.045 C 
HETATM    4  C   UNK N   1      20.605  19.140   1.954  0.00  0.00     0.045 C 
ENDROOT
BRANCH   2   5
HETATM    5  O   UNK N   1      21.982  21.577   2.740  0.00  0.00    -0.391 OA
HETATM    6  H   UNK N   1      22.781  21.527   3.288  0.00  0.00     0.210 HD
ENDBRANCH   2   5
TORSDOF 1
ENDMDL
MODEL 7
REMARK VINA RESULT:      -2.7      9.447     10.260
REMARK  1 active torsions:
REMARK  status: ('A' for Active; 'I' for Inactive)
REMARK    1  A    between atoms: C_2  and  O_5 
ROOT
HETATM    1  C   UNK N   1      26.709  21.549   6.469  0.00  0.00     0.045 C 
HETATM    2  C   UNK N   1      27.318  20.174   6.638  0.00  0.00     0.047 C 
HETATM    3  C   UNK N   1      28.022  18.843   6.480  0.00  0.00     0.045 C 
HETATM    4  C   UNK N   1      27.734  20.370   5.198  0.00  0.00     0.045 C 
ENDROOT
BRANCH   2   5
HETATM    5  O   UNK N   1      26.935  19.993   7.967  0.00  0.00    -0.391 OA
HETATM    6  H   UNK N   1      26.906  19.101   8.347  0.00  0.00     0.210 HD
ENDBRANCH   2   5
TORSDOF 1
ENDMDL
MODEL 8
REMARK VINA RESULT:      -2.6     21.109     21.512
REMARK  1 active torsions:
REMARK  status: ('A' for Active; 'I' for Inactive)
REMARK    1  A    between atoms: C_2  and  O_5 
ROOT
HETATM    1  C   UNK N   1      25.678  27.833  -3.716  0.00  0.00     0.045 C 
HETATM    2  C   UNK N   1      25.707  26.466  -4.367  0.00  0.00     0.047 C 
HETATM    3  C   UNK N   1      25.583  25.264  -5.279  0.00  0.00     0.045 C 
HETATM    4  C   UNK N   1      25.037  27.189  -5.514  0.00  0.00     0.045 C 
ENDROOT
BRANCH   2   5
HETATM    5  O   UNK N   1      26.324  25.800  -3.309  0.00  0.00    -0.391 OA
HETATM    6  H   UNK N   1      27.004  25.131  -3.487  0.00  0.00     0.210 HD
ENDBRANCH   2   5
TORSDOF 1
ENDMDL
MODEL 9
REMARK VINA RESULT:      -2.5     11.314     11.778
REMARK  1 active torsions:
REMARK  status: ('A' for Active; 'I' for Inactive)
REMARK    1  A    between atoms: C_2  and  O_5 
ROOT
HETATM    1  C   UNK N   1      33.692  10.755  14.473  0.00  0.00     0.045 C 
HETATM    2  C   UNK N   1      34.482  11.566  15.477  0.00  0.00     0.047 C 
HETATM    3  C   UNK N   1      35.314  12.074  16.635  0.00  0.00     0.045 C 
HETATM    4  C   UNK N   1      34.667  10.228  16.155  0.00  0.00     0.045 C 
ENDROOT
BRANCH   2   5
HETATM    5  O   UNK N   1      34.311  12.802  14.852  0.00  0.00    -0.391 OA
HETATM    6  H   UNK N   1      34.579  13.616  15.305  0.00  0.00     0.210 HD
ENDBRANCH   2   5
TORSDOF 1
ENDMDL
