REMARK  11 active torsions:
REMARK  status: ('A' for Active; 'I' for Inactive)
REMARK    1  A    between atoms: C_6  and  C_3 
REMARK    2  A    between atoms: O_14  and  C_3 
REMARK    3  A    between atoms: O_15  and  C_4 
REMARK    4  A    between atoms: C_5  and  O_16 
REMARK    5  A    between atoms: C_9  and  C_6 
REMARK    6  A    between atoms: C_6  and  O_17 
REMARK    7  A    between atoms: C_11  and  C_7 
REMARK    8  A    between atoms: C_8  and  N_12 
REMARK    9  A    between atoms: C_10  and  C_9 
REMARK   10  A    between atoms: C_9  and  O_18 
REMARK   11  A    between atoms: O_20  and  C_11 
ROOT
HETATM    1  C   UNK N   1       2.596   0.934  -0.246  0.00  0.00     0.050 C 
HETATM    2  C   UNK N   1       1.521   1.904  -0.624  0.00  0.00     0.169 C 
HETATM    3  C   UNK N   1       2.298  -0.364  -0.101  0.00  0.00     0.141 C 
HETATM    4  C   UNK N   1       0.225   1.493   0.075  0.00  0.00     0.148 C 
HETATM    5  C   UNK N   1      -0.120   0.017  -0.307  0.00  0.00     0.186 C 
HETATM    6  O   UNK N   1       1.011  -0.799  -0.240  0.00  0.00    -0.335 OA
ENDROOT
BRANCH   5   7
HETATM    7  C   UNK N   1      -1.211  -0.561   0.635  0.00  0.00     0.180 C 
BRANCH   7   8
HETATM    8  C   UNK N   1      -1.596  -2.031   0.355  0.00  0.00     0.173 C 
BRANCH   8   9
HETATM    9  C   UNK N   1      -2.226  -2.208  -1.022  0.00  0.00     0.198 C 
BRANCH   9  10
HETATM   10  O   UNK N   1      -2.682  -3.519  -1.177  0.00  0.00    -0.398 OA
HETATM   11  H   UNK N   1      -3.629  -3.701  -1.284  0.00  0.00     0.209 HD
ENDBRANCH   9  10
ENDBRANCH   8   9
BRANCH   8  12
HETATM   12  O   UNK N   1      -0.485  -2.871   0.475  0.00  0.00    -0.391 OA
HETATM   13  H   UNK N   1      -0.605  -3.830   0.559  0.00  0.00     0.210 HD
ENDBRANCH   8  12
ENDBRANCH   7   8
BRANCH   7  14
HETATM   14  O   UNK N   1      -2.367   0.223   0.573  0.00  0.00    -0.390 OA
HETATM   15  H   UNK N   1      -2.298   1.190   0.529  0.00  0.00     0.210 HD
ENDBRANCH   7  14
ENDBRANCH   5   7
BRANCH   4  16
HETATM   16  N   UNK N   1      -0.842   2.396  -0.330  0.00  0.00    -0.365 N 
HETATM   17  C   UNK N   1      -1.323   3.329   0.420  0.00  0.00     0.107 C 
HETATM   18  C   UNK N   1      -2.419   4.192  -0.099  0.00  0.00     0.097 C 
ATOM     19  HN  UNK N   1      -1.234   2.284  -1.265  1.00  0.00     0.161 HD
BRANCH  17  20
HETATM   20  O   UNK N   1      -0.828   3.560   1.654  0.00  0.00    -0.350 OA
HETATM   21  H   UNK N   1      -0.517   3.342   2.511  0.00  0.00     0.219 HD
ENDBRANCH  17  20
ENDBRANCH   4  16
BRANCH   2  22
HETATM   22  O   UNK N   1       1.900   3.191  -0.235  0.00  0.00    -0.389 OA
HETATM   23  H   UNK N   1       2.805   3.410   0.035  0.00  0.00     0.210 HD
ENDBRANCH   2  22
BRANCH   3  24
HETATM   24  C   UNK N   1       3.360  -1.339   0.210  0.00  0.00     0.200 C 
HETATM   25  O   UNK N   1       3.089  -2.523   0.315  0.00  0.00    -0.645 OA
BRANCH  24  26
HETATM   26  O   UNK N   1       4.634  -0.930   0.379  0.00  0.00    -0.771 OA
HETATM   27  H   UNK N   1       5.323  -1.554   0.496  0.00  0.00     0.167 HD
ENDBRANCH  24  26
ENDBRANCH   3  24
TORSDOF 11
