MODEL 1
REMARK VINA RESULT:      -4.6      0.000      0.000
REMARK  7 active torsions:
REMARK  status: ('A' for Active; 'I' for Inactive)
REMARK    1  A    between atoms: C_2  and  N_1 
REMARK    2  A    between atoms: C_2  and  C_3 
REMARK    3  A    between atoms: C_2  and  C_9 
REMARK    4  A    between atoms: C_3  and  C_4 
REMARK    5  A    between atoms: C_4  and  S_5 
REMARK    6  A    between atoms: S_5  and  C_6 
REMARK    7  A    between atoms: C_9  and  O_10 
ROOT
HETATM    1  C   UNK N   1      33.746  17.282   8.854  0.00  0.00     0.174 C 
ENDROOT
BRANCH   1   2
HETATM    2  N   UNK N   1      34.366  16.955  10.126  0.00  0.00    -0.418 N 
HETATM    3  H   UNK N   1      35.255  16.455  10.147  0.00  0.00     0.150 HD
HETATM    4  H   UNK N   1      33.913  17.225  11.000  0.00  0.00     0.150 HD
ENDBRANCH   1   2
BRANCH   1   5
HETATM    5  C   UNK N   1      32.394  16.612   8.564  0.00  0.00     0.046 C 
BRANCH   5   6
HETATM    6  C   UNK N   1      31.227  17.576   8.703  0.00  0.00     0.082 C 
BRANCH   6   7
HETATM    7  S   UNK N   1      29.815  17.457   7.532  0.00  0.00    -0.101 SA
BRANCH   7   8
HETATM    8  C   UNK N   1      28.449  18.385   8.321  0.00  0.00     0.415 C 
HETATM    9  F   UNK N   1      27.960  19.490   7.651  0.00  0.00    -0.203 F 
HETATM   10  F   UNK N   1      27.878  18.057   9.533  0.00  0.00    -0.203 F 
ENDBRANCH   7   8
ENDBRANCH   6   7
ENDBRANCH   5   6
ENDBRANCH   1   5
BRANCH   1  11
HETATM   11  C   UNK N   1      34.497  18.240   7.960  0.00  0.00     0.163 C 
HETATM   12  O   UNK N   1      34.394  18.178   6.747  0.00  0.00    -0.648 OA
BRANCH  11  13
HETATM   13  O   UNK N   1      35.294  19.180   8.506  0.00  0.00    -0.775 OA
HETATM   14  H   UNK N   1      35.423  19.997   8.066  0.00  0.00     0.167 HD
ENDBRANCH  11  13
ENDBRANCH   1  11
TORSDOF 7
ENDMDL
MODEL 2
REMARK VINA RESULT:      -4.5      7.514      8.386
REMARK  7 active torsions:
REMARK  status: ('A' for Active; 'I' for Inactive)
REMARK    1  A    between atoms: C_2  and  N_1 
REMARK    2  A    between atoms: C_2  and  C_3 
REMARK    3  A    between atoms: C_2  and  C_9 
REMARK    4  A    between atoms: C_3  and  C_4 
REMARK    5  A    between atoms: C_4  and  S_5 
REMARK    6  A    between atoms: S_5  and  C_6 
REMARK    7  A    between atoms: C_9  and  O_10 
ROOT
HETATM    1  C   UNK N   1      35.082  14.829  11.587  0.00  0.00     0.174 C 
ENDROOT
BRANCH   1   2
HETATM    2  N   UNK N   1      33.877  14.415  10.890  0.00  0.00    -0.418 N 
HETATM    3  H   UNK N   1      33.276  15.113  10.450  0.00  0.00     0.150 HD
HETATM    4  H   UNK N   1      33.629  13.426  10.839  0.00  0.00     0.150 HD
ENDBRANCH   1   2
BRANCH   1   5
HETATM    5  C   UNK N   1      35.496  13.975  12.795  0.00  0.00     0.046 C 
BRANCH   5   6
HETATM    6  C   UNK N   1      36.409  14.725  13.750  0.00  0.00     0.082 C 
BRANCH   6   7
HETATM    7  S   UNK N   1      36.764  14.011  15.407  0.00  0.00    -0.101 SA
BRANCH   7   8
HETATM    8  C   UNK N   1      37.150  15.441  16.481  0.00  0.00     0.415 C 
HETATM    9  F   UNK N   1      37.870  16.480  15.924  0.00  0.00    -0.203 F 
HETATM   10  F   UNK N   1      36.772  15.551  17.804  0.00  0.00    -0.203 F 
ENDBRANCH   7   8
ENDBRANCH   6   7
ENDBRANCH   5   6
ENDBRANCH   1   5
BRANCH   1  11
HETATM   11  C   UNK N   1      35.792  16.048  11.047  0.00  0.00     0.163 C 
HETATM   12  O   UNK N   1      35.198  17.102  10.893  0.00  0.00    -0.648 OA
BRANCH  11  13
HETATM   13  O   UNK N   1      37.099  15.977  10.731  0.00  0.00    -0.775 OA
HETATM   14  H   UNK N   1      37.494  15.146  10.557  0.00  0.00     0.167 HD
ENDBRANCH  11  13
ENDBRANCH   1  11
TORSDOF 7
ENDMDL
MODEL 3
REMARK VINA RESULT:      -4.5      6.911      7.746
REMARK  7 active torsions:
REMARK  status: ('A' for Active; 'I' for Inactive)
REMARK    1  A    between atoms: C_2  and  N_1 
REMARK    2  A    between atoms: C_2  and  C_3 
REMARK    3  A    between atoms: C_2  and  C_9 
REMARK    4  A    between atoms: C_3  and  C_4 
REMARK    5  A    between atoms: C_4  and  S_5 
REMARK    6  A    between atoms: S_5  and  C_6 
REMARK    7  A    between atoms: C_9  and  O_10 
ROOT
HETATM    1  C   UNK N   1      34.988  15.066  11.401  0.00  0.00     0.174 C 
ENDROOT
BRANCH   1   2
HETATM    2  N   UNK N   1      33.609  15.104  10.947  0.00  0.00    -0.418 N 
HETATM    3  H   UNK N   1      33.398  15.322   9.972  0.00  0.00     0.150 HD
HETATM    4  H   UNK N   1      32.850  14.913  11.601  0.00  0.00     0.150 HD
ENDBRANCH   1   2
BRANCH   1   5
HETATM    5  C   UNK N   1      35.355  13.928  12.364  0.00  0.00     0.046 C 
BRANCH   5   6
HETATM    6  C   UNK N   1      36.141  14.418  13.570  0.00  0.00     0.082 C 
BRANCH   6   7
HETATM    7  S   UNK N   1      36.448  13.271  14.973  0.00  0.00    -0.101 SA
BRANCH   7   8
HETATM    8  C   UNK N   1      34.804  12.946  15.706  0.00  0.00     0.415 C 
HETATM    9  F   UNK N   1      33.945  12.122  15.003  0.00  0.00    -0.203 F 
HETATM   10  F   UNK N   1      34.366  13.465  16.907  0.00  0.00    -0.203 F 
ENDBRANCH   7   8
ENDBRANCH   6   7
ENDBRANCH   5   6
ENDBRANCH   1   5
BRANCH   1  11
HETATM   11  C   UNK N   1      35.904  16.146  10.876  0.00  0.00     0.163 C 
HETATM   12  O   UNK N   1      35.468  17.242  10.569  0.00  0.00    -0.648 OA
BRANCH  11  13
HETATM   13  O   UNK N   1      37.222  15.901  10.743  0.00  0.00    -0.775 OA
HETATM   14  H   UNK N   1      37.842  16.382  11.256  0.00  0.00     0.167 HD
ENDBRANCH  11  13
ENDBRANCH   1  11
TORSDOF 7
ENDMDL
MODEL 4
REMARK VINA RESULT:      -4.4     13.312     14.041
REMARK  7 active torsions:
REMARK  status: ('A' for Active; 'I' for Inactive)
REMARK    1  A    between atoms: C_2  and  N_1 
REMARK    2  A    between atoms: C_2  and  C_3 
REMARK    3  A    between atoms: C_2  and  C_9 
REMARK    4  A    between atoms: C_3  and  C_4 
REMARK    5  A    between atoms: C_4  and  S_5 
REMARK    6  A    between atoms: S_5  and  C_6 
REMARK    7  A    between atoms: C_9  and  O_10 
ROOT
HETATM    1  C   UNK N   1      20.232  19.170   2.219  0.00  0.00     0.174 C 
ENDROOT
BRANCH   1   2
HETATM    2  N   UNK N   1      18.788  19.027   2.281  0.00  0.00    -0.418 N 
HETATM    3  H   UNK N   1      18.374  18.129   2.535  0.00  0.00     0.150 HD
HETATM    4  H   UNK N   1      18.186  19.824   2.073  0.00  0.00     0.150 HD
ENDBRANCH   1   2
BRANCH   1   5
HETATM    5  C   UNK N   1      21.053  18.124   2.987  0.00  0.00     0.046 C 
BRANCH   5   6
HETATM    6  C   UNK N   1      20.361  16.772   3.046  0.00  0.00     0.082 C 
BRANCH   6   7
HETATM    7  S   UNK N   1      20.655  15.548   1.706  0.00  0.00    -0.101 SA
BRANCH   7   8
HETATM    8  C   UNK N   1      19.620  16.104   0.303  0.00  0.00     0.415 C 
HETATM    9  F   UNK N   1      19.995  17.266  -0.344  0.00  0.00    -0.203 F 
HETATM   10  F   UNK N   1      18.496  15.444  -0.150  0.00  0.00    -0.203 F 
ENDBRANCH   7   8
ENDBRANCH   6   7
ENDBRANCH   5   6
ENDBRANCH   1   5
BRANCH   1  11
HETATM   11  C   UNK N   1      20.764  20.328   1.408  0.00  0.00     0.163 C 
HETATM   12  O   UNK N   1      21.370  21.241   1.941  0.00  0.00    -0.648 OA
BRANCH  11  13
HETATM   13  O   UNK N   1      20.568  20.358   0.075  0.00  0.00    -0.775 OA
HETATM   14  H   UNK N   1      21.237  20.049  -0.503  0.00  0.00     0.167 HD
ENDBRANCH  11  13
ENDBRANCH   1  11
TORSDOF 7
ENDMDL
MODEL 5
REMARK VINA RESULT:      -4.4     10.956     11.525
REMARK  7 active torsions:
REMARK  status: ('A' for Active; 'I' for Inactive)
REMARK    1  A    between atoms: C_2  and  N_1 
REMARK    2  A    between atoms: C_2  and  C_3 
REMARK    3  A    between atoms: C_2  and  C_9 
REMARK    4  A    between atoms: C_3  and  C_4 
REMARK    5  A    between atoms: C_4  and  S_5 
REMARK    6  A    between atoms: S_5  and  C_6 
REMARK    7  A    between atoms: C_9  and  O_10 
ROOT
HETATM    1  C   UNK N   1      22.485  12.355  11.372  0.00  0.00     0.174 C 
ENDROOT
BRANCH   1   2
HETATM    2  N   UNK N   1      21.251  11.737  11.827  0.00  0.00    -0.418 N 
HETATM    3  H   UNK N   1      20.925  10.872  11.395  0.00  0.00     0.150 HD
HETATM    4  H   UNK N   1      20.710  12.168  12.577  0.00  0.00     0.150 HD
ENDBRANCH   1   2
BRANCH   1   5
HETATM    5  C   UNK N   1      22.407  13.139  10.054  0.00  0.00     0.046 C 
BRANCH   5   6
HETATM    6  C   UNK N   1      21.058  13.811   9.856  0.00  0.00     0.082 C 
BRANCH   6   7
HETATM    7  S   UNK N   1      20.752  14.789   8.330  0.00  0.00    -0.101 SA
BRANCH   7   8
HETATM    8  C   UNK N   1      19.692  16.186   8.851  0.00  0.00     0.415 C 
HETATM    9  F   UNK N   1      20.145  17.464   8.585  0.00  0.00    -0.203 F 
HETATM   10  F   UNK N   1      18.476  16.050   9.489  0.00  0.00    -0.203 F 
ENDBRANCH   7   8
ENDBRANCH   6   7
ENDBRANCH   5   6
ENDBRANCH   1   5
BRANCH   1  11
HETATM   11  C   UNK N   1      23.703  12.159  12.244  0.00  0.00     0.163 C 
HETATM   12  O   UNK N   1      23.591  11.978  13.445  0.00  0.00    -0.648 OA
BRANCH  11  13
HETATM   13  O   UNK N   1      24.932  12.182  11.694  0.00  0.00    -0.775 OA
HETATM   14  H   UNK N   1      25.688  12.258  12.241  0.00  0.00     0.167 HD
ENDBRANCH  11  13
ENDBRANCH   1  11
TORSDOF 7
ENDMDL
MODEL 6
REMARK VINA RESULT:      -4.4      2.613      3.035
REMARK  7 active torsions:
REMARK  status: ('A' for Active; 'I' for Inactive)
REMARK    1  A    between atoms: C_2  and  N_1 
REMARK    2  A    between atoms: C_2  and  C_3 
REMARK    3  A    between atoms: C_2  and  C_9 
REMARK    4  A    between atoms: C_3  and  C_4 
REMARK    5  A    between atoms: C_4  and  S_5 
REMARK    6  A    between atoms: S_5  and  C_6 
REMARK    7  A    between atoms: C_9  and  O_10 
ROOT
HETATM    1  C   UNK N   1      33.942  17.200   8.942  0.00  0.00     0.174 C 
ENDROOT
BRANCH   1   2
HETATM    2  N   UNK N   1      34.562  16.976  10.236  0.00  0.00    -0.418 N 
HETATM    3  H   UNK N   1      34.954  17.762  10.757  0.00  0.00     0.150 HD
HETATM    4  H   UNK N   1      34.606  16.034  10.626  0.00  0.00     0.150 HD
ENDBRANCH   1   2
BRANCH   1   5
HETATM    5  C   UNK N   1      32.692  16.363   8.633  0.00  0.00     0.046 C 
BRANCH   5   6
HETATM    6  C   UNK N   1      31.417  17.190   8.661  0.00  0.00     0.082 C 
BRANCH   6   7
HETATM    7  S   UNK N   1      30.322  17.210   7.184  0.00  0.00    -0.101 SA
BRANCH   7   8
HETATM    8  C   UNK N   1      31.400  16.769   5.773  0.00  0.00     0.415 C 
HETATM    9  F   UNK N   1      31.667  15.428   5.570  0.00  0.00    -0.203 F 
HETATM   10  F   UNK N   1      31.961  17.680   4.902  0.00  0.00    -0.203 F 
ENDBRANCH   7   8
ENDBRANCH   6   7
ENDBRANCH   5   6
ENDBRANCH   1   5
BRANCH   1  11
HETATM   11  C   UNK N   1      34.593  18.228   8.047  0.00  0.00     0.163 C 
HETATM   12  O   UNK N   1      35.208  19.170   8.518  0.00  0.00    -0.648 OA
BRANCH  11  13
HETATM   13  O   UNK N   1      34.498  18.109   6.708  0.00  0.00    -0.775 OA
HETATM   14  H   UNK N   1      33.778  18.500   6.254  0.00  0.00     0.167 HD
ENDBRANCH  11  13
ENDBRANCH   1  11
TORSDOF 7
ENDMDL
MODEL 7
REMARK VINA RESULT:      -4.4     10.711     12.285
REMARK  7 active torsions:
REMARK  status: ('A' for Active; 'I' for Inactive)
REMARK    1  A    between atoms: C_2  and  N_1 
REMARK    2  A    between atoms: C_2  and  C_3 
REMARK    3  A    between atoms: C_2  and  C_9 
REMARK    4  A    between atoms: C_3  and  C_4 
REMARK    5  A    between atoms: C_4  and  S_5 
REMARK    6  A    between atoms: S_5  and  C_6 
REMARK    7  A    between atoms: C_9  and  O_10 
ROOT
HETATM    1  C   UNK N   1      20.587  19.799   2.302  0.00  0.00     0.174 C 
ENDROOT
BRANCH   1   2
HETATM    2  N   UNK N   1      19.312  19.105   2.355  0.00  0.00    -0.418 N 
HETATM    3  H   UNK N   1      19.127  18.326   1.721  0.00  0.00     0.150 HD
HETATM    4  H   UNK N   1      18.599  19.396   3.025  0.00  0.00     0.150 HD
ENDBRANCH   1   2
BRANCH   1   5
HETATM    5  C   UNK N   1      21.586  19.472   3.421  0.00  0.00     0.046 C 
BRANCH   5   6
HETATM    6  C   UNK N   1      22.977  20.012   3.135  0.00  0.00     0.082 C 
BRANCH   6   7
HETATM    7  S   UNK N   1      24.432  19.231   3.943  0.00  0.00    -0.101 SA
BRANCH   7   8
HETATM    8  C   UNK N   1      25.862  20.279   3.490  0.00  0.00     0.415 C 
HETATM    9  F   UNK N   1      25.842  20.881   2.245  0.00  0.00    -0.203 F 
HETATM   10  F   UNK N   1      26.953  20.509   4.302  0.00  0.00    -0.203 F 
ENDBRANCH   7   8
ENDBRANCH   6   7
ENDBRANCH   5   6
ENDBRANCH   1   5
BRANCH   1  11
HETATM   11  C   UNK N   1      20.787  20.762   1.155  0.00  0.00     0.163 C 
HETATM   12  O   UNK N   1      20.979  20.355   0.022  0.00  0.00    -0.648 OA
BRANCH  11  13
HETATM   13  O   UNK N   1      20.755  22.089   1.381  0.00  0.00    -0.775 OA
HETATM   14  H   UNK N   1      21.518  22.610   1.226  0.00  0.00     0.167 HD
ENDBRANCH  11  13
ENDBRANCH   1  11
TORSDOF 7
ENDMDL
MODEL 8
REMARK VINA RESULT:      -4.3      6.765      7.559
REMARK  7 active torsions:
REMARK  status: ('A' for Active; 'I' for Inactive)
REMARK    1  A    between atoms: C_2  and  N_1 
REMARK    2  A    between atoms: C_2  and  C_3 
REMARK    3  A    between atoms: C_2  and  C_9 
REMARK    4  A    between atoms: C_3  and  C_4 
REMARK    5  A    between atoms: C_4  and  S_5 
REMARK    6  A    between atoms: S_5  and  C_6 
REMARK    7  A    between atoms: C_9  and  O_10 
ROOT
HETATM    1  C   UNK N   1      35.008  15.142  11.468  0.00  0.00     0.174 C 
ENDROOT
BRANCH   1   2
HETATM    2  N   UNK N   1      33.667  15.021  10.922  0.00  0.00    -0.418 N 
HETATM    3  H   UNK N   1      33.214  14.107  10.879  0.00  0.00     0.150 HD
HETATM    4  H   UNK N   1      33.178  15.849  10.580  0.00  0.00     0.150 HD
ENDBRANCH   1   2
BRANCH   1   5
HETATM    5  C   UNK N   1      35.363  14.185  12.615  0.00  0.00     0.046 C 
BRANCH   5   6
HETATM    6  C   UNK N   1      35.421  12.734  12.165  0.00  0.00     0.082 C 
BRANCH   6   7
HETATM    7  S   UNK N   1      35.526  11.402  13.426  0.00  0.00    -0.101 SA
BRANCH   7   8
HETATM    8  C   UNK N   1      33.880  10.602  13.427  0.00  0.00     0.415 C 
HETATM    9  F   UNK N   1      33.217  10.511  14.636  0.00  0.00    -0.203 F 
HETATM   10  F   UNK N   1      33.260  10.086  12.308  0.00  0.00    -0.203 F 
ENDBRANCH   7   8
ENDBRANCH   6   7
ENDBRANCH   5   6
ENDBRANCH   1   5
BRANCH   1  11
HETATM   11  C   UNK N   1      35.900  16.192  10.848  0.00  0.00     0.163 C 
HETATM   12  O   UNK N   1      35.437  17.239  10.429  0.00  0.00    -0.648 OA
BRANCH  11  13
HETATM   13  O   UNK N   1      37.226  15.975  10.755  0.00  0.00    -0.775 OA
HETATM   14  H   UNK N   1      37.639  15.953   9.915  0.00  0.00     0.167 HD
ENDBRANCH  11  13
ENDBRANCH   1  11
TORSDOF 7
ENDMDL
MODEL 9
REMARK VINA RESULT:      -4.3      3.679      4.116
REMARK  7 active torsions:
REMARK  status: ('A' for Active; 'I' for Inactive)
REMARK    1  A    between atoms: C_2  and  N_1 
REMARK    2  A    between atoms: C_2  and  C_3 
REMARK    3  A    between atoms: C_2  and  C_9 
REMARK    4  A    between atoms: C_3  and  C_4 
REMARK    5  A    between atoms: C_4  and  S_5 
REMARK    6  A    between atoms: S_5  and  C_6 
REMARK    7  A    between atoms: C_9  and  O_10 
ROOT
HETATM    1  C   UNK N   1      34.578  15.505  10.085  0.00  0.00     0.174 C 
ENDROOT
BRANCH   1   2
HETATM    2  N   UNK N   1      33.837  14.902  11.179  0.00  0.00    -0.418 N 
HETATM    3  H   UNK N   1      33.334  14.025  11.033  0.00  0.00     0.150 HD
HETATM    4  H   UNK N   1      33.818  15.353  12.094  0.00  0.00     0.150 HD
ENDBRANCH   1   2
BRANCH   1   5
HETATM    5  C   UNK N   1      34.150  15.099   8.668  0.00  0.00     0.046 C 
BRANCH   5   6
HETATM    6  C   UNK N   1      32.671  15.339   8.417  0.00  0.00     0.082 C 
BRANCH   6   7
HETATM    7  S   UNK N   1      32.070  17.053   8.136  0.00  0.00    -0.101 SA
BRANCH   7   8
HETATM    8  C   UNK N   1      33.486  17.951   7.403  0.00  0.00     0.415 C 
HETATM    9  F   UNK N   1      34.040  18.979   8.143  0.00  0.00    -0.203 F 
HETATM   10  F   UNK N   1      34.035  17.673   6.169  0.00  0.00    -0.203 F 
ENDBRANCH   7   8
ENDBRANCH   6   7
ENDBRANCH   5   6
ENDBRANCH   1   5
BRANCH   1  11
HETATM   11  C   UNK N   1      35.684  16.462  10.464  0.00  0.00     0.163 C 
HETATM   12  O   UNK N   1      35.535  17.667  10.354  0.00  0.00    -0.648 OA
BRANCH  11  13
HETATM   13  O   UNK N   1      36.854  15.984  10.930  0.00  0.00    -0.775 OA
HETATM   14  H   UNK N   1      37.598  16.549  10.996  0.00  0.00     0.167 HD
ENDBRANCH  11  13
ENDBRANCH   1  11
TORSDOF 7
ENDMDL
