MODEL 1
REMARK VINA RESULT:      -6.4      0.000      0.000
REMARK WARNING: 32 MAX_TORS EXCEEDED!!!
REMARK  36 active torsions:
REMARK  status: ('A' for Active; 'I' for Inactive)
REMARK    1  A    between atoms: C_4  and  C_3 
REMARK    2  A    between atoms: C_14  and  C_3 
REMARK    3  A    between atoms: C_16  and  C_4 
REMARK    4  A    between atoms: C_6  and  C_5 
REMARK    5  A    between atoms: C_15  and  C_5 
REMARK    6  A    between atoms: N_31  and  C_6 
REMARK    7  A    between atoms: C_8  and  C_7 
REMARK    8  A    between atoms: N_27  and  C_7 
REMARK    9  A    between atoms: N_29  and  C_8 
REMARK   10  A    between atoms: C_13  and  C_9 
REMARK   11  A    between atoms: O_54  and  C_9 
REMARK   12  A    between atoms: C_25  and  C_10 
REMARK   13  A    between atoms: O_55  and  C_10 
REMARK   14  A    between atoms: N_27  and  C_14 
REMARK   15  A    between atoms: O_40  and  C_14 
REMARK   16  A    between atoms: N_29  and  C_15 
REMARK   17  A    between atoms: O_41  and  C_15 
REMARK   18  A    between atoms: O_43  and  C_16 
REMARK   19  A    between atoms: C_18  and  O_44 
REMARK   20  A    between atoms: C_19  and  O_57 
REMARK   21  A    between atoms: C_23  and  C_20 
REMARK   22  A    between atoms: C_25  and  C_20 
REMARK   23  A    between atoms: C_20  and  O_45 
REMARK   24  A    between atoms: N_26  and  C_21 
REMARK   25  A    between atoms: N_31  and  C_23 
REMARK   26  A    between atoms: O_46  and  C_23 
REMARK   27  A    between atoms: C_24  and  N_39 
REMARK   28  A    between atoms: P_59  and  O_47 
REMARK   29  A    between atoms: P_59  and  O_48 
REMARK   30  A    between atoms: P_60  and  O_50 
REMARK   31  A    between atoms: P_61  and  O_52 
REMARK   32  A    between atoms: P_60  and  O_54 
REMARK   33  A    between atoms: P_61  and  O_55 
REMARK   34  A    between atoms: P_59  and  O_57 
REMARK   35  A    between atoms: P_60  and  O_58 
REMARK   36  A    between atoms: P_61  and  O_58 
ROOT
HETATM    1  O   UNK N   1      25.358  15.564   1.801  0.00  0.00    -0.631 OA
HETATM    2  P   UNK N   1      25.949  15.167   3.182  0.00  0.00     0.401 P 
ENDROOT
BRANCH   2   3
HETATM    3  O   UNK N   1      27.240  16.283   3.491  0.00  0.00    -0.307 OA
HETATM    4  H   UNK N   1      28.163  15.991   3.442  0.00  0.00     0.222 HD
ENDBRANCH   2   3
BRANCH   2   5
HETATM    5  O   UNK N   1      24.657  15.317   4.340  0.00  0.00    -0.296 OA
BRANCH   5   6
HETATM    6  C   UNK N   1      23.625  15.900   3.608  0.00  0.00     0.192 C 
BRANCH   6   7
HETATM    7  C   UNK N   1      22.839  16.947   4.395  0.00  0.00     0.008 C 
HETATM    8  C   UNK N   1      23.617  18.253   4.389  0.00  0.00     0.020 C 
HETATM    9  C   UNK N   1      21.480  17.200   3.752  0.00  0.00     0.020 C 
BRANCH   7  10
HETATM   10  C   UNK N   1      22.640  16.445   5.845  0.00  0.00     0.202 C 
BRANCH  10  11
HETATM   11  C   UNK N   1      21.554  17.225   6.546  0.00  0.00     0.141 C 
BRANCH  11  12
HETATM   12  N   UNK N   1      20.576  16.610   7.119  0.00  0.00    -0.372 N 
ATOM     13  HN  UNK N   1      19.988  15.985   6.567  1.00  0.00     0.161 HD
BRANCH  12  14
HETATM   14  C   UNK N   1      20.298  16.787   8.525  0.00  0.00     0.129 C 
BRANCH  14  15
HETATM   15  C   UNK N   1      19.615  15.537   9.052  0.00  0.00     0.103 C 
BRANCH  15  16
HETATM   16  C   UNK N   1      20.469  14.321   8.901  0.00  0.00     0.112 C 
BRANCH  16  17
HETATM   17  N   UNK N   1      21.213  13.915   9.872  0.00  0.00    -0.373 N 
ATOM     18  HN  UNK N   1      21.951  14.531  10.214  1.00  0.00     0.161 HD
BRANCH  17  19
HETATM   19  C   UNK N   1      21.041  12.618  10.497  0.00  0.00     0.141 C 
BRANCH  19  20
HETATM   20  C   UNK N   1      22.173  12.359  11.492  0.00  0.00     0.141 C 
BRANCH  20  21
HETATM   21  N   UNK N   1      23.236  11.675  10.803  0.00  0.00    -0.373 N 
ATOM     22  HN  UNK N   1      23.087  10.712  10.499  1.00  0.00     0.161 HD
BRANCH  21  23
HETATM   23  C   UNK N   1      24.367  12.236  10.559  0.00  0.00     0.111 C 
BRANCH  23  24
HETATM   24  C   UNK N   1      24.718  12.587   9.155  0.00  0.00     0.094 C 
BRANCH  24  25
HETATM   25  C   UNK N   1      23.773  11.818   8.242  0.00  0.00     0.118 C 
BRANCH  25  26
HETATM   26  C   UNK N   1      23.687  12.437   6.893  0.00  0.00     0.139 C 
HETATM   27  O   UNK N   1      22.759  12.153   6.155  0.00  0.00    -0.650 OA
BRANCH  26  28
HETATM   28  O   UNK N   1      24.609  13.335   6.499  0.00  0.00    -0.776 OA
HETATM   29  H   UNK N   1      25.489  13.279   6.819  0.00  0.00     0.167 HD
ENDBRANCH  26  28
ENDBRANCH  25  26
ENDBRANCH  24  25
ENDBRANCH  23  24
BRANCH  23  30
HETATM   30  O   UNK N   1      25.204  12.574  11.562  0.00  0.00    -0.350 OA
HETATM   31  H   UNK N   1      26.140  12.550  11.538  0.00  0.00     0.219 HD
ENDBRANCH  23  30
ENDBRANCH  21  23
ENDBRANCH  20  21
ENDBRANCH  19  20
ENDBRANCH  17  19
ENDBRANCH  16  17
BRANCH  16  32
HETATM   32  O   UNK N   1      20.482  13.657   7.729  0.00  0.00    -0.350 OA
HETATM   33  H   UNK N   1      21.252  13.652   7.193  0.00  0.00     0.219 HD
ENDBRANCH  16  32
ENDBRANCH  15  16
ENDBRANCH  14  15
ENDBRANCH  12  14
ENDBRANCH  11  12
BRANCH  11  34
HETATM   34  O   UNK N   1      21.609  18.577   6.560  0.00  0.00    -0.348 OA
HETATM   35  H   UNK N   1      21.970  19.297   7.038  0.00  0.00     0.219 HD
ENDBRANCH  11  34
ENDBRANCH  10  11
BRANCH  10  36
HETATM   36  O   UNK N   1      22.285  15.091   5.849  0.00  0.00    -0.387 OA
HETATM   37  H   UNK N   1      22.400  14.252   5.376  0.00  0.00     0.210 HD
ENDBRANCH  10  36
ENDBRANCH   7  10
ENDBRANCH   6   7
ENDBRANCH   5   6
ENDBRANCH   2   5
BRANCH   2  38
HETATM   38  O   UNK N   1      26.529  13.530   3.019  0.00  0.00    -0.195 OA
BRANCH  38  39
HETATM   39  P   UNK N   1      27.833  13.303   4.162  0.00  0.00     0.401 P 
HETATM   40  O   UNK N   1      27.903  11.804   4.557  0.00  0.00    -0.631 OA
BRANCH  39  41
HETATM   41  O   UNK N   1      27.420  14.138   5.626  0.00  0.00    -0.307 OA
HETATM   42  H   UNK N   1      27.725  14.876   6.176  0.00  0.00     0.222 HD
ENDBRANCH  39  41
BRANCH  39  43
HETATM   43  O   UNK N   1      29.403  13.871   3.644  0.00  0.00    -0.294 OA
BRANCH  43  44
HETATM   44  C   UNK N   1      30.186  14.130   4.781  0.00  0.00     0.215 C 
BRANCH  44  45
HETATM   45  C   UNK N   1      30.413  15.632   4.969  0.00  0.00     0.180 C 
HETATM   46  C   UNK N   1      31.605  15.914   5.903  0.00  0.00     0.197 C 
HETATM   47  C   UNK N   1      31.126  17.209   6.501  0.00  0.00     0.199 C 
HETATM   48  C   UNK N   1      29.666  16.838   6.729  0.00  0.00     0.262 C 
HETATM   49  O   UNK N   1      29.255  16.236   5.524  0.00  0.00    -0.353 OA
BRANCH  46  50
HETATM   50  O   UNK N   1      32.847  16.103   5.254  0.00  0.00    -0.286 OA
BRANCH  50  51
HETATM   51  P   UNK N   1      34.164  16.186   6.412  0.00  0.00     0.391 P 
HETATM   52  O   UNK N   1      35.426  15.515   5.807  0.00  0.00    -0.632 OA
BRANCH  51  53
HETATM   53  O   UNK N   1      34.571  17.822   6.831  0.00  0.00    -0.307 OA
HETATM   54  H   UNK N   1      34.678  18.693   6.417  0.00  0.00     0.222 HD
ENDBRANCH  51  53
BRANCH  51  55
HETATM   55  O   UNK N   1      33.778  15.285   7.842  0.00  0.00    -0.307 OA
HETATM   56  H   UNK N   1      34.468  14.793   8.316  0.00  0.00     0.222 HD
ENDBRANCH  51  55
ENDBRANCH  50  51
ENDBRANCH  46  50
BRANCH  47  57
HETATM   57  O   UNK N   1      31.808  17.533   7.676  0.00  0.00    -0.388 OA
HETATM   58  H   UNK N   1      32.403  17.098   8.305  0.00  0.00     0.210 HD
ENDBRANCH  47  57
BRANCH  48  59
HETATM   59  N   UNK N   1      28.769  17.949   7.070  0.00  0.00    -0.297 N 
HETATM   60  C   UNK N   1      28.437  18.281   8.347  0.00  0.00     0.188 A 
HETATM   61  N   UNK N   1      27.616  19.366   8.388  0.00  0.00    -0.346 N 
HETATM   62  C   UNK N   1      27.455  19.710   7.098  0.00  0.00     0.122 A 
ATOM     63  HN  UNK N   1      27.213  19.814   9.210  1.00  0.00     0.167 HD
HETATM   64  C   UNK N   1      26.746  20.763   6.549  0.00  0.00     0.131 A 
HETATM   65  C   UNK N   1      28.140  18.859   6.307  0.00  0.00     0.142 A 
HETATM   66  N   UNK N   1      26.771  20.910   5.191  0.00  0.00    -0.337 N 
HETATM   67  C   UNK N   1      27.475  20.035   4.398  0.00  0.00     0.183 A 
ATOM     68  HN  UNK N   1      26.259  21.679   4.759  1.00  0.00     0.168 HD
HETATM   69  N   UNK N   1      28.170  18.996   4.958  0.00  0.00    -0.336 N 
ATOM     70  HN  UNK N   1      28.696  18.343   4.376  1.00  0.00     0.168 HD
BRANCH  64  71
HETATM   71  N   UNK N   1      26.033  21.670   7.359  0.00  0.00    -0.383 N 
HETATM   72  H   UNK N   1      26.496  22.439   7.761  0.00  0.00     0.157 HD
HETATM   73  H   UNK N   1      25.072  21.532   7.522  0.00  0.00     0.157 HD
ENDBRANCH  64  71
ENDBRANCH  48  59
ENDBRANCH  44  45
ENDBRANCH  43  44
ENDBRANCH  39  43
ENDBRANCH  38  39
ENDBRANCH   2  38
TORSDOF 36
ENDMDL
MODEL 2
REMARK VINA RESULT:      -6.4      2.557      9.298
REMARK WARNING: 32 MAX_TORS EXCEEDED!!!
REMARK  36 active torsions:
REMARK  status: ('A' for Active; 'I' for Inactive)
REMARK    1  A    between atoms: C_4  and  C_3 
REMARK    2  A    between atoms: C_14  and  C_3 
REMARK    3  A    between atoms: C_16  and  C_4 
REMARK    4  A    between atoms: C_6  and  C_5 
REMARK    5  A    between atoms: C_15  and  C_5 
REMARK    6  A    between atoms: N_31  and  C_6 
REMARK    7  A    between atoms: C_8  and  C_7 
REMARK    8  A    between atoms: N_27  and  C_7 
REMARK    9  A    between atoms: N_29  and  C_8 
REMARK   10  A    between atoms: C_13  and  C_9 
REMARK   11  A    between atoms: O_54  and  C_9 
REMARK   12  A    between atoms: C_25  and  C_10 
REMARK   13  A    between atoms: O_55  and  C_10 
REMARK   14  A    between atoms: N_27  and  C_14 
REMARK   15  A    between atoms: O_40  and  C_14 
REMARK   16  A    between atoms: N_29  and  C_15 
REMARK   17  A    between atoms: O_41  and  C_15 
REMARK   18  A    between atoms: O_43  and  C_16 
REMARK   19  A    between atoms: C_18  and  O_44 
REMARK   20  A    between atoms: C_19  and  O_57 
REMARK   21  A    between atoms: C_23  and  C_20 
REMARK   22  A    between atoms: C_25  and  C_20 
REMARK   23  A    between atoms: C_20  and  O_45 
REMARK   24  A    between atoms: N_26  and  C_21 
REMARK   25  A    between atoms: N_31  and  C_23 
REMARK   26  A    between atoms: O_46  and  C_23 
REMARK   27  A    between atoms: C_24  and  N_39 
REMARK   28  A    between atoms: P_59  and  O_47 
REMARK   29  A    between atoms: P_59  and  O_48 
REMARK   30  A    between atoms: P_60  and  O_50 
REMARK   31  A    between atoms: P_61  and  O_52 
REMARK   32  A    between atoms: P_60  and  O_54 
REMARK   33  A    between atoms: P_61  and  O_55 
REMARK   34  A    between atoms: P_59  and  O_57 
REMARK   35  A    between atoms: P_60  and  O_58 
REMARK   36  A    between atoms: P_61  and  O_58 
ROOT
HETATM    1  O   UNK N   1      28.423  16.892   3.779  0.00  0.00    -0.631 OA
HETATM    2  P   UNK N   1      27.965  15.572   4.459  0.00  0.00     0.401 P 
ENDROOT
BRANCH   2   3
HETATM    3  O   UNK N   1      28.039  14.348   3.233  0.00  0.00    -0.307 OA
HETATM    4  H   UNK N   1      28.672  14.424   2.502  0.00  0.00     0.222 HD
ENDBRANCH   2   3
BRANCH   2   5
HETATM    5  O   UNK N   1      29.080  15.269   5.761  0.00  0.00    -0.296 OA
BRANCH   5   6
HETATM    6  C   UNK N   1      28.976  16.409   6.556  0.00  0.00     0.192 C 
BRANCH   6   7
HETATM    7  C   UNK N   1      30.321  16.900   7.089  0.00  0.00     0.008 C 
HETATM    8  C   UNK N   1      31.099  15.711   7.631  0.00  0.00     0.020 C 
HETATM    9  C   UNK N   1      31.143  17.539   5.976  0.00  0.00     0.020 C 
BRANCH   7  10
HETATM   10  C   UNK N   1      30.072  17.938   8.210  0.00  0.00     0.202 C 
BRANCH  10  11
HETATM   11  C   UNK N   1      28.695  18.545   8.092  0.00  0.00     0.141 C 
BRANCH  11  12
HETATM   12  N   UNK N   1      28.393  19.287   7.081  0.00  0.00    -0.372 N 
ATOM     13  HN  UNK N   1      28.871  19.138   6.192  1.00  0.00     0.161 HD
BRANCH  12  14
HETATM   14  C   UNK N   1      27.392  20.323   7.182  0.00  0.00     0.129 C 
BRANCH  14  15
HETATM   15  C   UNK N   1      27.126  20.886   5.797  0.00  0.00     0.103 C 
BRANCH  15  16
HETATM   16  C   UNK N   1      27.393  19.885   4.721  0.00  0.00     0.112 C 
BRANCH  16  17
HETATM   17  N   UNK N   1      26.466  19.084   4.323  0.00  0.00    -0.373 N 
ATOM     18  HN  UNK N   1      26.729  18.261   3.779  1.00  0.00     0.161 HD
BRANCH  17  19
HETATM   19  C   UNK N   1      25.063  19.305   4.619  0.00  0.00     0.141 C 
BRANCH  19  20
HETATM   20  C   UNK N   1      24.335  19.804   3.369  0.00  0.00     0.141 C 
BRANCH  20  21
HETATM   21  N   UNK N   1      22.970  19.351   3.427  0.00  0.00    -0.373 N 
ATOM     22  HN  UNK N   1      22.767  18.450   3.862  1.00  0.00     0.161 HD
BRANCH  21  23
HETATM   23  C   UNK N   1      21.997  20.043   2.949  0.00  0.00     0.111 C 
BRANCH  23  24
HETATM   24  C   UNK N   1      20.698  20.074   3.676  0.00  0.00     0.094 C 
BRANCH  24  25
HETATM   25  C   UNK N   1      19.611  19.680   2.685  0.00  0.00     0.118 C 
BRANCH  25  26
HETATM   26  C   UNK N   1      19.543  18.206   2.500  0.00  0.00     0.139 C 
HETATM   27  O   UNK N   1      20.064  17.695   1.523  0.00  0.00    -0.650 OA
BRANCH  26  28
HETATM   28  O   UNK N   1      18.943  17.434   3.424  0.00  0.00    -0.776 OA
HETATM   29  H   UNK N   1      19.318  16.610   3.666  0.00  0.00     0.167 HD
ENDBRANCH  26  28
ENDBRANCH  25  26
ENDBRANCH  24  25
ENDBRANCH  23  24
BRANCH  23  30
HETATM   30  O   UNK N   1      22.162  20.796   1.841  0.00  0.00    -0.350 OA
HETATM   31  H   UNK N   1      21.742  21.613   1.656  0.00  0.00     0.219 HD
ENDBRANCH  23  30
ENDBRANCH  21  23
ENDBRANCH  20  21
ENDBRANCH  19  20
ENDBRANCH  17  19
ENDBRANCH  16  17
BRANCH  16  32
HETATM   32  O   UNK N   1      28.624  19.801   4.179  0.00  0.00    -0.350 OA
HETATM   33  H   UNK N   1      29.244  19.176   4.502  0.00  0.00     0.219 HD
ENDBRANCH  16  32
ENDBRANCH  15  16
ENDBRANCH  14  15
ENDBRANCH  12  14
ENDBRANCH  11  12
BRANCH  11  34
HETATM   34  O   UNK N   1      27.780  18.313   9.062  0.00  0.00    -0.348 OA
HETATM   35  H   UNK N   1      27.096  18.730   9.548  0.00  0.00     0.219 HD
ENDBRANCH  11  34
ENDBRANCH  10  11
BRANCH  10  36
HETATM   36  O   UNK N   1      30.183  17.334   9.467  0.00  0.00    -0.387 OA
HETATM   37  H   UNK N   1      29.953  16.541   9.976  0.00  0.00     0.210 HD
ENDBRANCH  10  36
ENDBRANCH   7  10
ENDBRANCH   6   7
ENDBRANCH   5   6
ENDBRANCH   2   5
BRANCH   2  38
HETATM   38  O   UNK N   1      26.332  15.842   5.012  0.00  0.00    -0.195 OA
BRANCH  38  39
HETATM   39  P   UNK N   1      25.258  15.629   3.649  0.00  0.00     0.401 P 
HETATM   40  O   UNK N   1      25.247  14.131   3.243  0.00  0.00    -0.631 OA
BRANCH  39  41
HETATM   41  O   UNK N   1      25.941  16.461   2.287  0.00  0.00    -0.307 OA
HETATM   42  H   UNK N   1      25.787  16.596   1.339  0.00  0.00     0.222 HD
ENDBRANCH  39  41
BRANCH  39  43
HETATM   43  O   UNK N   1      23.626  16.214   3.870  0.00  0.00    -0.294 OA
BRANCH  43  44
HETATM   44  C   UNK N   1      23.325  16.205   5.242  0.00  0.00     0.215 C 
BRANCH  44  45
HETATM   45  C   UNK N   1      23.061  14.783   5.744  0.00  0.00     0.180 C 
HETATM   46  C   UNK N   1      21.719  14.237   5.223  0.00  0.00     0.197 C 
HETATM   47  C   UNK N   1      21.373  13.339   6.380  0.00  0.00     0.199 C 
HETATM   48  C   UNK N   1      21.768  14.264   7.524  0.00  0.00     0.262 C 
HETATM   49  O   UNK N   1      23.034  14.763   7.163  0.00  0.00    -0.353 OA
BRANCH  46  50
HETATM   50  O   UNK N   1      21.797  13.487   4.026  0.00  0.00    -0.286 OA
BRANCH  50  51
HETATM   51  P   UNK N   1      20.808  14.198   2.763  0.00  0.00     0.391 P 
HETATM   52  O   UNK N   1      20.549  13.143   1.655  0.00  0.00    -0.632 OA
BRANCH  51  53
HETATM   53  O   UNK N   1      19.270  14.746   3.358  0.00  0.00    -0.307 OA
HETATM   54  H   UNK N   1      18.384  14.972   3.035  0.00  0.00     0.222 HD
ENDBRANCH  51  53
BRANCH  51  55
HETATM   55  O   UNK N   1      21.647  15.507   1.994  0.00  0.00    -0.307 OA
HETATM   56  H   UNK N   1      22.552  15.386   1.664  0.00  0.00     0.222 HD
ENDBRANCH  51  55
ENDBRANCH  50  51
ENDBRANCH  46  50
BRANCH  47  57
HETATM   57  O   UNK N   1      20.022  12.986   6.390  0.00  0.00    -0.388 OA
HETATM   58  H   UNK N   1      19.219  13.225   6.878  0.00  0.00     0.210 HD
ENDBRANCH  47  57
BRANCH  48  59
HETATM   59  N   UNK N   1      21.828  13.648   8.855  0.00  0.00    -0.297 N 
HETATM   60  C   UNK N   1      20.727  13.348   9.594  0.00  0.00     0.188 A 
HETATM   61  N   UNK N   1      21.058  12.758  10.775  0.00  0.00    -0.346 N 
HETATM   62  C   UNK N   1      22.400  12.684  10.745  0.00  0.00     0.122 A 
ATOM     63  HN  UNK N   1      20.431  12.443  11.515  1.00  0.00     0.167 HD
HETATM   64  C   UNK N   1      23.274  12.143  11.670  0.00  0.00     0.131 A 
HETATM   65  C   UNK N   1      22.864  13.223   9.598  0.00  0.00     0.142 A 
HETATM   66  N   UNK N   1      24.609  12.169  11.379  0.00  0.00    -0.337 N 
HETATM   67  C   UNK N   1      25.065  12.720  10.205  0.00  0.00     0.183 A 
ATOM     68  HN  UNK N   1      25.276  11.774  12.042  1.00  0.00     0.168 HD
HETATM   69  N   UNK N   1      24.186  13.253   9.300  0.00  0.00    -0.336 N 
ATOM     70  HN  UNK N   1      24.518  13.663   8.426  1.00  0.00     0.168 HD
BRANCH  64  71
HETATM   71  N   UNK N   1      22.809  11.566  12.869  0.00  0.00    -0.383 N 
HETATM   72  H   UNK N   1      23.175  11.864  13.732  0.00  0.00     0.157 HD
HETATM   73  H   UNK N   1      22.119  10.864  12.842  0.00  0.00     0.157 HD
ENDBRANCH  64  71
ENDBRANCH  48  59
ENDBRANCH  44  45
ENDBRANCH  43  44
ENDBRANCH  39  43
ENDBRANCH  38  39
ENDBRANCH   2  38
TORSDOF 36
ENDMDL
MODEL 3
REMARK VINA RESULT:      -6.3      4.205      9.826
REMARK WARNING: 32 MAX_TORS EXCEEDED!!!
REMARK  36 active torsions:
REMARK  status: ('A' for Active; 'I' for Inactive)
REMARK    1  A    between atoms: C_4  and  C_3 
REMARK    2  A    between atoms: C_14  and  C_3 
REMARK    3  A    between atoms: C_16  and  C_4 
REMARK    4  A    between atoms: C_6  and  C_5 
REMARK    5  A    between atoms: C_15  and  C_5 
REMARK    6  A    between atoms: N_31  and  C_6 
REMARK    7  A    between atoms: C_8  and  C_7 
REMARK    8  A    between atoms: N_27  and  C_7 
REMARK    9  A    between atoms: N_29  and  C_8 
REMARK   10  A    between atoms: C_13  and  C_9 
REMARK   11  A    between atoms: O_54  and  C_9 
REMARK   12  A    between atoms: C_25  and  C_10 
REMARK   13  A    between atoms: O_55  and  C_10 
REMARK   14  A    between atoms: N_27  and  C_14 
REMARK   15  A    between atoms: O_40  and  C_14 
REMARK   16  A    between atoms: N_29  and  C_15 
REMARK   17  A    between atoms: O_41  and  C_15 
REMARK   18  A    between atoms: O_43  and  C_16 
REMARK   19  A    between atoms: C_18  and  O_44 
REMARK   20  A    between atoms: C_19  and  O_57 
REMARK   21  A    between atoms: C_23  and  C_20 
REMARK   22  A    between atoms: C_25  and  C_20 
REMARK   23  A    between atoms: C_20  and  O_45 
REMARK   24  A    between atoms: N_26  and  C_21 
REMARK   25  A    between atoms: N_31  and  C_23 
REMARK   26  A    between atoms: O_46  and  C_23 
REMARK   27  A    between atoms: C_24  and  N_39 
REMARK   28  A    between atoms: P_59  and  O_47 
REMARK   29  A    between atoms: P_59  and  O_48 
REMARK   30  A    between atoms: P_60  and  O_50 
REMARK   31  A    between atoms: P_61  and  O_52 
REMARK   32  A    between atoms: P_60  and  O_54 
REMARK   33  A    between atoms: P_61  and  O_55 
REMARK   34  A    between atoms: P_59  and  O_57 
REMARK   35  A    between atoms: P_60  and  O_58 
REMARK   36  A    between atoms: P_61  and  O_58 
ROOT
HETATM    1  O   UNK N   1      20.140  13.529   7.187  0.00  0.00    -0.631 OA
HETATM    2  P   UNK N   1      20.789  14.209   8.424  0.00  0.00     0.401 P 
ENDROOT
BRANCH   2   3
HETATM    3  O   UNK N   1      19.478  14.690   9.451  0.00  0.00    -0.307 OA
HETATM    4  H   UNK N   1      18.989  14.029   9.966  0.00  0.00     0.222 HD
ENDBRANCH   2   3
BRANCH   2   5
HETATM    5  O   UNK N   1      21.809  13.014   9.174  0.00  0.00    -0.296 OA
BRANCH   5   6
HETATM    6  C   UNK N   1      22.096  12.128   8.136  0.00  0.00     0.192 C 
BRANCH   6   7
HETATM    7  C   UNK N   1      23.578  11.777   8.032  0.00  0.00     0.008 C 
HETATM    8  C   UNK N   1      24.204  11.871   9.415  0.00  0.00     0.020 C 
HETATM    9  C   UNK N   1      23.762  10.352   7.523  0.00  0.00     0.020 C 
BRANCH   7  10
HETATM   10  C   UNK N   1      24.265  12.766   7.060  0.00  0.00     0.202 C 
BRANCH  10  11
HETATM   11  C   UNK N   1      23.523  12.843   5.748  0.00  0.00     0.141 C 
BRANCH  11  12
HETATM   12  N   UNK N   1      23.758  11.984   4.815  0.00  0.00    -0.372 N 
ATOM     13  HN  UNK N   1      24.091  11.053   5.066  1.00  0.00     0.161 HD
BRANCH  12  14
HETATM   14  C   UNK N   1      23.557  12.314   3.423  0.00  0.00     0.129 C 
BRANCH  14  15
HETATM   15  C   UNK N   1      24.796  13.023   2.903  0.00  0.00     0.103 C 
BRANCH  15  16
HETATM   16  C   UNK N   1      24.458  14.274   2.159  0.00  0.00     0.112 C 
BRANCH  16  17
HETATM   17  N   UNK N   1      25.386  15.076   1.765  0.00  0.00    -0.373 N 
ATOM     18  HN  UNK N   1      25.488  15.256   0.766  1.00  0.00     0.161 HD
BRANCH  17  19
HETATM   19  C   UNK N   1      26.292  15.733   2.688  0.00  0.00     0.141 C 
BRANCH  19  20
HETATM   20  C   UNK N   1      25.500  16.431   3.795  0.00  0.00     0.141 C 
BRANCH  20  21
HETATM   21  N   UNK N   1      26.083  17.727   4.025  0.00  0.00    -0.373 N 
ATOM     22  HN  UNK N   1      25.542  18.560   3.789  1.00  0.00     0.161 HD
BRANCH  21  23
HETATM   23  C   UNK N   1      27.263  17.870   4.516  0.00  0.00     0.111 C 
BRANCH  23  24
HETATM   24  C   UNK N   1      27.591  17.231   5.819  0.00  0.00     0.094 C 
BRANCH  24  25
HETATM   25  C   UNK N   1      28.599  18.127   6.527  0.00  0.00     0.118 C 
BRANCH  25  26
HETATM   26  C   UNK N   1      27.937  19.280   7.192  0.00  0.00     0.139 C 
HETATM   27  O   UNK N   1      27.774  20.321   6.578  0.00  0.00    -0.650 OA
BRANCH  26  28
HETATM   28  O   UNK N   1      27.486  19.167   8.455  0.00  0.00    -0.776 OA
HETATM   29  H   UNK N   1      28.061  19.330   9.178  0.00  0.00     0.167 HD
ENDBRANCH  26  28
ENDBRANCH  25  26
ENDBRANCH  24  25
ENDBRANCH  23  24
BRANCH  23  30
HETATM   30  O   UNK N   1      28.223  18.529   3.833  0.00  0.00    -0.350 OA
HETATM   31  H   UNK N   1      29.146  18.380   3.888  0.00  0.00     0.219 HD
ENDBRANCH  23  30
ENDBRANCH  21  23
ENDBRANCH  20  21
ENDBRANCH  19  20
ENDBRANCH  17  19
ENDBRANCH  16  17
BRANCH  16  32
HETATM   32  O   UNK N   1      23.168  14.579   1.919  0.00  0.00    -0.350 OA
HETATM   33  H   UNK N   1      22.927  15.054   1.147  0.00  0.00     0.219 HD
ENDBRANCH  16  32
ENDBRANCH  15  16
ENDBRANCH  14  15
ENDBRANCH  12  14
ENDBRANCH  11  12
BRANCH  11  34
HETATM   34  O   UNK N   1      22.615  13.827   5.553  0.00  0.00    -0.348 OA
HETATM   35  H   UNK N   1      22.237  14.362   4.884  0.00  0.00     0.219 HD
ENDBRANCH  11  34
ENDBRANCH  10  11
BRANCH  10  36
HETATM   36  O   UNK N   1      24.309  14.048   7.619  0.00  0.00    -0.387 OA
HETATM   37  H   UNK N   1      24.767  14.601   8.271  0.00  0.00     0.210 HD
ENDBRANCH  10  36
ENDBRANCH   7  10
ENDBRANCH   6   7
ENDBRANCH   5   6
ENDBRANCH   2   5
BRANCH   2  38
HETATM   38  O   UNK N   1      21.682  15.582   7.822  0.00  0.00    -0.195 OA
BRANCH  38  39
HETATM   39  P   UNK N   1      20.532  16.828   7.393  0.00  0.00     0.401 P 
HETATM   40  O   UNK N   1      20.185  17.654   8.660  0.00  0.00    -0.631 OA
BRANCH  39  41
HETATM   41  O   UNK N   1      19.046  16.058   6.935  0.00  0.00    -0.307 OA
HETATM   42  H   UNK N   1      18.284  15.608   7.331  0.00  0.00     0.222 HD
ENDBRANCH  39  41
BRANCH  39  43
HETATM   43  O   UNK N   1      21.012  17.886   6.087  0.00  0.00    -0.294 OA
BRANCH  43  44
HETATM   44  C   UNK N   1      22.209  17.405   5.532  0.00  0.00     0.215 C 
BRANCH  44  45
HETATM   45  C   UNK N   1      22.024  17.014   4.063  0.00  0.00     0.180 C 
HETATM   46  C   UNK N   1      21.198  18.064   3.297  0.00  0.00     0.197 C 
HETATM   47  C   UNK N   1      20.544  17.152   2.294  0.00  0.00     0.199 C 
HETATM   48  C   UNK N   1      20.190  15.997   3.221  0.00  0.00     0.262 C 
HETATM   49  O   UNK N   1      21.359  15.764   3.969  0.00  0.00    -0.353 OA
BRANCH  46  50
HETATM   50  O   UNK N   1      21.954  19.059   2.634  0.00  0.00    -0.286 OA
BRANCH  50  51
HETATM   51  P   UNK N   1      21.121  20.604   2.642  0.00  0.00     0.391 P 
HETATM   52  O   UNK N   1      20.115  20.641   3.824  0.00  0.00    -0.632 OA
BRANCH  51  53
HETATM   53  O   UNK N   1      22.214  21.942   2.821  0.00  0.00    -0.307 OA
HETATM   54  H   UNK N   1      22.703  22.582   2.280  0.00  0.00     0.222 HD
ENDBRANCH  51  53
BRANCH  51  55
HETATM   55  O   UNK N   1      20.177  20.796   1.200  0.00  0.00    -0.307 OA
HETATM   56  H   UNK N   1      20.597  20.754   0.326  0.00  0.00     0.222 HD
ENDBRANCH  51  55
ENDBRANCH  50  51
ENDBRANCH  46  50
BRANCH  47  57
HETATM   57  O   UNK N   1      19.432  17.743   1.690  0.00  0.00    -0.388 OA
HETATM   58  H   UNK N   1      18.506  17.927   1.910  0.00  0.00     0.210 HD
ENDBRANCH  47  57
BRANCH  48  59
HETATM   59  N   UNK N   1      19.755  14.759   2.564  0.00  0.00    -0.297 N 
HETATM   60  C   UNK N   1      19.357  14.697   1.265  0.00  0.00     0.188 A 
HETATM   61  N   UNK N   1      19.035  13.427   0.897  0.00  0.00    -0.346 N 
HETATM   62  C   UNK N   1      19.256  12.694   2.002  0.00  0.00     0.122 A 
ATOM     63  HN  UNK N   1      18.700  13.104  -0.010  1.00  0.00     0.167 HD
HETATM   64  C   UNK N   1      19.128  11.331   2.195  0.00  0.00     0.131 A 
HETATM   65  C   UNK N   1      19.681  13.490   3.004  0.00  0.00     0.142 A 
HETATM   66  N   UNK N   1      19.451  10.826   3.424  0.00  0.00    -0.337 N 
HETATM   67  C   UNK N   1      19.885  11.652   4.434  0.00  0.00     0.183 A 
ATOM     68  HN  UNK N   1      19.368   9.824   3.593  1.00  0.00     0.168 HD
HETATM   69  N   UNK N   1      20.004  13.000   4.226  0.00  0.00    -0.336 N 
ATOM     70  HN  UNK N   1      20.326  13.619   4.971  1.00  0.00     0.168 HD
BRANCH  64  71
HETATM   71  N   UNK N   1      18.695  10.479   1.158  0.00  0.00    -0.383 N 
HETATM   72  H   UNK N   1      19.162   9.629   0.993  0.00  0.00     0.157 HD
HETATM   73  H   UNK N   1      17.927  10.737   0.599  0.00  0.00     0.157 HD
ENDBRANCH  64  71
ENDBRANCH  48  59
ENDBRANCH  44  45
ENDBRANCH  43  44
ENDBRANCH  39  43
ENDBRANCH  38  39
ENDBRANCH   2  38
TORSDOF 36
ENDMDL
MODEL 4
REMARK VINA RESULT:      -6.3      3.496      9.001
REMARK WARNING: 32 MAX_TORS EXCEEDED!!!
REMARK  36 active torsions:
REMARK  status: ('A' for Active; 'I' for Inactive)
REMARK    1  A    between atoms: C_4  and  C_3 
REMARK    2  A    between atoms: C_14  and  C_3 
REMARK    3  A    between atoms: C_16  and  C_4 
REMARK    4  A    between atoms: C_6  and  C_5 
REMARK    5  A    between atoms: C_15  and  C_5 
REMARK    6  A    between atoms: N_31  and  C_6 
REMARK    7  A    between atoms: C_8  and  C_7 
REMARK    8  A    between atoms: N_27  and  C_7 
REMARK    9  A    between atoms: N_29  and  C_8 
REMARK   10  A    between atoms: C_13  and  C_9 
REMARK   11  A    between atoms: O_54  and  C_9 
REMARK   12  A    between atoms: C_25  and  C_10 
REMARK   13  A    between atoms: O_55  and  C_10 
REMARK   14  A    between atoms: N_27  and  C_14 
REMARK   15  A    between atoms: O_40  and  C_14 
REMARK   16  A    between atoms: N_29  and  C_15 
REMARK   17  A    between atoms: O_41  and  C_15 
REMARK   18  A    between atoms: O_43  and  C_16 
REMARK   19  A    between atoms: C_18  and  O_44 
REMARK   20  A    between atoms: C_19  and  O_57 
REMARK   21  A    between atoms: C_23  and  C_20 
REMARK   22  A    between atoms: C_25  and  C_20 
REMARK   23  A    between atoms: C_20  and  O_45 
REMARK   24  A    between atoms: N_26  and  C_21 
REMARK   25  A    between atoms: N_31  and  C_23 
REMARK   26  A    between atoms: O_46  and  C_23 
REMARK   27  A    between atoms: C_24  and  N_39 
REMARK   28  A    between atoms: P_59  and  O_47 
REMARK   29  A    between atoms: P_59  and  O_48 
REMARK   30  A    between atoms: P_60  and  O_50 
REMARK   31  A    between atoms: P_61  and  O_52 
REMARK   32  A    between atoms: P_60  and  O_54 
REMARK   33  A    between atoms: P_61  and  O_55 
REMARK   34  A    between atoms: P_59  and  O_57 
REMARK   35  A    between atoms: P_60  and  O_58 
REMARK   36  A    between atoms: P_61  and  O_58 
ROOT
HETATM    1  O   UNK N   1      22.081  10.258   4.529  0.00  0.00    -0.631 OA
HETATM    2  P   UNK N   1      21.271  11.581   4.602  0.00  0.00     0.401 P 
ENDROOT
BRANCH   2   3
HETATM    3  O   UNK N   1      20.473  11.572   6.141  0.00  0.00    -0.307 OA
HETATM    4  H   UNK N   1      19.508  11.483   6.194  0.00  0.00     0.222 HD
ENDBRANCH   2   3
BRANCH   2   5
HETATM    5  O   UNK N   1      22.422  12.880   4.465  0.00  0.00    -0.296 OA
BRANCH   5   6
HETATM    6  C   UNK N   1      23.572  12.251   3.990  0.00  0.00     0.192 C 
BRANCH   6   7
HETATM    7  C   UNK N   1      24.577  13.217   3.365  0.00  0.00     0.008 C 
HETATM    8  C   UNK N   1      25.516  12.433   2.461  0.00  0.00     0.020 C 
HETATM    9  C   UNK N   1      23.864  14.263   2.516  0.00  0.00     0.020 C 
BRANCH   7  10
HETATM   10  C   UNK N   1      25.373  13.918   4.491  0.00  0.00     0.202 C 
BRANCH  10  11
HETATM   11  C   UNK N   1      25.806  15.302   4.069  0.00  0.00     0.141 C 
BRANCH  11  12
HETATM   12  N   UNK N   1      25.171  16.341   4.491  0.00  0.00    -0.372 N 
ATOM     13  HN  UNK N   1      24.842  16.368   5.457  1.00  0.00     0.161 HD
BRANCH  12  14
HETATM   14  C   UNK N   1      24.916  17.469   3.625  0.00  0.00     0.129 C 
BRANCH  14  15
HETATM   15  C   UNK N   1      24.488  18.654   4.474  0.00  0.00     0.103 C 
BRANCH  15  16
HETATM   16  C   UNK N   1      24.913  19.956   3.879  0.00  0.00     0.112 C 
BRANCH  16  17
HETATM   17  N   UNK N   1      26.031  20.501   4.219  0.00  0.00    -0.373 N 
ATOM     18  HN  UNK N   1      26.755  20.616   3.510  1.00  0.00     0.161 HD
BRANCH  17  19
HETATM   19  C   UNK N   1      26.298  20.956   5.570  0.00  0.00     0.141 C 
BRANCH  19  20
HETATM   20  C   UNK N   1      27.574  20.302   6.102  0.00  0.00     0.141 C 
BRANCH  20  21
HETATM   21  N   UNK N   1      27.267  18.947   6.481  0.00  0.00    -0.373 N 
ATOM     22  HN  UNK N   1      26.441  18.771   7.054  1.00  0.00     0.161 HD
BRANCH  21  23
HETATM   23  C   UNK N   1      28.000  17.953   6.123  0.00  0.00     0.111 C 
BRANCH  23  24
HETATM   24  C   UNK N   1      28.535  17.031   7.161  0.00  0.00     0.094 C 
BRANCH  24  25
HETATM   25  C   UNK N   1      29.486  17.834   8.039  0.00  0.00     0.118 C 
BRANCH  25  26
HETATM   26  C   UNK N   1      28.843  18.243   9.315  0.00  0.00     0.139 C 
HETATM   27  O   UNK N   1      29.528  18.678  10.226  0.00  0.00    -0.650 OA
BRANCH  26  28
HETATM   28  O   UNK N   1      27.507  18.169   9.456  0.00  0.00    -0.776 OA
HETATM   29  H   UNK N   1      27.066  17.347   9.356  0.00  0.00     0.167 HD
ENDBRANCH  26  28
ENDBRANCH  25  26
ENDBRANCH  24  25
ENDBRANCH  23  24
BRANCH  23  30
HETATM   30  O   UNK N   1      28.228  17.695   4.818  0.00  0.00    -0.350 OA
HETATM   31  H   UNK N   1      28.617  18.277   4.195  0.00  0.00     0.219 HD
ENDBRANCH  23  30
ENDBRANCH  21  23
ENDBRANCH  20  21
ENDBRANCH  19  20
ENDBRANCH  17  19
ENDBRANCH  16  17
BRANCH  16  32
HETATM   32  O   UNK N   1      24.108  20.581   2.998  0.00  0.00    -0.350 OA
HETATM   33  H   UNK N   1      24.029  21.515   3.005  0.00  0.00     0.219 HD
ENDBRANCH  16  32
ENDBRANCH  15  16
ENDBRANCH  14  15
ENDBRANCH  12  14
ENDBRANCH  11  12
BRANCH  11  34
HETATM   34  O   UNK N   1      26.862  15.443   3.235  0.00  0.00    -0.348 OA
HETATM   35  H   UNK N   1      27.656  15.023   2.969  0.00  0.00     0.219 HD
ENDBRANCH  11  34
ENDBRANCH  10  11
BRANCH  10  36
HETATM   36  O   UNK N   1      24.588  14.034   5.644  0.00  0.00    -0.387 OA
HETATM   37  H   UNK N   1      24.573  14.391   6.546  0.00  0.00     0.210 HD
ENDBRANCH  10  36
ENDBRANCH   7  10
ENDBRANCH   6   7
ENDBRANCH   5   6
ENDBRANCH   2   5
BRANCH   2  38
HETATM   38  O   UNK N   1      20.134  11.539   3.279  0.00  0.00    -0.195 OA
BRANCH  38  39
HETATM   39  P   UNK N   1      19.281  13.065   3.251  0.00  0.00     0.401 P 
HETATM   40  O   UNK N   1      18.067  12.948   2.292  0.00  0.00    -0.631 OA
BRANCH  39  41
HETATM   41  O   UNK N   1      20.319  14.251   2.524  0.00  0.00    -0.307 OA
HETATM   42  H   UNK N   1      20.454  15.211   2.499  0.00  0.00     0.222 HD
ENDBRANCH  39  41
BRANCH  39  43
HETATM   43  O   UNK N   1      18.773  13.679   4.806  0.00  0.00    -0.294 OA
BRANCH  43  44
HETATM   44  C   UNK N   1      18.806  15.083   4.771  0.00  0.00     0.215 C 
BRANCH  44  45
HETATM   45  C   UNK N   1      19.547  15.653   5.982  0.00  0.00     0.180 C 
HETATM   46  C   UNK N   1      20.882  16.304   5.576  0.00  0.00     0.197 C 
HETATM   47  C   UNK N   1      21.660  16.035   6.836  0.00  0.00     0.199 C 
HETATM   48  C   UNK N   1      21.214  14.600   7.086  0.00  0.00     0.262 C 
HETATM   49  O   UNK N   1      19.817  14.623   6.920  0.00  0.00    -0.353 OA
BRANCH  46  50
HETATM   50  O   UNK N   1      20.822  17.695   5.325  0.00  0.00    -0.286 OA
BRANCH  50  51
HETATM   51  P   UNK N   1      20.683  18.027   3.607  0.00  0.00     0.391 P 
HETATM   52  O   UNK N   1      21.472  16.955   2.809  0.00  0.00    -0.632 OA
BRANCH  51  53
HETATM   53  O   UNK N   1      19.034  18.002   3.061  0.00  0.00    -0.307 OA
HETATM   54  H   UNK N   1      18.175  17.622   3.303  0.00  0.00     0.222 HD
ENDBRANCH  51  53
BRANCH  51  55
HETATM   55  O   UNK N   1      21.414  19.552   3.218  0.00  0.00    -0.307 OA
HETATM   56  H   UNK N   1      22.288  19.586   2.797  0.00  0.00     0.222 HD
ENDBRANCH  51  55
ENDBRANCH  50  51
ENDBRANCH  46  50
BRANCH  47  57
HETATM   57  O   UNK N   1      23.037  16.165   6.644  0.00  0.00    -0.388 OA
HETATM   58  H   UNK N   1      23.711  16.859   6.713  0.00  0.00     0.210 HD
ENDBRANCH  47  57
BRANCH  48  59
HETATM   59  N   UNK N   1      21.558  14.043   8.400  0.00  0.00    -0.297 N 
HETATM   60  C   UNK N   1      20.640  13.776   9.367  0.00  0.00     0.188 A 
HETATM   61  N   UNK N   1      21.217  13.237  10.475  0.00  0.00    -0.346 N 
HETATM   62  C   UNK N   1      22.523  13.162  10.167  0.00  0.00     0.122 A 
ATOM     63  HN  UNK N   1      20.762  12.956  11.343  1.00  0.00     0.167 HD
HETATM   64  C   UNK N   1      23.577  12.661  10.909  0.00  0.00     0.131 A 
HETATM   65  C   UNK N   1      22.731  13.650   8.926  0.00  0.00     0.142 A 
HETATM   66  N   UNK N   1      24.820  12.673  10.343  0.00  0.00    -0.337 N 
HETATM   67  C   UNK N   1      25.015  13.172   9.077  0.00  0.00     0.183 A 
ATOM     68  HN  UNK N   1      25.615  12.308  10.867  1.00  0.00     0.168 HD
HETATM   69  N   UNK N   1      23.961  13.667   8.356  0.00  0.00    -0.336 N 
ATOM     70  HN  UNK N   1      24.098  14.038   7.415  1.00  0.00     0.168 HD
BRANCH  64  71
HETATM   71  N   UNK N   1      23.379  12.137  12.203  0.00  0.00    -0.383 N 
HETATM   72  H   UNK N   1      22.470  11.932  12.517  0.00  0.00     0.157 HD
HETATM   73  H   UNK N   1      24.152  11.979  12.792  0.00  0.00     0.157 HD
ENDBRANCH  64  71
ENDBRANCH  48  59
ENDBRANCH  44  45
ENDBRANCH  43  44
ENDBRANCH  39  43
ENDBRANCH  38  39
ENDBRANCH   2  38
TORSDOF 36
ENDMDL
MODEL 5
REMARK VINA RESULT:      -6.2      2.259      9.441
REMARK WARNING: 32 MAX_TORS EXCEEDED!!!
REMARK  36 active torsions:
REMARK  status: ('A' for Active; 'I' for Inactive)
REMARK    1  A    between atoms: C_4  and  C_3 
REMARK    2  A    between atoms: C_14  and  C_3 
REMARK    3  A    between atoms: C_16  and  C_4 
REMARK    4  A    between atoms: C_6  and  C_5 
REMARK    5  A    between atoms: C_15  and  C_5 
REMARK    6  A    between atoms: N_31  and  C_6 
REMARK    7  A    between atoms: C_8  and  C_7 
REMARK    8  A    between atoms: N_27  and  C_7 
REMARK    9  A    between atoms: N_29  and  C_8 
REMARK   10  A    between atoms: C_13  and  C_9 
REMARK   11  A    between atoms: O_54  and  C_9 
REMARK   12  A    between atoms: C_25  and  C_10 
REMARK   13  A    between atoms: O_55  and  C_10 
REMARK   14  A    between atoms: N_27  and  C_14 
REMARK   15  A    between atoms: O_40  and  C_14 
REMARK   16  A    between atoms: N_29  and  C_15 
REMARK   17  A    between atoms: O_41  and  C_15 
REMARK   18  A    between atoms: O_43  and  C_16 
REMARK   19  A    between atoms: C_18  and  O_44 
REMARK   20  A    between atoms: C_19  and  O_57 
REMARK   21  A    between atoms: C_23  and  C_20 
REMARK   22  A    between atoms: C_25  and  C_20 
REMARK   23  A    between atoms: C_20  and  O_45 
REMARK   24  A    between atoms: N_26  and  C_21 
REMARK   25  A    between atoms: N_31  and  C_23 
REMARK   26  A    between atoms: O_46  and  C_23 
REMARK   27  A    between atoms: C_24  and  N_39 
REMARK   28  A    between atoms: P_59  and  O_47 
REMARK   29  A    between atoms: P_59  and  O_48 
REMARK   30  A    between atoms: P_60  and  O_50 
REMARK   31  A    between atoms: P_61  and  O_52 
REMARK   32  A    between atoms: P_60  and  O_54 
REMARK   33  A    between atoms: P_61  and  O_55 
REMARK   34  A    between atoms: P_59  and  O_57 
REMARK   35  A    between atoms: P_60  and  O_58 
REMARK   36  A    between atoms: P_61  and  O_58 
ROOT
HETATM    1  O   UNK N   1      29.725  16.460   2.388  0.00  0.00    -0.631 OA
HETATM    2  P   UNK N   1      30.109  15.761   3.721  0.00  0.00     0.401 P 
ENDROOT
BRANCH   2   3
HETATM    3  O   UNK N   1      29.799  14.071   3.485  0.00  0.00    -0.307 OA
HETATM    4  H   UNK N   1      29.917  13.668   2.610  0.00  0.00     0.222 HD
ENDBRANCH   2   3
BRANCH   2   5
HETATM    5  O   UNK N   1      31.798  16.089   3.988  0.00  0.00    -0.296 OA
BRANCH   5   6
HETATM    6  C   UNK N   1      31.801  16.882   5.135  0.00  0.00     0.192 C 
BRANCH   6   7
HETATM    7  C   UNK N   1      32.877  16.483   6.143  0.00  0.00     0.008 C 
HETATM    8  C   UNK N   1      32.365  15.316   6.973  0.00  0.00     0.020 C 
HETATM    9  C   UNK N   1      34.148  16.037   5.430  0.00  0.00     0.020 C 
BRANCH   7  10
HETATM   10  C   UNK N   1      33.192  17.695   7.053  0.00  0.00     0.202 C 
BRANCH  10  11
HETATM   11  C   UNK N   1      32.688  17.464   8.458  0.00  0.00     0.141 C 
BRANCH  11  12
HETATM   12  N   UNK N   1      31.573  17.983   8.843  0.00  0.00    -0.372 N 
ATOM     13  HN  UNK N   1      31.531  18.981   9.050  1.00  0.00     0.161 HD
BRANCH  12  14
HETATM   14  C   UNK N   1      30.381  17.180   8.988  0.00  0.00     0.129 C 
BRANCH  14  15
HETATM   15  C   UNK N   1      29.346  17.650   7.980  0.00  0.00     0.103 C 
BRANCH  15  16
HETATM   16  C   UNK N   1      28.055  18.024   8.631  0.00  0.00     0.112 C 
BRANCH  16  17
HETATM   17  N   UNK N   1      27.481  19.145   8.358  0.00  0.00    -0.373 N 
ATOM     18  HN  UNK N   1      26.622  19.389   8.852  1.00  0.00     0.161 HD
BRANCH  17  19
HETATM   19  C   UNK N   1      28.009  20.073   7.376  0.00  0.00     0.141 C 
BRANCH  19  20
HETATM   20  C   UNK N   1      26.917  20.458   6.376  0.00  0.00     0.141 C 
BRANCH  20  21
HETATM   21  N   UNK N   1      26.625  19.311   5.557  0.00  0.00    -0.373 N 
ATOM     22  HN  UNK N   1      26.247  18.472   6.000  1.00  0.00     0.161 HD
BRANCH  21  23
HETATM   23  C   UNK N   1      26.825  19.307   4.287  0.00  0.00     0.111 C 
BRANCH  23  24
HETATM   24  C   UNK N   1      25.677  19.065   3.370  0.00  0.00     0.094 C 
BRANCH  24  25
HETATM   25  C   UNK N   1      24.856  20.346   3.319  0.00  0.00     0.118 C 
BRANCH  25  26
HETATM   26  C   UNK N   1      23.398  20.062   3.251  0.00  0.00     0.139 C 
HETATM   27  O   UNK N   1      22.632  20.923   2.852  0.00  0.00    -0.650 OA
BRANCH  26  28
HETATM   28  O   UNK N   1      22.927  18.849   3.593  0.00  0.00    -0.776 OA
HETATM   29  H   UNK N   1      23.256  18.079   3.172  0.00  0.00     0.167 HD
ENDBRANCH  26  28
ENDBRANCH  25  26
ENDBRANCH  24  25
ENDBRANCH  23  24
BRANCH  23  30
HETATM   30  O   UNK N   1      28.042  19.589   3.776  0.00  0.00    -0.350 OA
HETATM   31  H   UNK N   1      28.219  20.104   3.014  0.00  0.00     0.219 HD
ENDBRANCH  23  30
ENDBRANCH  21  23
ENDBRANCH  20  21
ENDBRANCH  19  20
ENDBRANCH  17  19
ENDBRANCH  16  17
BRANCH  16  32
HETATM   32  O   UNK N   1      27.498  17.193   9.533  0.00  0.00    -0.350 OA
HETATM   33  H   UNK N   1      26.566  17.146   9.625  0.00  0.00     0.219 HD
ENDBRANCH  16  32
ENDBRANCH  15  16
ENDBRANCH  14  15
ENDBRANCH  12  14
ENDBRANCH  11  12
BRANCH  11  34
HETATM   34  O   UNK N   1      33.422  16.717   9.314  0.00  0.00    -0.348 OA
HETATM   35  H   UNK N   1      33.504  16.498  10.221  0.00  0.00     0.219 HD
ENDBRANCH  11  34
ENDBRANCH  10  11
BRANCH  10  36
HETATM   36  O   UNK N   1      34.572  17.917   7.110  0.00  0.00    -0.387 OA
HETATM   37  H   UNK N   1      35.430  17.587   6.800  0.00  0.00     0.210 HD
ENDBRANCH  10  36
ENDBRANCH   7  10
ENDBRANCH   6   7
ENDBRANCH   5   6
ENDBRANCH   2   5
BRANCH   2  38
HETATM   38  O   UNK N   1      29.080  16.445   4.952  0.00  0.00    -0.195 OA
BRANCH  38  39
HETATM   39  P   UNK N   1      27.565  15.573   4.938  0.00  0.00     0.401 P 
HETATM   40  O   UNK N   1      27.819  14.111   5.394  0.00  0.00    -0.631 OA
BRANCH  39  41
HETATM   41  O   UNK N   1      27.031  15.446   3.292  0.00  0.00    -0.307 OA
HETATM   42  H   UNK N   1      27.072  15.931   2.453  0.00  0.00     0.222 HD
ENDBRANCH  39  41
BRANCH  39  43
HETATM   43  O   UNK N   1      26.269  16.286   5.869  0.00  0.00    -0.294 OA
BRANCH  43  44
HETATM   44  C   UNK N   1      25.044  15.948   5.271  0.00  0.00     0.215 C 
BRANCH  44  45
HETATM   45  C   UNK N   1      24.557  14.575   5.740  0.00  0.00     0.180 C 
HETATM   46  C   UNK N   1      23.076  14.347   5.384  0.00  0.00     0.197 C 
HETATM   47  C   UNK N   1      22.699  13.454   6.535  0.00  0.00     0.199 C 
HETATM   48  C   UNK N   1      23.417  14.196   7.654  0.00  0.00     0.262 C 
HETATM   49  O   UNK N   1      24.704  14.458   7.146  0.00  0.00    -0.353 OA
BRANCH  46  50
HETATM   50  O   UNK N   1      22.847  13.684   4.155  0.00  0.00    -0.286 OA
BRANCH  50  51
HETATM   51  P   UNK N   1      21.535  14.434   3.262  0.00  0.00     0.391 P 
HETATM   52  O   UNK N   1      21.200  13.573   2.016  0.00  0.00    -0.632 OA
BRANCH  51  53
HETATM   53  O   UNK N   1      20.091  14.588   4.217  0.00  0.00    -0.307 OA
HETATM   54  H   UNK N   1      19.794  14.507   5.137  0.00  0.00     0.222 HD
ENDBRANCH  51  53
BRANCH  51  55
HETATM   55  O   UNK N   1      22.016  15.988   2.658  0.00  0.00    -0.307 OA
HETATM   56  H   UNK N   1      21.830  16.793   3.167  0.00  0.00     0.222 HD
ENDBRANCH  51  55
ENDBRANCH  50  51
ENDBRANCH  46  50
BRANCH  47  57
HETATM   57  O   UNK N   1      21.317  13.378   6.714  0.00  0.00    -0.388 OA
HETATM   58  H   UNK N   1      20.558  13.981   6.728  0.00  0.00     0.210 HD
ENDBRANCH  47  57
BRANCH  48  59
HETATM   59  N   UNK N   1      23.515  13.486   8.935  0.00  0.00    -0.297 N 
HETATM   60  C   UNK N   1      24.695  13.165   9.528  0.00  0.00     0.188 A 
HETATM   61  N   UNK N   1      24.507  12.536  10.721  0.00  0.00    -0.346 N 
HETATM   62  C   UNK N   1      23.170  12.487  10.862  0.00  0.00     0.122 A 
ATOM     63  HN  UNK N   1      25.216  12.182  11.361  1.00  0.00     0.167 HD
HETATM   64  C   UNK N   1      22.412  11.987  11.905  0.00  0.00     0.131 A 
HETATM   65  C   UNK N   1      22.574  13.049   9.791  0.00  0.00     0.142 A 
HETATM   66  N   UNK N   1      21.053  12.089  11.813  0.00  0.00    -0.337 N 
HETATM   67  C   UNK N   1      20.461  12.667  10.715  0.00  0.00     0.183 A 
ATOM     68  HN  UNK N   1      20.469  11.732  12.569  1.00  0.00     0.168 HD
HETATM   69  N   UNK N   1      21.226  13.155   9.689  0.00  0.00    -0.336 N 
ATOM     70  HN  UNK N   1      20.794  13.586   8.872  1.00  0.00     0.168 HD
BRANCH  64  71
HETATM   71  N   UNK N   1      23.016  11.405  13.038  0.00  0.00    -0.383 N 
HETATM   72  H   UNK N   1      22.465  10.921  13.694  0.00  0.00     0.157 HD
HETATM   73  H   UNK N   1      23.988  11.484  13.173  0.00  0.00     0.157 HD
ENDBRANCH  64  71
ENDBRANCH  48  59
ENDBRANCH  44  45
ENDBRANCH  43  44
ENDBRANCH  39  43
ENDBRANCH  38  39
ENDBRANCH   2  38
TORSDOF 36
ENDMDL
MODEL 6
REMARK VINA RESULT:      -6.1      4.845     10.719
REMARK WARNING: 32 MAX_TORS EXCEEDED!!!
REMARK  36 active torsions:
REMARK  status: ('A' for Active; 'I' for Inactive)
REMARK    1  A    between atoms: C_4  and  C_3 
REMARK    2  A    between atoms: C_14  and  C_3 
REMARK    3  A    between atoms: C_16  and  C_4 
REMARK    4  A    between atoms: C_6  and  C_5 
REMARK    5  A    between atoms: C_15  and  C_5 
REMARK    6  A    between atoms: N_31  and  C_6 
REMARK    7  A    between atoms: C_8  and  C_7 
REMARK    8  A    between atoms: N_27  and  C_7 
REMARK    9  A    between atoms: N_29  and  C_8 
REMARK   10  A    between atoms: C_13  and  C_9 
REMARK   11  A    between atoms: O_54  and  C_9 
REMARK   12  A    between atoms: C_25  and  C_10 
REMARK   13  A    between atoms: O_55  and  C_10 
REMARK   14  A    between atoms: N_27  and  C_14 
REMARK   15  A    between atoms: O_40  and  C_14 
REMARK   16  A    between atoms: N_29  and  C_15 
REMARK   17  A    between atoms: O_41  and  C_15 
REMARK   18  A    between atoms: O_43  and  C_16 
REMARK   19  A    between atoms: C_18  and  O_44 
REMARK   20  A    between atoms: C_19  and  O_57 
REMARK   21  A    between atoms: C_23  and  C_20 
REMARK   22  A    between atoms: C_25  and  C_20 
REMARK   23  A    between atoms: C_20  and  O_45 
REMARK   24  A    between atoms: N_26  and  C_21 
REMARK   25  A    between atoms: N_31  and  C_23 
REMARK   26  A    between atoms: O_46  and  C_23 
REMARK   27  A    between atoms: C_24  and  N_39 
REMARK   28  A    between atoms: P_59  and  O_47 
REMARK   29  A    between atoms: P_59  and  O_48 
REMARK   30  A    between atoms: P_60  and  O_50 
REMARK   31  A    between atoms: P_61  and  O_52 
REMARK   32  A    between atoms: P_60  and  O_54 
REMARK   33  A    between atoms: P_61  and  O_55 
REMARK   34  A    between atoms: P_59  and  O_57 
REMARK   35  A    between atoms: P_60  and  O_58 
REMARK   36  A    between atoms: P_61  and  O_58 
ROOT
HETATM    1  O   UNK N   1      28.677  16.008   5.712  0.00  0.00    -0.631 OA
HETATM    2  P   UNK N   1      28.887  17.538   5.537  0.00  0.00     0.401 P 
ENDROOT
BRANCH   2   3
HETATM    3  O   UNK N   1      28.391  18.265   7.031  0.00  0.00    -0.307 OA
HETATM    4  H   UNK N   1      27.985  17.727   7.728  0.00  0.00     0.222 HD
ENDBRANCH   2   3
BRANCH   2   5
HETATM    5  O   UNK N   1      30.582  17.776   5.219  0.00  0.00    -0.296 OA
BRANCH   5   6
HETATM    6  C   UNK N   1      30.989  16.558   4.675  0.00  0.00     0.192 C 
BRANCH   6   7
HETATM    7  C   UNK N   1      32.418  16.173   5.054  0.00  0.00     0.008 C 
HETATM    8  C   UNK N   1      33.034  15.384   3.909  0.00  0.00     0.020 C 
HETATM    9  C   UNK N   1      33.269  17.415   5.287  0.00  0.00     0.020 C 
BRANCH   7  10
HETATM   10  C   UNK N   1      32.386  15.317   6.343  0.00  0.00     0.202 C 
BRANCH  10  11
HETATM   11  C   UNK N   1      32.634  16.167   7.566  0.00  0.00     0.141 C 
BRANCH  11  12
HETATM   12  N   UNK N   1      33.768  16.114   8.177  0.00  0.00    -0.372 N 
ATOM     13  HN  UNK N   1      34.397  15.333   7.995  1.00  0.00     0.161 HD
BRANCH  12  14
HETATM   14  C   UNK N   1      34.165  17.141   9.113  0.00  0.00     0.129 C 
BRANCH  14  15
HETATM   15  C   UNK N   1      35.001  16.507  10.211  0.00  0.00     0.103 C 
BRANCH  15  16
HETATM   16  C   UNK N   1      34.477  15.169  10.618  0.00  0.00     0.112 C 
BRANCH  16  17
HETATM   17  N   UNK N   1      35.234  14.127  10.578  0.00  0.00    -0.373 N 
ATOM     18  HN  UNK N   1      36.245  14.256  10.552  1.00  0.00     0.161 HD
BRANCH  17  19
HETATM   19  C   UNK N   1      34.703  12.777  10.568  0.00  0.00     0.141 C 
BRANCH  19  20
HETATM   20  C   UNK N   1      35.460  11.907  11.573  0.00  0.00     0.141 C 
BRANCH  20  21
HETATM   21  N   UNK N   1      35.530  12.614  12.826  0.00  0.00    -0.373 N 
ATOM     22  HN  UNK N   1      36.154  13.418  12.904  1.00  0.00     0.161 HD
BRANCH  21  23
HETATM   23  C   UNK N   1      34.832  12.266  13.848  0.00  0.00     0.111 C 
BRANCH  23  24
HETATM   24  C   UNK N   1      35.007  12.998  15.132  0.00  0.00     0.094 C 
BRANCH  24  25
HETATM   25  C   UNK N   1      36.502  13.095  15.403  0.00  0.00     0.118 C 
BRANCH  25  26
HETATM   26  C   UNK N   1      37.007  14.480  15.208  0.00  0.00     0.139 C 
HETATM   27  O   UNK N   1      37.603  15.039  16.114  0.00  0.00    -0.650 OA
BRANCH  26  28
HETATM   28  O   UNK N   1      36.843  15.101  14.026  0.00  0.00    -0.776 OA
HETATM   29  H   UNK N   1      36.148  14.846  13.452  0.00  0.00     0.167 HD
ENDBRANCH  26  28
ENDBRANCH  25  26
ENDBRANCH  24  25
ENDBRANCH  23  24
BRANCH  23  30
HETATM   30  O   UNK N   1      33.897  11.297  13.752  0.00  0.00    -0.350 OA
HETATM   31  H   UNK N   1      33.307  11.163  13.037  0.00  0.00     0.219 HD
ENDBRANCH  23  30
ENDBRANCH  21  23
ENDBRANCH  20  21
ENDBRANCH  19  20
ENDBRANCH  17  19
ENDBRANCH  16  17
BRANCH  16  32
HETATM   32  O   UNK N   1      33.193  15.046  11.006  0.00  0.00    -0.350 OA
HETATM   33  H   UNK N   1      32.924  14.321  11.537  0.00  0.00     0.219 HD
ENDBRANCH  16  32
ENDBRANCH  15  16
ENDBRANCH  14  15
ENDBRANCH  12  14
ENDBRANCH  11  12
BRANCH  11  34
HETATM   34  O   UNK N   1      31.652  16.979   8.022  0.00  0.00    -0.348 OA
HETATM   35  H   UNK N   1      31.490  17.673   8.631  0.00  0.00     0.219 HD
ENDBRANCH  11  34
ENDBRANCH  10  11
BRANCH  10  36
HETATM   36  O   UNK N   1      31.142  14.693   6.483  0.00  0.00    -0.387 OA
HETATM   37  H   UNK N   1      30.623  14.105   7.055  0.00  0.00     0.210 HD
ENDBRANCH  10  36
ENDBRANCH   7  10
ENDBRANCH   6   7
ENDBRANCH   5   6
ENDBRANCH   2   5
BRANCH   2  38
HETATM   38  O   UNK N   1      27.871  18.027   4.206  0.00  0.00    -0.195 OA
BRANCH  38  39
HETATM   39  P   UNK N   1      26.271  18.342   4.835  0.00  0.00     0.401 P 
HETATM   40  O   UNK N   1      26.289  19.683   5.616  0.00  0.00    -0.631 OA
BRANCH  39  41
HETATM   41  O   UNK N   1      25.910  17.132   6.026  0.00  0.00    -0.307 OA
HETATM   42  H   UNK N   1      25.162  16.788   6.539  0.00  0.00     0.222 HD
ENDBRANCH  39  41
BRANCH  39  43
HETATM   43  O   UNK N   1      24.978  18.339   3.659  0.00  0.00    -0.294 OA
BRANCH  43  44
HETATM   44  C   UNK N   1      24.540  17.017   3.471  0.00  0.00     0.215 C 
BRANCH  44  45
HETATM   45  C   UNK N   1      23.082  16.847   3.905  0.00  0.00     0.180 C 
HETATM   46  C   UNK N   1      22.352  18.201   3.984  0.00  0.00     0.197 C 
HETATM   47  C   UNK N   1      21.381  17.873   5.086  0.00  0.00     0.199 C 
HETATM   48  C   UNK N   1      22.325  17.122   6.017  0.00  0.00     0.262 C 
HETATM   49  O   UNK N   1      23.020  16.228   5.180  0.00  0.00    -0.353 OA
BRANCH  46  50
HETATM   50  O   UNK N   1      21.655  18.579   2.813  0.00  0.00    -0.286 OA
BRANCH  50  51
HETATM   51  P   UNK N   1      21.783  20.305   2.524  0.00  0.00     0.391 P 
HETATM   52  O   UNK N   1      20.678  21.045   3.324  0.00  0.00    -0.632 OA
BRANCH  51  53
HETATM   53  O   UNK N   1      23.323  20.943   3.013  0.00  0.00    -0.307 OA
HETATM   54  H   UNK N   1      23.720  21.466   3.727  0.00  0.00     0.222 HD
ENDBRANCH  51  53
BRANCH  51  55
HETATM   55  O   UNK N   1      21.493  20.668   0.853  0.00  0.00    -0.307 OA
HETATM   56  H   UNK N   1      21.765  20.047   0.159  0.00  0.00     0.222 HD
ENDBRANCH  51  55
ENDBRANCH  50  51
ENDBRANCH  46  50
BRANCH  47  57
HETATM   57  O   UNK N   1      20.827  19.018   5.660  0.00  0.00    -0.388 OA
HETATM   58  H   UNK N   1      20.134  19.664   5.454  0.00  0.00     0.210 HD
ENDBRANCH  47  57
BRANCH  48  59
HETATM   59  N   UNK N   1      21.690  16.392   7.121  0.00  0.00    -0.297 N 
HETATM   60  C   UNK N   1      20.589  16.839   7.782  0.00  0.00     0.188 A 
HETATM   61  N   UNK N   1      20.185  15.960   8.740  0.00  0.00    -0.346 N 
HETATM   62  C   UNK N   1      21.060  14.943   8.647  0.00  0.00     0.122 A 
ATOM     63  HN  UNK N   1      19.399  16.053   9.382  1.00  0.00     0.167 HD
HETATM   64  C   UNK N   1      21.110  13.757   9.357  0.00  0.00     0.131 A 
HETATM   65  C   UNK N   1      21.966  15.202   7.683  0.00  0.00     0.142 A 
HETATM   66  N   UNK N   1      22.096  12.865   9.042  0.00  0.00    -0.337 N 
HETATM   67  C   UNK N   1      23.011  13.144   8.054  0.00  0.00     0.183 A 
ATOM     68  HN  UNK N   1      22.155  11.982   9.547  1.00  0.00     0.168 HD
HETATM   69  N   UNK N   1      22.949  14.325   7.363  0.00  0.00    -0.336 N 
ATOM     70  HN  UNK N   1      23.624  14.538   6.628  1.00  0.00     0.168 HD
BRANCH  64  71
HETATM   71  N   UNK N   1      20.166  13.462  10.361  0.00  0.00    -0.383 N 
HETATM   72  H   UNK N   1      19.524  12.728  10.233  0.00  0.00     0.157 HD
HETATM   73  H   UNK N   1      20.150  13.992  11.191  0.00  0.00     0.157 HD
ENDBRANCH  64  71
ENDBRANCH  48  59
ENDBRANCH  44  45
ENDBRANCH  43  44
ENDBRANCH  39  43
ENDBRANCH  38  39
ENDBRANCH   2  38
TORSDOF 36
ENDMDL
MODEL 7
REMARK VINA RESULT:      -6.0      8.175     12.062
REMARK WARNING: 32 MAX_TORS EXCEEDED!!!
REMARK  36 active torsions:
REMARK  status: ('A' for Active; 'I' for Inactive)
REMARK    1  A    between atoms: C_4  and  C_3 
REMARK    2  A    between atoms: C_14  and  C_3 
REMARK    3  A    between atoms: C_16  and  C_4 
REMARK    4  A    between atoms: C_6  and  C_5 
REMARK    5  A    between atoms: C_15  and  C_5 
REMARK    6  A    between atoms: N_31  and  C_6 
REMARK    7  A    between atoms: C_8  and  C_7 
REMARK    8  A    between atoms: N_27  and  C_7 
REMARK    9  A    between atoms: N_29  and  C_8 
REMARK   10  A    between atoms: C_13  and  C_9 
REMARK   11  A    between atoms: O_54  and  C_9 
REMARK   12  A    between atoms: C_25  and  C_10 
REMARK   13  A    between atoms: O_55  and  C_10 
REMARK   14  A    between atoms: N_27  and  C_14 
REMARK   15  A    between atoms: O_40  and  C_14 
REMARK   16  A    between atoms: N_29  and  C_15 
REMARK   17  A    between atoms: O_41  and  C_15 
REMARK   18  A    between atoms: O_43  and  C_16 
REMARK   19  A    between atoms: C_18  and  O_44 
REMARK   20  A    between atoms: C_19  and  O_57 
REMARK   21  A    between atoms: C_23  and  C_20 
REMARK   22  A    between atoms: C_25  and  C_20 
REMARK   23  A    between atoms: C_20  and  O_45 
REMARK   24  A    between atoms: N_26  and  C_21 
REMARK   25  A    between atoms: N_31  and  C_23 
REMARK   26  A    between atoms: O_46  and  C_23 
REMARK   27  A    between atoms: C_24  and  N_39 
REMARK   28  A    between atoms: P_59  and  O_47 
REMARK   29  A    between atoms: P_59  and  O_48 
REMARK   30  A    between atoms: P_60  and  O_50 
REMARK   31  A    between atoms: P_61  and  O_52 
REMARK   32  A    between atoms: P_60  and  O_54 
REMARK   33  A    between atoms: P_61  and  O_55 
REMARK   34  A    between atoms: P_59  and  O_57 
REMARK   35  A    between atoms: P_60  and  O_58 
REMARK   36  A    between atoms: P_61  and  O_58 
ROOT
HETATM    1  O   UNK N   1      33.696  14.754  10.142  0.00  0.00    -0.631 OA
HETATM    2  P   UNK N   1      35.001  15.551   9.866  0.00  0.00     0.401 P 
ENDROOT
BRANCH   2   3
HETATM    3  O   UNK N   1      34.940  16.944  10.896  0.00  0.00    -0.307 OA
HETATM    4  H   UNK N   1      35.140  16.865  11.843  0.00  0.00     0.222 HD
ENDBRANCH   2   3
BRANCH   2   5
HETATM    5  O   UNK N   1      36.325  14.494  10.266  0.00  0.00    -0.296 OA
BRANCH   5   6
HETATM    6  C   UNK N   1      35.725  13.239  10.370  0.00  0.00     0.192 C 
BRANCH   6   7
HETATM    7  C   UNK N   1      36.264  12.405  11.530  0.00  0.00     0.008 C 
HETATM    8  C   UNK N   1      36.005  10.935  11.239  0.00  0.00     0.020 C 
HETATM    9  C   UNK N   1      37.767  12.601  11.685  0.00  0.00     0.020 C 
BRANCH   7  10
HETATM   10  C   UNK N   1      35.548  12.830  12.835  0.00  0.00     0.202 C 
BRANCH  10  11
HETATM   11  C   UNK N   1      36.375  13.831  13.606  0.00  0.00     0.141 C 
BRANCH  11  12
HETATM   12  N   UNK N   1      36.973  13.481  14.694  0.00  0.00    -0.372 N 
ATOM     13  HN  UNK N   1      37.789  12.871  14.643  1.00  0.00     0.161 HD
BRANCH  12  14
HETATM   14  C   UNK N   1      36.511  13.938  15.985  0.00  0.00     0.129 C 
BRANCH  14  15
HETATM   15  C   UNK N   1      35.283  13.135  16.380  0.00  0.00     0.103 C 
BRANCH  15  16
HETATM   16  C   UNK N   1      35.642  11.817  16.982  0.00  0.00     0.112 C 
BRANCH  16  17
HETATM   17  N   UNK N   1      35.074  11.413  18.066  0.00  0.00    -0.373 N 
ATOM     18  HN  UNK N   1      34.206  11.861  18.360  1.00  0.00     0.161 HD
BRANCH  17  19
HETATM   19  C   UNK N   1      35.619  10.345  18.882  0.00  0.00     0.141 C 
BRANCH  19  20
HETATM   20  C   UNK N   1      34.537   9.784  19.806  0.00  0.00     0.141 C 
BRANCH  20  21
HETATM   21  N   UNK N   1      34.323  10.722  20.878  0.00  0.00    -0.373 N 
ATOM     22  HN  UNK N   1      34.960  11.514  20.974  1.00  0.00     0.161 HD
BRANCH  21  23
HETATM   23  C   UNK N   1      33.358  10.594  21.718  0.00  0.00     0.111 C 
BRANCH  23  24
HETATM   24  C   UNK N   1      32.669   9.280  21.841  0.00  0.00     0.094 C 
BRANCH  24  25
HETATM   25  C   UNK N   1      33.076   8.674  23.177  0.00  0.00     0.118 C 
BRANCH  25  26
HETATM   26  C   UNK N   1      31.971   8.740  24.170  0.00  0.00     0.139 C 
HETATM   27  O   UNK N   1      31.534   9.824  24.517  0.00  0.00    -0.650 OA
BRANCH  26  28
HETATM   28  O   UNK N   1      31.428   7.609  24.656  0.00  0.00    -0.776 OA
HETATM   29  H   UNK N   1      31.979   6.918  24.969  0.00  0.00     0.167 HD
ENDBRANCH  26  28
ENDBRANCH  25  26
ENDBRANCH  24  25
ENDBRANCH  23  24
BRANCH  23  30
HETATM   30  O   UNK N   1      33.012  11.609  22.536  0.00  0.00    -0.350 OA
HETATM   31  H   UNK N   1      32.222  12.112  22.495  0.00  0.00     0.219 HD
ENDBRANCH  23  30
ENDBRANCH  21  23
ENDBRANCH  20  21
ENDBRANCH  19  20
ENDBRANCH  17  19
ENDBRANCH  16  17
BRANCH  16  32
HETATM   32  O   UNK N   1      36.588  11.054  16.402  0.00  0.00    -0.350 OA
HETATM   33  H   UNK N   1      37.054  11.364  15.649  0.00  0.00     0.219 HD
ENDBRANCH  16  32
ENDBRANCH  15  16
ENDBRANCH  14  15
ENDBRANCH  12  14
ENDBRANCH  11  12
BRANCH  11  34
HETATM   34  O   UNK N   1      36.477  15.101  13.153  0.00  0.00    -0.348 OA
HETATM   35  H   UNK N   1      37.104  15.736  12.868  0.00  0.00     0.219 HD
ENDBRANCH  11  34
ENDBRANCH  10  11
BRANCH  10  36
HETATM   36  O   UNK N   1      34.309  13.412  12.544  0.00  0.00    -0.387 OA
HETATM   37  H   UNK N   1      33.579  13.416  11.906  0.00  0.00     0.210 HD
ENDBRANCH  10  36
ENDBRANCH   7  10
ENDBRANCH   6   7
ENDBRANCH   5   6
ENDBRANCH   2   5
BRANCH   2  38
HETATM   38  O   UNK N   1      34.966  15.988   8.178  0.00  0.00    -0.195 OA
BRANCH  38  39
HETATM   39  P   UNK N   1      34.295  17.597   8.050  0.00  0.00     0.401 P 
HETATM   40  O   UNK N   1      35.249  18.600   8.752  0.00  0.00    -0.631 OA
BRANCH  39  41
HETATM   41  O   UNK N   1      32.828  17.646   8.974  0.00  0.00    -0.307 OA
HETATM   42  H   UNK N   1      31.879  17.812   8.862  0.00  0.00     0.222 HD
ENDBRANCH  39  41
BRANCH  39  43
HETATM   43  O   UNK N   1      33.926  18.139   6.429  0.00  0.00    -0.294 OA
BRANCH  43  44
HETATM   44  C   UNK N   1      33.395  17.061   5.702  0.00  0.00     0.215 C 
BRANCH  44  45
HETATM   45  C   UNK N   1      31.977  16.721   6.167  0.00  0.00     0.180 C 
HETATM   46  C   UNK N   1      31.713  15.205   6.118  0.00  0.00     0.197 C 
HETATM   47  C   UNK N   1      30.235  15.240   5.832  0.00  0.00     0.199 C 
HETATM   48  C   UNK N   1      30.223  16.351   4.790  0.00  0.00     0.262 C 
HETATM   49  O   UNK N   1      31.023  17.370   5.342  0.00  0.00    -0.353 OA
BRANCH  46  50
HETATM   50  O   UNK N   1      31.961  14.510   7.326  0.00  0.00    -0.286 OA
BRANCH  50  51
HETATM   51  P   UNK N   1      32.972  13.102   7.054  0.00  0.00     0.391 P 
HETATM   52  O   UNK N   1      32.329  12.209   5.960  0.00  0.00    -0.632 OA
BRANCH  51  53
HETATM   53  O   UNK N   1      34.573  13.529   6.530  0.00  0.00    -0.307 OA
HETATM   54  H   UNK N   1      35.457  13.140   6.444  0.00  0.00     0.222 HD
ENDBRANCH  51  53
BRANCH  51  55
HETATM   55  O   UNK N   1      33.056  12.125   8.485  0.00  0.00    -0.307 OA
HETATM   56  H   UNK N   1      33.914  11.895   8.875  0.00  0.00     0.222 HD
ENDBRANCH  51  55
ENDBRANCH  50  51
ENDBRANCH  46  50
BRANCH  47  57
HETATM   57  O   UNK N   1      29.762  14.018   5.349  0.00  0.00    -0.388 OA
HETATM   58  H   UNK N   1      29.340  13.676   4.546  0.00  0.00     0.210 HD
ENDBRANCH  47  57
BRANCH  48  59
HETATM   59  N   UNK N   1      28.902  16.882   4.435  0.00  0.00    -0.297 N 
HETATM   60  C   UNK N   1      28.157  16.411   3.400  0.00  0.00     0.188 A 
HETATM   61  N   UNK N   1      26.961  17.054   3.305  0.00  0.00    -0.346 N 
HETATM   62  C   UNK N   1      26.975  17.933   4.323  0.00  0.00     0.122 A 
ATOM     63  HN  UNK N   1      26.222  16.905   2.619  1.00  0.00     0.167 HD
HETATM   64  C   UNK N   1      26.002  18.827   4.729  0.00  0.00     0.131 A 
HETATM   65  C   UNK N   1      28.140  17.836   4.998  0.00  0.00     0.142 A 
HETATM   66  N   UNK N   1      26.259  19.595   5.830  0.00  0.00    -0.337 N 
HETATM   67  C   UNK N   1      27.450  19.482   6.507  0.00  0.00     0.183 A 
ATOM     68  HN  UNK N   1      25.557  20.261   6.153  1.00  0.00     0.168 HD
HETATM   69  N   UNK N   1      28.404  18.593   6.090  0.00  0.00    -0.336 N 
ATOM     70  HN  UNK N   1      29.290  18.504   6.588  1.00  0.00     0.168 HD
BRANCH  64  71
HETATM   71  N   UNK N   1      24.774  18.937   4.045  0.00  0.00    -0.383 N 
HETATM   72  H   UNK N   1      24.662  18.511   3.165  0.00  0.00     0.157 HD
HETATM   73  H   UNK N   1      24.030  19.441   4.448  0.00  0.00     0.157 HD
ENDBRANCH  64  71
ENDBRANCH  48  59
ENDBRANCH  44  45
ENDBRANCH  43  44
ENDBRANCH  39  43
ENDBRANCH  38  39
ENDBRANCH   2  38
TORSDOF 36
ENDMDL
MODEL 8
REMARK VINA RESULT:      -6.0      5.311      9.283
REMARK WARNING: 32 MAX_TORS EXCEEDED!!!
REMARK  36 active torsions:
REMARK  status: ('A' for Active; 'I' for Inactive)
REMARK    1  A    between atoms: C_4  and  C_3 
REMARK    2  A    between atoms: C_14  and  C_3 
REMARK    3  A    between atoms: C_16  and  C_4 
REMARK    4  A    between atoms: C_6  and  C_5 
REMARK    5  A    between atoms: C_15  and  C_5 
REMARK    6  A    between atoms: N_31  and  C_6 
REMARK    7  A    between atoms: C_8  and  C_7 
REMARK    8  A    between atoms: N_27  and  C_7 
REMARK    9  A    between atoms: N_29  and  C_8 
REMARK   10  A    between atoms: C_13  and  C_9 
REMARK   11  A    between atoms: O_54  and  C_9 
REMARK   12  A    between atoms: C_25  and  C_10 
REMARK   13  A    between atoms: O_55  and  C_10 
REMARK   14  A    between atoms: N_27  and  C_14 
REMARK   15  A    between atoms: O_40  and  C_14 
REMARK   16  A    between atoms: N_29  and  C_15 
REMARK   17  A    between atoms: O_41  and  C_15 
REMARK   18  A    between atoms: O_43  and  C_16 
REMARK   19  A    between atoms: C_18  and  O_44 
REMARK   20  A    between atoms: C_19  and  O_57 
REMARK   21  A    between atoms: C_23  and  C_20 
REMARK   22  A    between atoms: C_25  and  C_20 
REMARK   23  A    between atoms: C_20  and  O_45 
REMARK   24  A    between atoms: N_26  and  C_21 
REMARK   25  A    between atoms: N_31  and  C_23 
REMARK   26  A    between atoms: O_46  and  C_23 
REMARK   27  A    between atoms: C_24  and  N_39 
REMARK   28  A    between atoms: P_59  and  O_47 
REMARK   29  A    between atoms: P_59  and  O_48 
REMARK   30  A    between atoms: P_60  and  O_50 
REMARK   31  A    between atoms: P_61  and  O_52 
REMARK   32  A    between atoms: P_60  and  O_54 
REMARK   33  A    between atoms: P_61  and  O_55 
REMARK   34  A    between atoms: P_59  and  O_57 
REMARK   35  A    between atoms: P_60  and  O_58 
REMARK   36  A    between atoms: P_61  and  O_58 
ROOT
HETATM    1  O   UNK N   1      33.413  12.547   3.381  0.00  0.00    -0.631 OA
HETATM    2  P   UNK N   1      34.145  13.836   2.916  0.00  0.00     0.401 P 
ENDROOT
BRANCH   2   3
HETATM    3  O   UNK N   1      34.316  13.698   1.196  0.00  0.00    -0.307 OA
HETATM    4  H   UNK N   1      34.710  14.421   0.683  0.00  0.00     0.222 HD
ENDBRANCH   2   3
BRANCH   2   5
HETATM    5  O   UNK N   1      33.133  15.178   3.372  0.00  0.00    -0.296 OA
BRANCH   5   6
HETATM    6  C   UNK N   1      31.842  14.717   3.119  0.00  0.00     0.192 C 
BRANCH   6   7
HETATM    7  C   UNK N   1      30.769  15.449   3.922  0.00  0.00     0.008 C 
HETATM    8  C   UNK N   1      29.719  15.988   2.963  0.00  0.00     0.020 C 
HETATM    9  C   UNK N   1      30.081  14.500   4.897  0.00  0.00     0.020 C 
BRANCH   7  10
HETATM   10  C   UNK N   1      31.428  16.609   4.707  0.00  0.00     0.202 C 
BRANCH  10  11
HETATM   11  C   UNK N   1      30.384  17.519   5.310  0.00  0.00     0.141 C 
BRANCH  11  12
HETATM   12  N   UNK N   1      30.306  17.664   6.589  0.00  0.00    -0.372 N 
ATOM     13  HN  UNK N   1      30.846  18.402   7.041  1.00  0.00     0.161 HD
BRANCH  12  14
HETATM   14  C   UNK N   1      29.469  16.804   7.392  0.00  0.00     0.129 C 
BRANCH  14  15
HETATM   15  C   UNK N   1      28.038  17.308   7.324  0.00  0.00     0.103 C 
BRANCH  15  16
HETATM   16  C   UNK N   1      27.727  18.270   8.423  0.00  0.00     0.112 C 
BRANCH  16  17
HETATM   17  N   UNK N   1      27.375  19.481   8.157  0.00  0.00    -0.373 N 
ATOM     18  HN  UNK N   1      26.848  20.003   8.858  1.00  0.00     0.161 HD
BRANCH  17  19
HETATM   19  C   UNK N   1      27.698  20.129   6.900  0.00  0.00     0.141 C 
BRANCH  19  20
HETATM   20  C   UNK N   1      26.414  20.520   6.166  0.00  0.00     0.141 C 
BRANCH  20  21
HETATM   21  N   UNK N   1      26.046  19.441   5.287  0.00  0.00    -0.373 N 
ATOM     22  HN  UNK N   1      25.645  18.593   5.689  1.00  0.00     0.161 HD
BRANCH  21  23
HETATM   23  C   UNK N   1      26.207  19.510   4.013  0.00  0.00     0.111 C 
BRANCH  23  24
HETATM   24  C   UNK N   1      25.028  19.335   3.120  0.00  0.00     0.094 C 
BRANCH  24  25
HETATM   25  C   UNK N   1      24.298  20.669   3.060  0.00  0.00     0.118 C 
BRANCH  25  26
HETATM   26  C   UNK N   1      22.827  20.487   2.950  0.00  0.00     0.139 C 
HETATM   27  O   UNK N   1      22.337  19.388   3.152  0.00  0.00    -0.650 OA
BRANCH  26  28
HETATM   28  O   UNK N   1      22.033  21.535   2.665  0.00  0.00    -0.776 OA
HETATM   29  H   UNK N   1      21.456  21.503   1.926  0.00  0.00     0.167 HD
ENDBRANCH  26  28
ENDBRANCH  25  26
ENDBRANCH  24  25
ENDBRANCH  23  24
BRANCH  23  30
HETATM   30  O   UNK N   1      27.410  19.808   3.481  0.00  0.00    -0.350 OA
HETATM   31  H   UNK N   1      27.840  19.351   2.785  0.00  0.00     0.219 HD
ENDBRANCH  23  30
ENDBRANCH  21  23
ENDBRANCH  20  21
ENDBRANCH  19  20
ENDBRANCH  17  19
ENDBRANCH  16  17
BRANCH  16  32
HETATM   32  O   UNK N   1      27.840  17.876   9.707  0.00  0.00    -0.350 OA
HETATM   33  H   UNK N   1      28.607  18.088  10.203  0.00  0.00     0.219 HD
ENDBRANCH  16  32
ENDBRANCH  15  16
ENDBRANCH  14  15
ENDBRANCH  12  14
ENDBRANCH  11  12
BRANCH  11  34
HETATM   34  O   UNK N   1      29.523  18.174   4.498  0.00  0.00    -0.348 OA
HETATM   35  H   UNK N   1      28.673  18.102   4.110  0.00  0.00     0.219 HD
ENDBRANCH  11  34
ENDBRANCH  10  11
BRANCH  10  36
HETATM   36  O   UNK N   1      32.227  16.108   5.740  0.00  0.00    -0.387 OA
HETATM   37  H   UNK N   1      32.590  16.312   6.616  0.00  0.00     0.210 HD
ENDBRANCH  10  36
ENDBRANCH   7  10
ENDBRANCH   6   7
ENDBRANCH   5   6
ENDBRANCH   2   5
BRANCH   2  38
HETATM   38  O   UNK N   1      35.691  13.845   3.725  0.00  0.00    -0.195 OA
BRANCH  38  39
HETATM   39  P   UNK N   1      35.411  13.553   5.426  0.00  0.00     0.401 P 
HETATM   40  O   UNK N   1      35.661  12.051   5.729  0.00  0.00    -0.631 OA
BRANCH  39  41
HETATM   41  O   UNK N   1      33.725  13.804   5.748  0.00  0.00    -0.307 OA
HETATM   42  H   UNK N   1      32.971  13.365   6.172  0.00  0.00     0.222 HD
ENDBRANCH  39  41
BRANCH  39  43
HETATM   43  O   UNK N   1      36.323  14.557   6.529  0.00  0.00    -0.294 OA
BRANCH  43  44
HETATM   44  C   UNK N   1      36.642  13.802   7.670  0.00  0.00     0.215 C 
BRANCH  44  45
HETATM   45  C   UNK N   1      35.503  13.831   8.692  0.00  0.00     0.180 C 
HETATM   46  C   UNK N   1      35.057  15.272   9.003  0.00  0.00     0.197 C 
HETATM   47  C   UNK N   1      34.621  15.073  10.430  0.00  0.00     0.199 C 
HETATM   48  C   UNK N   1      35.769  14.194  10.907  0.00  0.00     0.262 C 
HETATM   49  O   UNK N   1      35.918  13.218   9.903  0.00  0.00    -0.353 OA
BRANCH  46  50
HETATM   50  O   UNK N   1      33.978  15.750   8.223  0.00  0.00    -0.286 OA
BRANCH  50  51
HETATM   51  P   UNK N   1      34.094  17.483   7.969  0.00  0.00     0.391 P 
HETATM   52  O   UNK N   1      32.704  18.133   8.199  0.00  0.00    -0.632 OA
BRANCH  51  53
HETATM   53  O   UNK N   1      35.228  18.234   9.050  0.00  0.00    -0.307 OA
HETATM   54  H   UNK N   1      35.287  18.550   9.965  0.00  0.00     0.222 HD
ENDBRANCH  51  53
BRANCH  51  55
HETATM   55  O   UNK N   1      34.521  17.831   6.324  0.00  0.00    -0.307 OA
HETATM   56  H   UNK N   1      35.065  17.210   5.814  0.00  0.00     0.222 HD
ENDBRANCH  51  55
ENDBRANCH  50  51
ENDBRANCH  46  50
BRANCH  47  57
HETATM   57  O   UNK N   1      34.518  16.280  11.124  0.00  0.00    -0.388 OA
HETATM   58  H   UNK N   1      33.818  16.877  11.431  0.00  0.00     0.210 HD
ENDBRANCH  47  57
BRANCH  48  59
HETATM   59  N   UNK N   1      35.583  13.550  12.213  0.00  0.00    -0.297 N 
HETATM   60  C   UNK N   1      34.939  12.365  12.382  0.00  0.00     0.188 A 
HETATM   61  N   UNK N   1      34.932  11.976  13.686  0.00  0.00    -0.346 N 
HETATM   62  C   UNK N   1      35.604  12.948  14.327  0.00  0.00     0.122 A 
ATOM     63  HN  UNK N   1      34.511  11.138  14.087  1.00  0.00     0.167 HD
HETATM   64  C   UNK N   1      35.931  13.058  15.665  0.00  0.00     0.131 A 
HETATM   65  C   UNK N   1      35.989  13.896  13.448  0.00  0.00     0.142 A 
HETATM   66  N   UNK N   1      36.658  14.147  16.058  0.00  0.00    -0.337 N 
HETATM   67  C   UNK N   1      37.045  15.103  15.149  0.00  0.00     0.183 A 
ATOM     68  HN  UNK N   1      36.916  14.252  17.039  1.00  0.00     0.168 HD
HETATM   69  N   UNK N   1      36.710  14.980  13.827  0.00  0.00    -0.336 N 
ATOM     70  HN  UNK N   1      36.994  15.685  13.146  1.00  0.00     0.168 HD
BRANCH  64  71
HETATM   71  N   UNK N   1      35.547  12.074  16.599  0.00  0.00    -0.383 N 
HETATM   72  H   UNK N   1      34.674  12.137  17.048  0.00  0.00     0.157 HD
HETATM   73  H   UNK N   1      36.153  11.325  16.801  0.00  0.00     0.157 HD
ENDBRANCH  64  71
ENDBRANCH  48  59
ENDBRANCH  44  45
ENDBRANCH  43  44
ENDBRANCH  39  43
ENDBRANCH  38  39
ENDBRANCH   2  38
TORSDOF 36
ENDMDL
MODEL 9
REMARK VINA RESULT:      -6.0      4.178      9.938
REMARK WARNING: 32 MAX_TORS EXCEEDED!!!
REMARK  36 active torsions:
REMARK  status: ('A' for Active; 'I' for Inactive)
REMARK    1  A    between atoms: C_4  and  C_3 
REMARK    2  A    between atoms: C_14  and  C_3 
REMARK    3  A    between atoms: C_16  and  C_4 
REMARK    4  A    between atoms: C_6  and  C_5 
REMARK    5  A    between atoms: C_15  and  C_5 
REMARK    6  A    between atoms: N_31  and  C_6 
REMARK    7  A    between atoms: C_8  and  C_7 
REMARK    8  A    between atoms: N_27  and  C_7 
REMARK    9  A    between atoms: N_29  and  C_8 
REMARK   10  A    between atoms: C_13  and  C_9 
REMARK   11  A    between atoms: O_54  and  C_9 
REMARK   12  A    between atoms: C_25  and  C_10 
REMARK   13  A    between atoms: O_55  and  C_10 
REMARK   14  A    between atoms: N_27  and  C_14 
REMARK   15  A    between atoms: O_40  and  C_14 
REMARK   16  A    between atoms: N_29  and  C_15 
REMARK   17  A    between atoms: O_41  and  C_15 
REMARK   18  A    between atoms: O_43  and  C_16 
REMARK   19  A    between atoms: C_18  and  O_44 
REMARK   20  A    between atoms: C_19  and  O_57 
REMARK   21  A    between atoms: C_23  and  C_20 
REMARK   22  A    between atoms: C_25  and  C_20 
REMARK   23  A    between atoms: C_20  and  O_45 
REMARK   24  A    between atoms: N_26  and  C_21 
REMARK   25  A    between atoms: N_31  and  C_23 
REMARK   26  A    between atoms: O_46  and  C_23 
REMARK   27  A    between atoms: C_24  and  N_39 
REMARK   28  A    between atoms: P_59  and  O_47 
REMARK   29  A    between atoms: P_59  and  O_48 
REMARK   30  A    between atoms: P_60  and  O_50 
REMARK   31  A    between atoms: P_61  and  O_52 
REMARK   32  A    between atoms: P_60  and  O_54 
REMARK   33  A    between atoms: P_61  and  O_55 
REMARK   34  A    between atoms: P_59  and  O_57 
REMARK   35  A    between atoms: P_60  and  O_58 
REMARK   36  A    between atoms: P_61  and  O_58 
ROOT
HETATM    1  O   UNK N   1      20.292  13.848   7.666  0.00  0.00    -0.631 OA
HETATM    2  P   UNK N   1      20.520  14.534   9.041  0.00  0.00     0.401 P 
ENDROOT
BRANCH   2   3
HETATM    3  O   UNK N   1      18.957  14.658   9.782  0.00  0.00    -0.307 OA
HETATM    4  H   UNK N   1      18.153  14.612   9.241  0.00  0.00     0.222 HD
ENDBRANCH   2   3
BRANCH   2   5
HETATM    5  O   UNK N   1      21.596  13.503   9.940  0.00  0.00    -0.296 OA
BRANCH   5   6
HETATM    6  C   UNK N   1      21.891  12.474   9.046  0.00  0.00     0.192 C 
BRANCH   6   7
HETATM    7  C   UNK N   1      23.389  12.270   8.831  0.00  0.00     0.008 C 
HETATM    8  C   UNK N   1      24.128  12.679  10.096  0.00  0.00     0.020 C 
HETATM    9  C   UNK N   1      23.700  10.804   8.552  0.00  0.00     0.020 C 
BRANCH   7  10
HETATM   10  C   UNK N   1      23.851  13.134   7.634  0.00  0.00     0.202 C 
BRANCH  10  11
HETATM   11  C   UNK N   1      23.459  12.498   6.321  0.00  0.00     0.141 C 
BRANCH  11  12
HETATM   12  N   UNK N   1      24.354  12.235   5.432  0.00  0.00    -0.372 N 
ATOM     13  HN  UNK N   1      24.512  11.266   5.153  1.00  0.00     0.161 HD
BRANCH  12  14
HETATM   14  C   UNK N   1      25.138  13.284   4.821  0.00  0.00     0.129 C 
BRANCH  14  15
HETATM   15  C   UNK N   1      26.539  13.255   5.407  0.00  0.00     0.103 C 
BRANCH  15  16
HETATM   16  C   UNK N   1      27.512  14.028   4.578  0.00  0.00     0.112 C 
BRANCH  16  17
HETATM   17  N   UNK N   1      28.612  14.462   5.090  0.00  0.00    -0.373 N 
ATOM     18  HN  UNK N   1      29.241  13.796   5.539  1.00  0.00     0.161 HD
BRANCH  17  19
HETATM   19  C   UNK N   1      28.991  15.862   5.053  0.00  0.00     0.141 C 
BRANCH  19  20
HETATM   20  C   UNK N   1      28.144  16.662   6.045  0.00  0.00     0.141 C 
BRANCH  20  21
HETATM   21  N   UNK N   1      27.342  17.601   5.304  0.00  0.00    -0.373 N 
ATOM     22  HN  UNK N   1      27.777  18.460   4.964  1.00  0.00     0.161 HD
BRANCH  21  23
HETATM   23  C   UNK N   1      26.097  17.395   5.058  0.00  0.00     0.111 C 
BRANCH  23  24
HETATM   24  C   UNK N   1      25.535  17.814   3.745  0.00  0.00     0.094 C 
BRANCH  24  25
HETATM   25  C   UNK N   1      24.924  19.196   3.930  0.00  0.00     0.118 C 
BRANCH  25  26
HETATM   26  C   UNK N   1      25.577  20.207   3.056  0.00  0.00     0.139 C 
HETATM   27  O   UNK N   1      26.752  20.485   3.228  0.00  0.00    -0.650 OA
BRANCH  26  28
HETATM   28  O   UNK N   1      24.887  20.786   2.057  0.00  0.00    -0.776 OA
HETATM   29  H   UNK N   1      25.250  21.517   1.595  0.00  0.00     0.167 HD
ENDBRANCH  26  28
ENDBRANCH  25  26
ENDBRANCH  24  25
ENDBRANCH  23  24
BRANCH  23  30
HETATM   30  O   UNK N   1      25.315  16.741   5.943  0.00  0.00    -0.350 OA
HETATM   31  H   UNK N   1      25.042  17.055   6.782  0.00  0.00     0.219 HD
ENDBRANCH  23  30
ENDBRANCH  21  23
ENDBRANCH  20  21
ENDBRANCH  19  20
ENDBRANCH  17  19
ENDBRANCH  16  17
BRANCH  16  32
HETATM   32  O   UNK N   1      27.225  14.297   3.290  0.00  0.00    -0.350 OA
HETATM   33  H   UNK N   1      27.851  14.731   2.743  0.00  0.00     0.219 HD
ENDBRANCH  16  32
ENDBRANCH  15  16
ENDBRANCH  14  15
ENDBRANCH  12  14
ENDBRANCH  11  12
BRANCH  11  34
HETATM   34  O   UNK N   1      22.158  12.215   6.081  0.00  0.00    -0.348 OA
HETATM   35  H   UNK N   1      21.497  12.280   5.419  0.00  0.00     0.219 HD
ENDBRANCH  11  34
ENDBRANCH  10  11
BRANCH  10  36
HETATM   36  O   UNK N   1      23.271  14.406   7.698  0.00  0.00    -0.387 OA
HETATM   37  H   UNK N   1      23.325  15.308   7.344  0.00  0.00     0.210 HD
ENDBRANCH  10  36
ENDBRANCH   7  10
ENDBRANCH   6   7
ENDBRANCH   5   6
ENDBRANCH   2   5
BRANCH   2  38
HETATM   38  O   UNK N   1      21.206  16.102   8.703  0.00  0.00    -0.195 OA
BRANCH  38  39
HETATM   39  P   UNK N   1      19.963  17.089   7.970  0.00  0.00     0.401 P 
HETATM   40  O   UNK N   1      19.216  17.871   9.084  0.00  0.00    -0.631 OA
BRANCH  39  41
HETATM   41  O   UNK N   1      18.771  16.034   7.281  0.00  0.00    -0.307 OA
HETATM   42  H   UNK N   1      18.667  15.117   6.984  0.00  0.00     0.222 HD
ENDBRANCH  39  41
BRANCH  39  43
HETATM   43  O   UNK N   1      20.502  18.181   6.716  0.00  0.00    -0.294 OA
BRANCH  43  44
HETATM   44  C   UNK N   1      21.767  17.766   6.268  0.00  0.00     0.215 C 
BRANCH  44  45
HETATM   45  C   UNK N   1      21.677  17.089   4.898  0.00  0.00     0.180 C 
HETATM   46  C   UNK N   1      20.950  17.979   3.873  0.00  0.00     0.197 C 
HETATM   47  C   UNK N   1      20.339  16.896   3.024  0.00  0.00     0.199 C 
HETATM   48  C   UNK N   1      19.874  15.961   4.133  0.00  0.00     0.262 C 
HETATM   49  O   UNK N   1      20.976  15.861   5.004  0.00  0.00    -0.353 OA
BRANCH  46  50
HETATM   50  O   UNK N   1      21.790  18.802   3.086  0.00  0.00    -0.286 OA
BRANCH  50  51
HETATM   51  P   UNK N   1      21.053  20.367   2.792  0.00  0.00     0.391 P 
HETATM   52  O   UNK N   1      20.067  20.698   3.944  0.00  0.00    -0.632 OA
BRANCH  51  53
HETATM   53  O   UNK N   1      22.228  21.644   2.703  0.00  0.00    -0.307 OA
HETATM   54  H   UNK N   1      23.115  21.817   2.349  0.00  0.00     0.222 HD
ENDBRANCH  51  53
BRANCH  51  55
HETATM   55  O   UNK N   1      20.103  20.332   1.341  0.00  0.00    -0.307 OA
HETATM   56  H   UNK N   1      20.530  20.385   0.471  0.00  0.00     0.222 HD
ENDBRANCH  51  55
ENDBRANCH  50  51
ENDBRANCH  46  50
BRANCH  47  57
HETATM   57  O   UNK N   1      19.298  17.375   2.226  0.00  0.00    -0.388 OA
HETATM   58  H   UNK N   1      18.402  17.105   1.974  0.00  0.00     0.210 HD
ENDBRANCH  47  57
BRANCH  48  59
HETATM   59  N   UNK N   1      19.444  14.625   3.706  0.00  0.00    -0.297 N 
HETATM   60  C   UNK N   1      19.224  13.595   4.567  0.00  0.00     0.188 A 
HETATM   61  N   UNK N   1      18.804  12.475   3.917  0.00  0.00    -0.346 N 
HETATM   62  C   UNK N   1      18.755  12.840   2.624  0.00  0.00     0.122 A 
ATOM     63  HN  UNK N   1      18.579  11.566   4.319  1.00  0.00     0.167 HD
HETATM   64  C   UNK N   1      18.362  12.111   1.517  0.00  0.00     0.131 A 
HETATM   65  C   UNK N   1      19.144  14.125   2.494  0.00  0.00     0.142 A 
HETATM   66  N   UNK N   1      18.376  12.736   0.302  0.00  0.00    -0.337 N 
HETATM   67  C   UNK N   1      18.773  14.047   0.187  0.00  0.00     0.183 A 
ATOM     68  HN  UNK N   1      18.088  12.223  -0.531  1.00  0.00     0.168 HD
HETATM   69  N   UNK N   1      19.162  14.755   1.294  0.00  0.00    -0.336 N 
ATOM     70  HN  UNK N   1      19.458  15.728   1.216  1.00  0.00     0.168 HD
BRANCH  64  71
HETATM   71  N   UNK N   1      17.942  10.771   1.632  0.00  0.00    -0.383 N 
HETATM   72  H   UNK N   1      17.368  10.498   2.383  0.00  0.00     0.157 HD
HETATM   73  H   UNK N   1      18.223  10.107   0.961  0.00  0.00     0.157 HD
ENDBRANCH  64  71
ENDBRANCH  48  59
ENDBRANCH  44  45
ENDBRANCH  43  44
ENDBRANCH  39  43
ENDBRANCH  38  39
ENDBRANCH   2  38
TORSDOF 36
ENDMDL
