MODEL 1
REMARK VINA RESULT:      -7.2      0.000      0.000
REMARK  9 active torsions:
REMARK  status: ('A' for Active; 'I' for Inactive)
REMARK    1  A    between atoms: C_10  and  C_6 
REMARK    2  A    between atoms: C_13  and  C_6 
REMARK    3  A    between atoms: C_14  and  C_8 
REMARK    4  A    between atoms: N_22  and  C_8 
REMARK    5  A    between atoms: C_15  and  C_9 
REMARK    6  A    between atoms: C_9  and  O_23 
REMARK    7  A    between atoms: O_25  and  C_14 
REMARK    8  A    between atoms: C_16  and  C_15 
REMARK    9  A    between atoms: C_15  and  N_18 
ROOT
HETATM    1  C   UNK N   1      35.533  14.853  10.851  0.00  0.00     0.103 A 
HETATM    2  C   UNK N   1      33.889  14.846   9.408  0.00  0.00     0.112 A 
HETATM    3  C   UNK N   1      35.316  16.225  10.412  0.00  0.00     0.276 A 
HETATM    4  N   UNK N   1      34.588  14.069  10.161  0.00  0.00    -0.339 N 
ATOM      5  HN  UNK N   1      34.477  13.059  10.244  1.00  0.00     0.167 HD
HETATM    6  N   UNK N   1      34.295  16.207   9.535  0.00  0.00    -0.290 N 
HETATM    7  O   UNK N   1      35.891  17.232  10.798  0.00  0.00    -0.265 OA
ENDROOT
BRANCH   1   8
HETATM    8  C   UNK N   1      36.416  14.403  11.764  0.00  0.00     0.049 C 
BRANCH   8   9
HETATM    9  C   UNK N   1      36.066  13.813  13.093  0.00  0.00    -0.006 A 
HETATM   10  C   UNK N   1      36.454  14.408  14.291  0.00  0.00     0.100 A 
HETATM   11  N   UNK N   1      35.969  13.703  15.343  0.00  0.00    -0.364 N 
HETATM   12  C   UNK N   1      35.287  12.672  14.823  0.00  0.00     0.043 A 
HETATM   13  H   UNK N   1      36.093  13.909  16.298  0.00  0.00     0.165 HD
HETATM   14  C   UNK N   1      34.605  11.688  15.536  0.00  0.00     0.030 A 
HETATM   15  C   UNK N   1      35.324  12.690  13.454  0.00  0.00     0.002 A 
HETATM   16  C   UNK N   1      33.943  10.684  14.808  0.00  0.00     0.002 A 
HETATM   17  C   UNK N   1      33.984  10.687  13.400  0.00  0.00     0.001 A 
HETATM   18  C   UNK N   1      34.679  11.699  12.716  0.00  0.00     0.014 A 
ENDBRANCH   8   9
ENDBRANCH   1   8
BRANCH   6  19
HETATM   19  C   UNK N   1      33.637  17.364   8.963  0.00  0.00     0.243 C 
BRANCH  19  20
HETATM   20  C   UNK N   1      34.507  18.136   8.023  0.00  0.00     0.158 C 
HETATM   21  O   UNK N   1      34.551  17.810   6.849  0.00  0.00    -0.649 OA
BRANCH  20  22
HETATM   22  O   UNK N   1      35.253  19.170   8.457  0.00  0.00    -0.775 OA
HETATM   23  H   UNK N   1      36.048  19.384   8.904  0.00  0.00     0.167 HD
ENDBRANCH  20  22
ENDBRANCH  19  20
ENDBRANCH   6  19
BRANCH   2  24
HETATM   24  C   UNK N   1      32.828  14.289   8.479  0.00  0.00     0.171 C 
BRANCH  24  25
HETATM   25  C   UNK N   1      33.329  14.116   7.034  0.00  0.00     0.143 C 
HETATM   26  C   UNK N   1      33.380  12.662   6.596  0.00  0.00     0.042 C 
BRANCH  25  27
HETATM   27  O   UNK N   1      34.614  14.650   6.921  0.00  0.00    -0.393 OA
HETATM   28  H   UNK N   1      34.810  15.477   6.453  0.00  0.00     0.210 HD
ENDBRANCH  25  27
ENDBRANCH  24  25
BRANCH  24  29
HETATM   29  N   UNK N   1      32.325  13.013   8.963  0.00  0.00    -0.418 N 
HETATM   30  H   UNK N   1      32.715  12.587   9.805  0.00  0.00     0.150 HD
HETATM   31  H   UNK N   1      31.577  12.540   8.457  0.00  0.00     0.150 HD
ENDBRANCH  24  29
ENDBRANCH   2  24
TORSDOF 9
ENDMDL
MODEL 2
REMARK VINA RESULT:      -7.1     11.059     13.447
REMARK  9 active torsions:
REMARK  status: ('A' for Active; 'I' for Inactive)
REMARK    1  A    between atoms: C_10  and  C_6 
REMARK    2  A    between atoms: C_13  and  C_6 
REMARK    3  A    between atoms: C_14  and  C_8 
REMARK    4  A    between atoms: N_22  and  C_8 
REMARK    5  A    between atoms: C_15  and  C_9 
REMARK    6  A    between atoms: C_9  and  O_23 
REMARK    7  A    between atoms: O_25  and  C_14 
REMARK    8  A    between atoms: C_16  and  C_15 
REMARK    9  A    between atoms: C_15  and  N_18 
ROOT
HETATM    1  C   UNK N   1      24.599  19.358   3.806  0.00  0.00     0.103 A 
HETATM    2  C   UNK N   1      22.463  19.009   4.119  0.00  0.00     0.112 A 
HETATM    3  C   UNK N   1      23.864  20.207   2.878  0.00  0.00     0.276 A 
HETATM    4  N   UNK N   1      23.627  18.647   4.536  0.00  0.00    -0.339 N 
ATOM      5  HN  UNK N   1      23.813  17.963   5.269  1.00  0.00     0.167 HD
HETATM    6  N   UNK N   1      22.553  19.991   3.090  0.00  0.00    -0.290 N 
HETATM    7  O   UNK N   1      24.322  21.022   2.090  0.00  0.00    -0.265 OA
ENDROOT
BRANCH   1   8
HETATM    8  C   UNK N   1      25.932  19.282   3.985  0.00  0.00     0.049 C 
BRANCH   8   9
HETATM    9  C   UNK N   1      26.643  19.440   5.291  0.00  0.00    -0.006 A 
HETATM   10  C   UNK N   1      26.339  20.469   6.180  0.00  0.00     0.100 A 
HETATM   11  N   UNK N   1      27.090  20.355   7.302  0.00  0.00    -0.364 N 
HETATM   12  C   UNK N   1      27.863  19.272   7.131  0.00  0.00     0.043 A 
HETATM   13  H   UNK N   1      27.069  20.949   8.088  0.00  0.00     0.165 HD
HETATM   14  C   UNK N   1      28.789  18.765   8.041  0.00  0.00     0.030 A 
HETATM   15  C   UNK N   1      27.634  18.685   5.916  0.00  0.00     0.002 A 
HETATM   16  C   UNK N   1      29.506  17.611   7.678  0.00  0.00     0.002 A 
HETATM   17  C   UNK N   1      29.286  17.005   6.426  0.00  0.00     0.001 A 
HETATM   18  C   UNK N   1      28.341  17.545   5.537  0.00  0.00     0.014 A 
ENDBRANCH   8   9
ENDBRANCH   1   8
BRANCH   6  19
HETATM   19  C   UNK N   1      21.456  20.734   2.502  0.00  0.00     0.243 C 
BRANCH  19  20
HETATM   20  C   UNK N   1      20.965  20.146   1.218  0.00  0.00     0.158 C 
HETATM   21  O   UNK N   1      21.164  20.744   0.174  0.00  0.00    -0.649 OA
BRANCH  20  22
HETATM   22  O   UNK N   1      20.290  18.981   1.201  0.00  0.00    -0.775 OA
HETATM   23  H   UNK N   1      20.344  18.089   0.919  0.00  0.00     0.167 HD
ENDBRANCH  20  22
ENDBRANCH  19  20
ENDBRANCH   6  19
BRANCH   2  24
HETATM   24  C   UNK N   1      21.202  18.365   4.664  0.00  0.00     0.171 C 
BRANCH  24  25
HETATM   25  C   UNK N   1      20.915  16.988   4.040  0.00  0.00     0.143 C 
HETATM   26  C   UNK N   1      21.239  15.836   4.976  0.00  0.00     0.042 C 
BRANCH  25  27
HETATM   27  O   UNK N   1      21.679  16.835   2.881  0.00  0.00    -0.393 OA
HETATM   28  H   UNK N   1      22.523  16.358   2.856  0.00  0.00     0.210 HD
ENDBRANCH  25  27
ENDBRANCH  24  25
BRANCH  24  29
HETATM   29  N   UNK N   1      21.267  18.227   6.111  0.00  0.00    -0.418 N 
HETATM   30  H   UNK N   1      20.451  18.434   6.688  0.00  0.00     0.150 HD
HETATM   31  H   UNK N   1      22.134  17.921   6.550  0.00  0.00     0.150 HD
ENDBRANCH  24  29
ENDBRANCH   2  24
TORSDOF 9
ENDMDL
MODEL 3
REMARK VINA RESULT:      -7.1      4.710      8.635
REMARK  9 active torsions:
REMARK  status: ('A' for Active; 'I' for Inactive)
REMARK    1  A    between atoms: C_10  and  C_6 
REMARK    2  A    between atoms: C_13  and  C_6 
REMARK    3  A    between atoms: C_14  and  C_8 
REMARK    4  A    between atoms: N_22  and  C_8 
REMARK    5  A    between atoms: C_15  and  C_9 
REMARK    6  A    between atoms: C_9  and  O_23 
REMARK    7  A    between atoms: O_25  and  C_14 
REMARK    8  A    between atoms: C_16  and  C_15 
REMARK    9  A    between atoms: C_15  and  N_18 
ROOT
HETATM    1  C   UNK N   1      30.678  16.394   7.449  0.00  0.00     0.103 A 
HETATM    2  C   UNK N   1      32.659  15.483   7.619  0.00  0.00     0.112 A 
HETATM    3  C   UNK N   1      31.503  17.264   8.276  0.00  0.00     0.276 A 
HETATM    4  N   UNK N   1      31.498  15.306   7.090  0.00  0.00    -0.339 N 
ATOM      5  HN  UNK N   1      31.219  14.514   6.511  1.00  0.00     0.167 HD
HETATM    6  N   UNK N   1      32.721  16.698   8.362  0.00  0.00    -0.290 N 
HETATM    7  O   UNK N   1      31.195  18.343   8.761  0.00  0.00    -0.265 OA
ENDROOT
BRANCH   1   8
HETATM    8  C   UNK N   1      29.406  16.587   7.052  0.00  0.00     0.049 C 
BRANCH   8   9
HETATM    9  C   UNK N   1      28.966  17.520   5.968  0.00  0.00    -0.006 A 
HETATM   10  C   UNK N   1      29.170  17.235   4.620  0.00  0.00     0.100 A 
HETATM   11  N   UNK N   1      28.636  18.214   3.849  0.00  0.00    -0.364 N 
HETATM   12  C   UNK N   1      28.103  19.110   4.693  0.00  0.00     0.043 A 
HETATM   13  H   UNK N   1      28.638  18.257   2.865  0.00  0.00     0.165 HD
HETATM   14  C   UNK N   1      27.433  20.280   4.341  0.00  0.00     0.030 A 
HETATM   15  C   UNK N   1      28.286  18.735   5.997  0.00  0.00     0.002 A 
HETATM   16  C   UNK N   1      26.940  21.094   5.376  0.00  0.00     0.002 A 
HETATM   17  C   UNK N   1      27.132  20.724   6.721  0.00  0.00     0.001 A 
HETATM   18  C   UNK N   1      27.810  19.534   7.035  0.00  0.00     0.014 A 
ENDBRANCH   8   9
ENDBRANCH   1   8
BRANCH   6  19
HETATM   19  C   UNK N   1      33.902  17.293   8.955  0.00  0.00     0.243 C 
BRANCH  19  20
HETATM   20  C   UNK N   1      34.579  18.281   8.060  0.00  0.00     0.158 C 
HETATM   21  O   UNK N   1      34.470  18.163   6.851  0.00  0.00    -0.649 OA
BRANCH  20  22
HETATM   22  O   UNK N   1      35.319  19.285   8.568  0.00  0.00    -0.775 OA
HETATM   23  H   UNK N   1      35.966  19.925   8.346  0.00  0.00     0.167 HD
ENDBRANCH  20  22
ENDBRANCH  19  20
ENDBRANCH   6  19
BRANCH   2  24
HETATM   24  C   UNK N   1      33.752  14.441   7.474  0.00  0.00     0.171 C 
BRANCH  24  25
HETATM   25  C   UNK N   1      33.598  13.272   8.464  0.00  0.00     0.143 C 
HETATM   26  C   UNK N   1      33.706  11.912   7.794  0.00  0.00     0.042 C 
BRANCH  25  27
HETATM   27  O   UNK N   1      32.351  13.353   9.087  0.00  0.00    -0.393 OA
HETATM   28  H   UNK N   1      31.699  12.635   9.073  0.00  0.00     0.210 HD
ENDBRANCH  25  27
ENDBRANCH  24  25
BRANCH  24  29
HETATM   29  N   UNK N   1      33.798  13.913   6.120  0.00  0.00    -0.418 N 
HETATM   30  H   UNK N   1      34.685  13.846   5.619  0.00  0.00     0.150 HD
HETATM   31  H   UNK N   1      32.937  13.608   5.667  0.00  0.00     0.150 HD
ENDBRANCH  24  29
ENDBRANCH   2  24
TORSDOF 9
ENDMDL
MODEL 4
REMARK VINA RESULT:      -6.9      1.529      1.858
REMARK  9 active torsions:
REMARK  status: ('A' for Active; 'I' for Inactive)
REMARK    1  A    between atoms: C_10  and  C_6 
REMARK    2  A    between atoms: C_13  and  C_6 
REMARK    3  A    between atoms: C_14  and  C_8 
REMARK    4  A    between atoms: N_22  and  C_8 
REMARK    5  A    between atoms: C_15  and  C_9 
REMARK    6  A    between atoms: C_9  and  O_23 
REMARK    7  A    between atoms: O_25  and  C_14 
REMARK    8  A    between atoms: C_16  and  C_15 
REMARK    9  A    between atoms: C_15  and  N_18 
ROOT
HETATM    1  C   UNK N   1      35.158  15.269  11.118  0.00  0.00     0.103 A 
HETATM    2  C   UNK N   1      33.572  14.951   9.646  0.00  0.00     0.112 A 
HETATM    3  C   UNK N   1      34.976  16.511  10.378  0.00  0.00     0.276 A 
HETATM    4  N   UNK N   1      34.231  14.356  10.579  0.00  0.00    -0.339 N 
ATOM      5  HN  UNK N   1      34.103  13.389  10.878  1.00  0.00     0.167 HD
HETATM    6  N   UNK N   1      33.990  16.305   9.485  0.00  0.00    -0.290 N 
HETATM    7  O   UNK N   1      35.549  17.576  10.556  0.00  0.00    -0.265 OA
ENDROOT
BRANCH   1   8
HETATM    8  C   UNK N   1      35.998  15.028  12.142  0.00  0.00     0.049 C 
BRANCH   8   9
HETATM    9  C   UNK N   1      36.465  13.678  12.584  0.00  0.00    -0.006 A 
HETATM   10  C   UNK N   1      37.206  12.843  11.751  0.00  0.00     0.100 A 
HETATM   11  N   UNK N   1      37.543  11.706  12.407  0.00  0.00    -0.364 N 
HETATM   12  C   UNK N   1      37.022  11.812  13.639  0.00  0.00     0.043 A 
HETATM   13  H   UNK N   1      38.067  10.952  12.050  0.00  0.00     0.165 HD
HETATM   14  C   UNK N   1      37.130  10.877  14.666  0.00  0.00     0.030 A 
HETATM   15  C   UNK N   1      36.348  12.994  13.793  0.00  0.00     0.002 A 
HETATM   16  C   UNK N   1      36.514  11.173  15.895  0.00  0.00     0.002 A 
HETATM   17  C   UNK N   1      35.808  12.381  16.061  0.00  0.00     0.001 A 
HETATM   18  C   UNK N   1      35.725  13.300  15.002  0.00  0.00     0.014 A 
ENDBRANCH   8   9
ENDBRANCH   1   8
BRANCH   6  19
HETATM   19  C   UNK N   1      33.370  17.310   8.647  0.00  0.00     0.243 C 
BRANCH  19  20
HETATM   20  C   UNK N   1      34.347  18.058   7.798  0.00  0.00     0.158 C 
HETATM   21  O   UNK N   1      34.561  17.677   6.659  0.00  0.00    -0.649 OA
BRANCH  20  22
HETATM   22  O   UNK N   1      35.006  19.130   8.277  0.00  0.00    -0.775 OA
HETATM   23  H   UNK N   1      35.319  19.982   8.045  0.00  0.00     0.167 HD
ENDBRANCH  20  22
ENDBRANCH  19  20
ENDBRANCH   6  19
BRANCH   2  24
HETATM   24  C   UNK N   1      32.540  14.206   8.819  0.00  0.00     0.171 C 
BRANCH  24  25
HETATM   25  C   UNK N   1      32.883  14.179   7.318  0.00  0.00     0.143 C 
HETATM   26  C   UNK N   1      31.889  14.956   6.472  0.00  0.00     0.042 C 
BRANCH  25  27
HETATM   27  O   UNK N   1      32.897  12.857   6.870  0.00  0.00    -0.393 OA
HETATM   28  H   UNK N   1      32.336  12.160   7.244  0.00  0.00     0.210 HD
ENDBRANCH  25  27
ENDBRANCH  24  25
BRANCH  24  29
HETATM   29  N   UNK N   1      32.374  12.842   9.293  0.00  0.00    -0.418 N 
HETATM   30  H   UNK N   1      32.501  12.053   8.658  0.00  0.00     0.150 HD
HETATM   31  H   UNK N   1      32.130  12.672  10.269  0.00  0.00     0.150 HD
ENDBRANCH  24  29
ENDBRANCH   2  24
TORSDOF 9
ENDMDL
MODEL 5
REMARK VINA RESULT:      -6.9      5.023      8.975
REMARK  9 active torsions:
REMARK  status: ('A' for Active; 'I' for Inactive)
REMARK    1  A    between atoms: C_10  and  C_6 
REMARK    2  A    between atoms: C_13  and  C_6 
REMARK    3  A    between atoms: C_14  and  C_8 
REMARK    4  A    between atoms: N_22  and  C_8 
REMARK    5  A    between atoms: C_15  and  C_9 
REMARK    6  A    between atoms: C_9  and  O_23 
REMARK    7  A    between atoms: O_25  and  C_14 
REMARK    8  A    between atoms: C_16  and  C_15 
REMARK    9  A    between atoms: C_15  and  N_18 
ROOT
HETATM    1  C   UNK N   1      30.431  17.191   8.009  0.00  0.00     0.103 A 
HETATM    2  C   UNK N   1      32.219  16.043   8.530  0.00  0.00     0.112 A 
HETATM    3  C   UNK N   1      31.161  16.913   6.779  0.00  0.00     0.276 A 
HETATM    4  N   UNK N   1      31.180  16.604   9.047  0.00  0.00    -0.339 N 
ATOM      5  HN  UNK N   1      30.941  16.620  10.038  1.00  0.00     0.167 HD
HETATM    6  N   UNK N   1      32.250  16.197   7.113  0.00  0.00    -0.290 N 
HETATM    7  O   UNK N   1      30.836  17.205   5.637  0.00  0.00    -0.265 OA
ENDROOT
BRANCH   1   8
HETATM    8  C   UNK N   1      29.256  17.833   8.150  0.00  0.00     0.049 C 
BRANCH   8   9
HETATM    9  C   UNK N   1      28.157  17.868   7.136  0.00  0.00    -0.006 A 
HETATM   10  C   UNK N   1      27.444  16.726   6.779  0.00  0.00     0.100 A 
HETATM   11  N   UNK N   1      26.477  17.040   5.883  0.00  0.00    -0.364 N 
HETATM   12  C   UNK N   1      26.574  18.360   5.668  0.00  0.00     0.043 A 
HETATM   13  H   UNK N   1      25.830  16.420   5.472  0.00  0.00     0.165 HD
HETATM   14  C   UNK N   1      25.768  19.123   4.826  0.00  0.00     0.030 A 
HETATM   15  C   UNK N   1      27.590  18.909   6.404  0.00  0.00     0.002 A 
HETATM   16  C   UNK N   1      26.027  20.502   4.737  0.00  0.00     0.002 A 
HETATM   17  C   UNK N   1      27.076  21.076   5.480  0.00  0.00     0.001 A 
HETATM   18  C   UNK N   1      27.865  20.274   6.322  0.00  0.00     0.014 A 
ENDBRANCH   8   9
ENDBRANCH   1   8
BRANCH   6  19
HETATM   19  C   UNK N   1      33.177  15.569   6.194  0.00  0.00     0.243 C 
BRANCH  19  20
HETATM   20  C   UNK N   1      34.477  16.299   6.072  0.00  0.00     0.158 C 
HETATM   21  O   UNK N   1      35.479  15.683   5.751  0.00  0.00    -0.649 OA
BRANCH  20  22
HETATM   22  O   UNK N   1      34.559  17.618   6.330  0.00  0.00    -0.775 OA
HETATM   23  H   UNK N   1      34.063  18.356   6.626  0.00  0.00     0.167 HD
ENDBRANCH  20  22
ENDBRANCH  19  20
ENDBRANCH   6  19
BRANCH   2  24
HETATM   24  C   UNK N   1      33.267  15.381   9.404  0.00  0.00     0.171 C 
BRANCH  24  25
HETATM   25  C   UNK N   1      34.504  16.269   9.632  0.00  0.00     0.143 C 
HETATM   26  C   UNK N   1      35.106  16.098  11.016  0.00  0.00     0.042 C 
BRANCH  25  27
HETATM   27  O   UNK N   1      34.148  17.610   9.473  0.00  0.00    -0.393 OA
HETATM   28  H   UNK N   1      33.300  17.897   9.102  0.00  0.00     0.210 HD
ENDBRANCH  25  27
ENDBRANCH  24  25
BRANCH  24  29
HETATM   29  N   UNK N   1      32.711  15.001  10.693  0.00  0.00    -0.418 N 
HETATM   30  H   UNK N   1      33.275  14.483  11.368  0.00  0.00     0.150 HD
HETATM   31  H   UNK N   1      31.751  15.254  10.923  0.00  0.00     0.150 HD
ENDBRANCH  24  29
ENDBRANCH   2  24
TORSDOF 9
ENDMDL
MODEL 6
REMARK VINA RESULT:      -6.6      5.310      8.675
REMARK  9 active torsions:
REMARK  status: ('A' for Active; 'I' for Inactive)
REMARK    1  A    between atoms: C_10  and  C_6 
REMARK    2  A    between atoms: C_13  and  C_6 
REMARK    3  A    between atoms: C_14  and  C_8 
REMARK    4  A    between atoms: N_22  and  C_8 
REMARK    5  A    between atoms: C_15  and  C_9 
REMARK    6  A    between atoms: C_9  and  O_23 
REMARK    7  A    between atoms: O_25  and  C_14 
REMARK    8  A    between atoms: C_16  and  C_15 
REMARK    9  A    between atoms: C_15  and  N_18 
ROOT
HETATM    1  C   UNK N   1      30.572  16.262   6.449  0.00  0.00     0.103 A 
HETATM    2  C   UNK N   1      32.530  16.162   5.479  0.00  0.00     0.112 A 
HETATM    3  C   UNK N   1      31.582  16.116   7.489  0.00  0.00     0.276 A 
HETATM    4  N   UNK N   1      31.272  16.279   5.227  0.00  0.00    -0.339 N 
ATOM      5  HN  UNK N   1      30.854  16.368   4.301  1.00  0.00     0.167 HD
HETATM    6  N   UNK N   1      32.781  16.068   6.879  0.00  0.00    -0.290 N 
HETATM    7  O   UNK N   1      31.410  16.103   8.699  0.00  0.00    -0.265 OA
ENDROOT
BRANCH   1   8
HETATM    8  C   UNK N   1      29.242  16.404   6.598  0.00  0.00     0.049 C 
BRANCH   8   9
HETATM    9  C   UNK N   1      28.541  17.661   7.005  0.00  0.00    -0.006 A 
HETATM   10  C   UNK N   1      28.270  17.958   8.338  0.00  0.00     0.100 A 
HETATM   11  N   UNK N   1      27.676  19.173   8.436  0.00  0.00    -0.364 N 
HETATM   12  C   UNK N   1      27.567  19.642   7.184  0.00  0.00     0.043 A 
HETATM   13  H   UNK N   1      27.385  19.622   9.263  0.00  0.00     0.165 HD
HETATM   14  C   UNK N   1      27.027  20.869   6.804  0.00  0.00     0.030 A 
HETATM   15  C   UNK N   1      28.073  18.752   6.274  0.00  0.00     0.002 A 
HETATM   16  C   UNK N   1      27.003  21.183   5.434  0.00  0.00     0.002 A 
HETATM   17  C   UNK N   1      27.511  20.271   4.489  0.00  0.00     0.001 A 
HETATM   18  C   UNK N   1      28.051  19.045   4.912  0.00  0.00     0.014 A 
ENDBRANCH   8   9
ENDBRANCH   1   8
BRANCH   6  19
HETATM   19  C   UNK N   1      34.075  16.084   7.531  0.00  0.00     0.243 C 
BRANCH  19  20
HETATM   20  C   UNK N   1      34.424  17.414   8.118  0.00  0.00     0.158 C 
HETATM   21  O   UNK N   1      34.465  17.537   9.331  0.00  0.00    -0.649 OA
BRANCH  20  22
HETATM   22  O   UNK N   1      34.675  18.477   7.331  0.00  0.00    -0.775 OA
HETATM   23  H   UNK N   1      35.108  19.308   7.310  0.00  0.00     0.167 HD
ENDBRANCH  20  22
ENDBRANCH  19  20
ENDBRANCH   6  19
BRANCH   2  24
HETATM   24  C   UNK N   1      33.548  16.075   4.357  0.00  0.00     0.171 C 
BRANCH  24  25
HETATM   25  C   UNK N   1      33.903  14.624   3.984  0.00  0.00     0.143 C 
HETATM   26  C   UNK N   1      34.218  14.455   2.507  0.00  0.00     0.042 C 
BRANCH  25  27
HETATM   27  O   UNK N   1      32.831  13.787   4.300  0.00  0.00    -0.393 OA
HETATM   28  H   UNK N   1      32.178  13.993   4.987  0.00  0.00     0.210 HD
ENDBRANCH  25  27
ENDBRANCH  24  25
BRANCH  24  29
HETATM   29  N   UNK N   1      33.080  16.770   3.169  0.00  0.00    -0.418 N 
HETATM   30  H   UNK N   1      33.424  16.507   2.245  0.00  0.00     0.150 HD
HETATM   31  H   UNK N   1      32.402  17.526   3.260  0.00  0.00     0.150 HD
ENDBRANCH  24  29
ENDBRANCH   2  24
TORSDOF 9
ENDMDL
MODEL 7
REMARK VINA RESULT:      -6.5      3.101      6.784
REMARK  9 active torsions:
REMARK  status: ('A' for Active; 'I' for Inactive)
REMARK    1  A    between atoms: C_10  and  C_6 
REMARK    2  A    between atoms: C_13  and  C_6 
REMARK    3  A    between atoms: C_14  and  C_8 
REMARK    4  A    between atoms: N_22  and  C_8 
REMARK    5  A    between atoms: C_15  and  C_9 
REMARK    6  A    between atoms: C_9  and  O_23 
REMARK    7  A    between atoms: O_25  and  C_14 
REMARK    8  A    between atoms: C_16  and  C_15 
REMARK    9  A    between atoms: C_15  and  N_18 
ROOT
HETATM    1  C   UNK N   1      34.174  16.457   8.161  0.00  0.00     0.103 A 
HETATM    2  C   UNK N   1      35.030  14.512   8.678  0.00  0.00     0.112 A 
HETATM    3  C   UNK N   1      34.962  16.621   9.375  0.00  0.00     0.276 A 
HETATM    4  N   UNK N   1      34.281  15.098   7.808  0.00  0.00    -0.339 N 
ATOM      5  HN  UNK N   1      33.842  14.654   7.002  1.00  0.00     0.167 HD
HETATM    6  N   UNK N   1      35.492  15.421   9.674  0.00  0.00    -0.290 N 
HETATM    7  O   UNK N   1      35.175  17.655   9.992  0.00  0.00    -0.265 OA
ENDROOT
BRANCH   1   8
HETATM    8  C   UNK N   1      33.508  17.401   7.469  0.00  0.00     0.049 C 
BRANCH   8   9
HETATM    9  C   UNK N   1      32.055  17.358   7.116  0.00  0.00    -0.006 A 
HETATM   10  C   UNK N   1      31.606  16.865   5.893  0.00  0.00     0.100 A 
HETATM   11  N   UNK N   1      30.252  16.891   5.847  0.00  0.00    -0.364 N 
HETATM   12  C   UNK N   1      29.844  17.396   7.021  0.00  0.00     0.043 A 
HETATM   13  H   UNK N   1      29.681  16.597   5.100  0.00  0.00     0.165 HD
HETATM   14  C   UNK N   1      28.524  17.594   7.423  0.00  0.00     0.030 A 
HETATM   15  C   UNK N   1      30.908  17.704   7.826  0.00  0.00     0.002 A 
HETATM   16  C   UNK N   1      28.297  18.136   8.700  0.00  0.00     0.002 A 
HETATM   17  C   UNK N   1      29.384  18.467   9.532  0.00  0.00     0.001 A 
HETATM   18  C   UNK N   1      30.701  18.249   9.093  0.00  0.00     0.014 A 
ENDBRANCH   8   9
ENDBRANCH   1   8
BRANCH   6  19
HETATM   19  C   UNK N   1      36.469  15.149  10.708  0.00  0.00     0.243 C 
BRANCH  19  20
HETATM   20  C   UNK N   1      35.855  14.836  12.036  0.00  0.00     0.158 C 
HETATM   21  O   UNK N   1      34.742  14.339  12.075  0.00  0.00    -0.649 OA
BRANCH  20  22
HETATM   22  O   UNK N   1      36.503  15.112  13.183  0.00  0.00    -0.775 OA
HETATM   23  H   UNK N   1      37.133  14.772  13.788  0.00  0.00     0.167 HD
ENDBRANCH  20  22
ENDBRANCH  19  20
ENDBRANCH   6  19
BRANCH   2  24
HETATM   24  C   UNK N   1      35.281  13.017   8.613  0.00  0.00     0.171 C 
BRANCH  24  25
HETATM   25  C   UNK N   1      34.155  12.192   9.263  0.00  0.00     0.143 C 
HETATM   26  C   UNK N   1      33.472  11.252   8.285  0.00  0.00     0.042 C 
BRANCH  25  27
HETATM   27  O   UNK N   1      33.190  13.056   9.786  0.00  0.00    -0.393 OA
HETATM   28  H   UNK N   1      33.319  14.013   9.870  0.00  0.00     0.210 HD
ENDBRANCH  25  27
ENDBRANCH  24  25
BRANCH  24  29
HETATM   29  N   UNK N   1      35.461  12.574   7.239  0.00  0.00    -0.418 N 
HETATM   30  H   UNK N   1      36.340  12.149   6.943  0.00  0.00     0.150 HD
HETATM   31  H   UNK N   1      34.703  12.690   6.568  0.00  0.00     0.150 HD
ENDBRANCH  24  29
ENDBRANCH   2  24
TORSDOF 9
ENDMDL
MODEL 8
REMARK VINA RESULT:      -6.5      2.779      4.326
REMARK  9 active torsions:
REMARK  status: ('A' for Active; 'I' for Inactive)
REMARK    1  A    between atoms: C_10  and  C_6 
REMARK    2  A    between atoms: C_13  and  C_6 
REMARK    3  A    between atoms: C_14  and  C_8 
REMARK    4  A    between atoms: N_22  and  C_8 
REMARK    5  A    between atoms: C_15  and  C_9 
REMARK    6  A    between atoms: C_9  and  O_23 
REMARK    7  A    between atoms: O_25  and  C_14 
REMARK    8  A    between atoms: C_16  and  C_15 
REMARK    9  A    between atoms: C_15  and  N_18 
ROOT
HETATM    1  C   UNK N   1      36.242  13.943  13.278  0.00  0.00     0.103 A 
HETATM    2  C   UNK N   1      35.715  14.685  11.289  0.00  0.00     0.112 A 
HETATM    3  C   UNK N   1      36.897  13.092  12.293  0.00  0.00     0.276 A 
HETATM    4  N   UNK N   1      35.526  14.908  12.544  0.00  0.00    -0.339 N 
ATOM      5  HN  UNK N   1      34.955  15.656  12.938  1.00  0.00     0.167 HD
HETATM    6  N   UNK N   1      36.574  13.567  11.076  0.00  0.00    -0.290 N 
HETATM    7  O   UNK N   1      37.655  12.157  12.502  0.00  0.00    -0.265 OA
ENDROOT
BRANCH   1   8
HETATM    8  C   UNK N   1      36.324  13.874  14.620  0.00  0.00     0.049 C 
BRANCH   8   9
HETATM    9  C   UNK N   1      35.941  12.694  15.455  0.00  0.00    -0.006 A 
HETATM   10  C   UNK N   1      35.885  11.405  14.932  0.00  0.00     0.100 A 
HETATM   11  N   UNK N   1      35.563  10.518  15.905  0.00  0.00    -0.364 N 
HETATM   12  C   UNK N   1      35.411  11.231  17.030  0.00  0.00     0.043 A 
HETATM   13  H   UNK N   1      35.461   9.543  15.804  0.00  0.00     0.165 HD
HETATM   14  C   UNK N   1      35.089  10.730  18.290  0.00  0.00     0.030 A 
HETATM   15  C   UNK N   1      35.623  12.565  16.806  0.00  0.00     0.002 A 
HETATM   16  C   UNK N   1      34.977  11.643  19.354  0.00  0.00     0.002 A 
HETATM   17  C   UNK N   1      35.182  13.018  19.132  0.00  0.00     0.001 A 
HETATM   18  C   UNK N   1      35.509  13.484  17.848  0.00  0.00     0.014 A 
ENDBRANCH   8   9
ENDBRANCH   1   8
BRANCH   6  19
HETATM   19  C   UNK N   1      37.126  13.128   9.810  0.00  0.00     0.243 C 
BRANCH  19  20
HETATM   20  C   UNK N   1      38.474  13.708   9.520  0.00  0.00     0.158 C 
HETATM   21  O   UNK N   1      39.312  13.017   8.965  0.00  0.00    -0.649 OA
BRANCH  20  22
HETATM   22  O   UNK N   1      38.780  14.969   9.878  0.00  0.00    -0.775 OA
HETATM   23  H   UNK N   1      39.358  15.476  10.412  0.00  0.00     0.167 HD
ENDBRANCH  20  22
ENDBRANCH  19  20
ENDBRANCH   6  19
BRANCH   2  24
HETATM   24  C   UNK N   1      35.014  15.518  10.232  0.00  0.00     0.171 C 
BRANCH  24  25
HETATM   25  C   UNK N   1      33.607  14.994   9.893  0.00  0.00     0.143 C 
HETATM   26  C   UNK N   1      32.921  15.805   8.807  0.00  0.00     0.042 C 
BRANCH  25  27
HETATM   27  O   UNK N   1      32.809  15.033  11.037  0.00  0.00    -0.393 OA
HETATM   28  H   UNK N   1      32.518  14.240  11.514  0.00  0.00     0.210 HD
ENDBRANCH  25  27
ENDBRANCH  24  25
BRANCH  24  29
HETATM   29  N   UNK N   1      34.917  16.910  10.641  0.00  0.00    -0.418 N 
HETATM   30  H   UNK N   1      34.255  17.539  10.184  0.00  0.00     0.150 HD
HETATM   31  H   UNK N   1      35.513  17.260  11.390  0.00  0.00     0.150 HD
ENDBRANCH  24  29
ENDBRANCH   2  24
TORSDOF 9
ENDMDL
MODEL 9
REMARK VINA RESULT:      -6.3      3.112      7.313
REMARK  9 active torsions:
REMARK  status: ('A' for Active; 'I' for Inactive)
REMARK    1  A    between atoms: C_10  and  C_6 
REMARK    2  A    between atoms: C_13  and  C_6 
REMARK    3  A    between atoms: C_14  and  C_8 
REMARK    4  A    between atoms: N_22  and  C_8 
REMARK    5  A    between atoms: C_15  and  C_9 
REMARK    6  A    between atoms: C_9  and  O_23 
REMARK    7  A    between atoms: O_25  and  C_14 
REMARK    8  A    between atoms: C_16  and  C_15 
REMARK    9  A    between atoms: C_15  and  N_18 
ROOT
HETATM    1  C   UNK N   1      34.358  16.544   8.422  0.00  0.00     0.103 A 
HETATM    2  C   UNK N   1      35.195  14.562   8.819  0.00  0.00     0.112 A 
HETATM    3  C   UNK N   1      35.154  16.627   9.640  0.00  0.00     0.276 A 
HETATM    4  N   UNK N   1      34.449  15.207   7.989  0.00  0.00    -0.339 N 
ATOM      5  HN  UNK N   1      34.001  14.816   7.160  1.00  0.00     0.167 HD
HETATM    6  N   UNK N   1      35.672  15.406   9.864  0.00  0.00    -0.290 N 
HETATM    7  O   UNK N   1      35.382  17.620  10.315  0.00  0.00    -0.265 OA
ENDROOT
BRANCH   1   8
HETATM    8  C   UNK N   1      33.700  17.534   7.791  0.00  0.00     0.049 C 
BRANCH   8   9
HETATM    9  C   UNK N   1      32.482  17.364   6.939  0.00  0.00    -0.006 A 
HETATM   10  C   UNK N   1      31.195  17.425   7.468  0.00  0.00     0.100 A 
HETATM   11  N   UNK N   1      30.276  17.289   6.481  0.00  0.00    -0.364 N 
HETATM   12  C   UNK N   1      30.966  17.140   5.341  0.00  0.00     0.043 A 
HETATM   13  H   UNK N   1      29.296  17.299   6.582  0.00  0.00     0.165 HD
HETATM   14  C   UNK N   1      30.430  16.981   4.064  0.00  0.00     0.030 A 
HETATM   15  C   UNK N   1      32.316  17.170   5.569  0.00  0.00     0.002 A 
HETATM   16  C   UNK N   1      31.323  16.842   2.987  0.00  0.00     0.002 A 
HETATM   17  C   UNK N   1      32.713  16.860   3.212  0.00  0.00     0.001 A 
HETATM   18  C   UNK N   1      33.215  17.027   4.513  0.00  0.00     0.014 A 
ENDBRANCH   8   9
ENDBRANCH   1   8
BRANCH   6  19
HETATM   19  C   UNK N   1      36.651  15.063  10.875  0.00  0.00     0.243 C 
BRANCH  19  20
HETATM   20  C   UNK N   1      36.043  14.516  12.127  0.00  0.00     0.158 C 
HETATM   21  O   UNK N   1      34.834  14.369  12.187  0.00  0.00    -0.649 OA
BRANCH  20  22
HETATM   22  O   UNK N   1      36.806  14.205  13.192  0.00  0.00    -0.775 OA
HETATM   23  H   UNK N   1      36.849  13.651  13.946  0.00  0.00     0.167 HD
ENDBRANCH  20  22
ENDBRANCH  19  20
ENDBRANCH   6  19
BRANCH   2  24
HETATM   24  C   UNK N   1      35.429  13.071   8.664  0.00  0.00     0.171 C 
BRANCH  24  25
HETATM   25  C   UNK N   1      34.280  12.223   9.238  0.00  0.00     0.143 C 
HETATM   26  C   UNK N   1      33.597  11.366   8.186  0.00  0.00     0.042 C 
BRANCH  25  27
HETATM   27  O   UNK N   1      33.321  13.064   9.806  0.00  0.00    -0.393 OA
HETATM   28  H   UNK N   1      32.547  12.739  10.293  0.00  0.00     0.210 HD
ENDBRANCH  25  27
ENDBRANCH  24  25
BRANCH  24  29
HETATM   29  N   UNK N   1      35.633  12.714   7.269  0.00  0.00    -0.418 N 
HETATM   30  H   UNK N   1      34.899  12.877   6.580  0.00  0.00     0.150 HD
HETATM   31  H   UNK N   1      36.517  12.298   6.979  0.00  0.00     0.150 HD
ENDBRANCH  24  29
ENDBRANCH   2  24
TORSDOF 9
ENDMDL
