MODEL 1
REMARK VINA RESULT:      -5.0      0.000      0.000
REMARK  8 active torsions:
REMARK  status: ('A' for Active; 'I' for Inactive)
REMARK    1  A    between atoms: C_1  and  C_2 
REMARK    2  A    between atoms: C_1  and  C_3 
REMARK    3  A    between atoms: C_2  and  C_4 
REMARK    4  A    between atoms: C_2  and  N_5 
REMARK    5  A    between atoms: C_3  and  C_6 
REMARK    6  A    between atoms: C_4  and  O_7 
REMARK    7  A    between atoms: C_6  and  C_9 
REMARK    8  A    between atoms: C_9  and  N_10 
REMARK       I    between atoms: N_10  and  C_11 
REMARK       I    between atoms: C_11  and  N_12 
ROOT
HETATM    1  C   UNK N   1      20.655  14.460   8.555  0.00  0.00     0.020 C 
ENDROOT
BRANCH   1   2
HETATM    2  C   UNK N   1      21.095  13.843   9.865  0.00  0.00     0.004 C 
BRANCH   2   3
HETATM    3  C   UNK N   1      21.819  12.532   9.625  0.00  0.00     0.035 C 
BRANCH   3   4
HETATM    4  C   UNK N   1      22.842  12.235  10.720  0.00  0.00     0.173 C 
BRANCH   4   5
HETATM    5  C   UNK N   1      24.309  12.457  10.520  0.00  0.00     0.163 C 
HETATM    6  O   UNK N   1      24.745  12.703   9.407  0.00  0.00    -0.648 OA
BRANCH   5   7
HETATM    7  O   UNK N   1      25.153  12.387  11.566  0.00  0.00    -0.775 OA
HETATM    8  H   UNK N   1      25.605  11.587  11.750  0.00  0.00     0.167 HD
ENDBRANCH   5   7
ENDBRANCH   4   5
BRANCH   4   9
HETATM    9  N   UNK N   1      22.394  11.718  12.007  0.00  0.00    -0.418 N 
HETATM   10  H   UNK N   1      22.109  12.363  12.744  0.00  0.00     0.150 HD
HETATM   11  H   UNK N   1      22.366  10.711  12.172  0.00  0.00     0.150 HD
ENDBRANCH   4   9
ENDBRANCH   3   4
ENDBRANCH   2   3
ENDBRANCH   1   2
BRANCH   1  12
HETATM   12  C   UNK N   1      20.441  15.940   8.789  0.00  0.00     0.138 C 
BRANCH  12  13
HETATM   13  N   UNK N   1      19.038  16.235   8.906  0.00  0.00    -0.227 N 
HETATM   14  C   UNK N   1      18.594  17.555   9.169  0.00  0.00     0.665 C 
HETATM   15  N   UNK N   1      19.522  18.610   9.321  0.00  0.00    -0.235 N 
HETATM   16  N   UNK N   1      17.339  17.795   9.269  0.00  0.00    -0.235 N 
HETATM   17  H   UNK N   1      20.487  18.431   9.244  0.00  0.00     0.174 HD
HETATM   18  H   UNK N   1      19.204  19.524   9.503  0.00  0.00     0.174 HD
HETATM   19  H   UNK N   1      17.027  18.711   9.452  0.00  0.00     0.174 HD
ATOM     20  HN  UNK N   1      16.664  17.038   9.161  1.00  0.00     0.174 HD
HETATM   21  H   UNK N   1      18.379  15.511   8.803  0.00  0.00     0.177 HD
ENDBRANCH  12  13
ENDBRANCH   1  12
TORSDOF 8
ENDMDL
MODEL 2
REMARK VINA RESULT:      -4.9      9.991     10.919
REMARK  8 active torsions:
REMARK  status: ('A' for Active; 'I' for Inactive)
REMARK    1  A    between atoms: C_1  and  C_2 
REMARK    2  A    between atoms: C_1  and  C_3 
REMARK    3  A    between atoms: C_2  and  C_4 
REMARK    4  A    between atoms: C_2  and  N_5 
REMARK    5  A    between atoms: C_3  and  C_6 
REMARK    6  A    between atoms: C_4  and  O_7 
REMARK    7  A    between atoms: C_6  and  C_9 
REMARK    8  A    between atoms: C_9  and  N_10 
REMARK       I    between atoms: N_10  and  C_11 
REMARK       I    between atoms: C_11  and  N_12 
ROOT
HETATM    1  C   UNK N   1      30.627  16.972   6.487  0.00  0.00     0.020 C 
ENDROOT
BRANCH   1   2
HETATM    2  C   UNK N   1      31.608  16.417   7.496  0.00  0.00     0.004 C 
BRANCH   2   3
HETATM    3  C   UNK N   1      32.028  17.491   8.483  0.00  0.00     0.035 C 
BRANCH   3   4
HETATM    4  C   UNK N   1      33.530  17.460   8.756  0.00  0.00     0.173 C 
BRANCH   4   5
HETATM    5  C   UNK N   1      34.502  18.264   7.948  0.00  0.00     0.163 C 
HETATM    6  O   UNK N   1      34.592  18.087   6.745  0.00  0.00    -0.648 OA
BRANCH   5   7
HETATM    7  O   UNK N   1      35.280  19.185   8.547  0.00  0.00    -0.775 OA
HETATM    8  H   UNK N   1      35.740  19.817   8.030  0.00  0.00     0.167 HD
ENDBRANCH   5   7
ENDBRANCH   4   5
BRANCH   4   9
HETATM    9  N   UNK N   1      34.054  16.628   9.832  0.00  0.00    -0.418 N 
HETATM   10  H   UNK N   1      34.820  15.982   9.650  0.00  0.00     0.150 HD
HETATM   11  H   UNK N   1      33.653  16.693  10.769  0.00  0.00     0.150 HD
ENDBRANCH   4   9
ENDBRANCH   3   4
ENDBRANCH   2   3
ENDBRANCH   1   2
BRANCH   1  12
HETATM   12  C   UNK N   1      29.393  17.422   7.239  0.00  0.00     0.138 C 
BRANCH  12  13
HETATM   13  N   UNK N   1      28.552  18.227   6.394  0.00  0.00    -0.227 N 
HETATM   14  C   UNK N   1      27.589  19.103   6.952  0.00  0.00     0.665 C 
HETATM   15  N   UNK N   1      27.434  19.204   8.354  0.00  0.00    -0.235 N 
HETATM   16  N   UNK N   1      26.850  19.811   6.181  0.00  0.00    -0.235 N 
HETATM   17  H   UNK N   1      27.998  18.662   8.951  0.00  0.00     0.174 HD
HETATM   18  H   UNK N   1      26.762  19.815   8.733  0.00  0.00     0.174 HD
HETATM   19  H   UNK N   1      26.180  20.421   6.564  0.00  0.00     0.174 HD
ATOM     20  HN  UNK N   1      26.957  19.743   5.168  1.00  0.00     0.174 HD
HETATM   21  H   UNK N   1      28.648  18.168   5.415  0.00  0.00     0.177 HD
ENDBRANCH  12  13
ENDBRANCH   1  12
TORSDOF 8
ENDMDL
MODEL 3
REMARK VINA RESULT:      -4.9     11.606     12.562
REMARK  8 active torsions:
REMARK  status: ('A' for Active; 'I' for Inactive)
REMARK    1  A    between atoms: C_1  and  C_2 
REMARK    2  A    between atoms: C_1  and  C_3 
REMARK    3  A    between atoms: C_2  and  C_4 
REMARK    4  A    between atoms: C_2  and  N_5 
REMARK    5  A    between atoms: C_3  and  C_6 
REMARK    6  A    between atoms: C_4  and  O_7 
REMARK    7  A    between atoms: C_6  and  C_9 
REMARK    8  A    between atoms: C_9  and  N_10 
REMARK       I    between atoms: N_10  and  C_11 
REMARK       I    between atoms: C_11  and  N_12 
ROOT
HETATM    1  C   UNK N   1      32.029  14.855   6.988  0.00  0.00     0.020 C 
ENDROOT
BRANCH   1   2
HETATM    2  C   UNK N   1      32.488  15.202   8.387  0.00  0.00     0.004 C 
BRANCH   2   3
HETATM    3  C   UNK N   1      32.434  16.701   8.614  0.00  0.00     0.035 C 
BRANCH   3   4
HETATM    4  C   UNK N   1      33.814  17.284   8.916  0.00  0.00     0.173 C 
BRANCH   4   5
HETATM    5  C   UNK N   1      34.509  18.213   7.969  0.00  0.00     0.163 C 
HETATM    6  O   UNK N   1      34.379  18.070   6.764  0.00  0.00    -0.648 OA
BRANCH   5   7
HETATM    7  O   UNK N   1      35.280  19.210   8.443  0.00  0.00    -0.775 OA
HETATM    8  H   UNK N   1      36.115  19.381   8.053  0.00  0.00     0.167 HD
ENDBRANCH   5   7
ENDBRANCH   4   5
BRANCH   4   9
HETATM    9  N   UNK N   1      34.490  16.937  10.159  0.00  0.00    -0.418 N 
HETATM   10  H   UNK N   1      35.487  17.124  10.266  0.00  0.00     0.150 HD
HETATM   11  H   UNK N   1      33.966  16.507  10.922  0.00  0.00     0.150 HD
ENDBRANCH   4   9
ENDBRANCH   3   4
ENDBRANCH   2   3
ENDBRANCH   1   2
BRANCH   1  12
HETATM   12  C   UNK N   1      31.452  16.109   6.366  0.00  0.00     0.138 C 
BRANCH  12  13
HETATM   13  N   UNK N   1      32.087  16.384   5.104  0.00  0.00    -0.227 N 
HETATM   14  C   UNK N   1      31.468  17.229   4.150  0.00  0.00     0.665 C 
HETATM   15  N   UNK N   1      30.212  17.820   4.418  0.00  0.00    -0.235 N 
HETATM   16  N   UNK N   1      32.051  17.461   3.033  0.00  0.00    -0.235 N 
HETATM   17  H   UNK N   1      29.759  17.645   5.275  0.00  0.00     0.174 HD
HETATM   18  H   UNK N   1      29.789  18.405   3.749  0.00  0.00     0.174 HD
HETATM   19  H   UNK N   1      31.625  18.047   2.367  0.00  0.00     0.174 HD
ATOM     20  HN  UNK N   1      32.958  17.038   2.833  1.00  0.00     0.174 HD
HETATM   21  H   UNK N   1      32.962  15.981   4.902  0.00  0.00     0.177 HD
ENDBRANCH  12  13
ENDBRANCH   1  12
TORSDOF 8
ENDMDL
MODEL 4
REMARK VINA RESULT:      -4.9      1.356      1.801
REMARK  8 active torsions:
REMARK  status: ('A' for Active; 'I' for Inactive)
REMARK    1  A    between atoms: C_1  and  C_2 
REMARK    2  A    between atoms: C_1  and  C_3 
REMARK    3  A    between atoms: C_2  and  C_4 
REMARK    4  A    between atoms: C_2  and  N_5 
REMARK    5  A    between atoms: C_3  and  C_6 
REMARK    6  A    between atoms: C_4  and  O_7 
REMARK    7  A    between atoms: C_6  and  C_9 
REMARK    8  A    between atoms: C_9  and  N_10 
REMARK       I    between atoms: N_10  and  C_11 
REMARK       I    between atoms: C_11  and  N_12 
ROOT
HETATM    1  C   UNK N   1      20.079  14.547   9.540  0.00  0.00     0.020 C 
ENDROOT
BRANCH   1   2
HETATM    2  C   UNK N   1      21.505  14.045   9.598  0.00  0.00     0.004 C 
BRANCH   2   3
HETATM    3  C   UNK N   1      21.554  12.630  10.143  0.00  0.00     0.035 C 
BRANCH   3   4
HETATM    4  C   UNK N   1      22.989  12.146  10.349  0.00  0.00     0.173 C 
BRANCH   4   5
HETATM    5  C   UNK N   1      23.604  12.042  11.710  0.00  0.00     0.163 C 
HETATM    6  O   UNK N   1      22.902  11.832  12.686  0.00  0.00    -0.648 OA
BRANCH   5   7
HETATM    7  O   UNK N   1      24.935  12.179  11.863  0.00  0.00    -0.775 OA
HETATM    8  H   UNK N   1      25.287  12.977  12.206  0.00  0.00     0.167 HD
ENDBRANCH   5   7
ENDBRANCH   4   5
BRANCH   4   9
HETATM    9  N   UNK N   1      23.799  11.771   9.198  0.00  0.00    -0.418 N 
HETATM   10  H   UNK N   1      23.348  11.479   8.331  0.00  0.00     0.150 HD
HETATM   11  H   UNK N   1      24.818  11.800   9.258  0.00  0.00     0.150 HD
ENDBRANCH   4   9
ENDBRANCH   3   4
ENDBRANCH   2   3
ENDBRANCH   1   2
BRANCH   1  12
HETATM   12  C   UNK N   1      19.996  15.579   8.436  0.00  0.00     0.138 C 
BRANCH  12  13
HETATM   13  N   UNK N   1      20.245  16.896   8.956  0.00  0.00    -0.227 N 
HETATM   14  C   UNK N   1      19.178  17.800   9.185  0.00  0.00     0.665 C 
HETATM   15  N   UNK N   1      17.844  17.424   8.906  0.00  0.00    -0.235 N 
HETATM   16  N   UNK N   1      19.422  18.969   9.648  0.00  0.00    -0.235 N 
HETATM   17  H   UNK N   1      17.650  16.527   8.549  0.00  0.00     0.174 HD
HETATM   18  H   UNK N   1      17.108  18.058   9.067  0.00  0.00     0.174 HD
HETATM   19  H   UNK N   1      18.684  19.600   9.809  0.00  0.00     0.174 HD
ATOM     20  HN  UNK N   1      20.383  19.247   9.852  1.00  0.00     0.174 HD
HETATM   21  H   UNK N   1      21.169  17.174   9.156  0.00  0.00     0.177 HD
ENDBRANCH  12  13
ENDBRANCH   1  12
TORSDOF 8
ENDMDL
MODEL 5
REMARK VINA RESULT:      -4.8     13.268     15.344
REMARK  8 active torsions:
REMARK  status: ('A' for Active; 'I' for Inactive)
REMARK    1  A    between atoms: C_1  and  C_2 
REMARK    2  A    between atoms: C_1  and  C_3 
REMARK    3  A    between atoms: C_2  and  C_4 
REMARK    4  A    between atoms: C_2  and  N_5 
REMARK    5  A    between atoms: C_3  and  C_6 
REMARK    6  A    between atoms: C_4  and  O_7 
REMARK    7  A    between atoms: C_6  and  C_9 
REMARK    8  A    between atoms: C_9  and  N_10 
REMARK       I    between atoms: N_10  and  C_11 
REMARK       I    between atoms: C_11  and  N_12 
ROOT
HETATM    1  C   UNK N   1      35.085  14.617  11.593  0.00  0.00     0.020 C 
ENDROOT
BRANCH   1   2
HETATM    2  C   UNK N   1      35.004  16.063  11.155  0.00  0.00     0.004 C 
BRANCH   2   3
HETATM    3  C   UNK N   1      35.225  16.184   9.659  0.00  0.00     0.035 C 
BRANCH   3   4
HETATM    4  C   UNK N   1      34.225  17.138   9.008  0.00  0.00     0.173 C 
BRANCH   4   5
HETATM    5  C   UNK N   1      34.658  18.237   8.088  0.00  0.00     0.163 C 
HETATM    6  O   UNK N   1      35.269  19.198   8.526  0.00  0.00    -0.648 OA
BRANCH   5   7
HETATM    7  O   UNK N   1      34.375  18.169   6.773  0.00  0.00    -0.775 OA
HETATM    8  H   UNK N   1      34.870  18.677   6.161  0.00  0.00     0.167 HD
ENDBRANCH   5   7
ENDBRANCH   4   5
BRANCH   4   9
HETATM    9  N   UNK N   1      32.801  16.990   9.280  0.00  0.00    -0.418 N 
HETATM   10  H   UNK N   1      32.117  17.463   8.690  0.00  0.00     0.150 HD
HETATM   11  H   UNK N   1      32.488  16.413  10.061  0.00  0.00     0.150 HD
ENDBRANCH   4   9
ENDBRANCH   3   4
ENDBRANCH   2   3
ENDBRANCH   1   2
BRANCH   1  12
HETATM   12  C   UNK N   1      36.132  14.521  12.682  0.00  0.00     0.138 C 
BRANCH  12  13
HETATM   13  N   UNK N   1      35.680  13.662  13.743  0.00  0.00    -0.227 N 
HETATM   14  C   UNK N   1      36.254  13.743  15.036  0.00  0.00     0.665 C 
HETATM   15  N   UNK N   1      37.284  14.672  15.310  0.00  0.00    -0.235 N 
HETATM   16  N   UNK N   1      35.836  12.968  15.967  0.00  0.00    -0.235 N 
HETATM   17  H   UNK N   1      37.609  15.270  14.599  0.00  0.00     0.174 HD
HETATM   18  H   UNK N   1      37.677  14.721  16.211  0.00  0.00     0.174 HD
HETATM   19  H   UNK N   1      36.232  13.021  16.867  0.00  0.00     0.174 HD
ATOM     20  HN  UNK N   1      35.093  12.295  15.776  1.00  0.00     0.174 HD
HETATM   21  H   UNK N   1      34.963  13.010  13.568  0.00  0.00     0.177 HD
ENDBRANCH  12  13
ENDBRANCH   1  12
TORSDOF 8
ENDMDL
MODEL 6
REMARK VINA RESULT:      -4.5      8.100      9.804
REMARK  8 active torsions:
REMARK  status: ('A' for Active; 'I' for Inactive)
REMARK    1  A    between atoms: C_1  and  C_2 
REMARK    2  A    between atoms: C_1  and  C_3 
REMARK    3  A    between atoms: C_2  and  C_4 
REMARK    4  A    between atoms: C_2  and  N_5 
REMARK    5  A    between atoms: C_3  and  C_6 
REMARK    6  A    between atoms: C_4  and  O_7 
REMARK    7  A    between atoms: C_6  and  C_9 
REMARK    8  A    between atoms: C_9  and  N_10 
REMARK       I    between atoms: N_10  and  C_11 
REMARK       I    between atoms: C_11  and  N_12 
ROOT
HETATM    1  C   UNK N   1      23.066  17.869   5.138  0.00  0.00     0.020 C 
ENDROOT
BRANCH   1   2
HETATM    2  C   UNK N   1      22.186  18.105   3.932  0.00  0.00     0.004 C 
BRANCH   2   3
HETATM    3  C   UNK N   1      21.110  19.129   4.243  0.00  0.00     0.035 C 
BRANCH   3   4
HETATM    4  C   UNK N   1      20.508  19.729   2.975  0.00  0.00     0.173 C 
BRANCH   4   5
HETATM    5  C   UNK N   1      21.166  20.854   2.237  0.00  0.00     0.163 C 
HETATM    6  O   UNK N   1      20.838  21.110   1.090  0.00  0.00    -0.648 OA
BRANCH   5   7
HETATM    7  O   UNK N   1      22.123  21.587   2.836  0.00  0.00    -0.775 OA
HETATM    8  H   UNK N   1      22.924  21.770   2.385  0.00  0.00     0.167 HD
ENDBRANCH   5   7
ENDBRANCH   4   5
BRANCH   4   9
HETATM    9  N   UNK N   1      19.253  19.204   2.450  0.00  0.00    -0.418 N 
HETATM   10  H   UNK N   1      18.447  19.820   2.347  0.00  0.00     0.150 HD
HETATM   11  H   UNK N   1      19.182  18.221   2.186  0.00  0.00     0.150 HD
ENDBRANCH   4   9
ENDBRANCH   3   4
ENDBRANCH   2   3
ENDBRANCH   1   2
BRANCH   1  12
HETATM   12  C   UNK N   1      24.499  17.780   4.657  0.00  0.00     0.138 C 
BRANCH  12  13
HETATM   13  N   UNK N   1      25.323  18.738   5.344  0.00  0.00    -0.227 N 
HETATM   14  C   UNK N   1      25.557  20.022   4.791  0.00  0.00     0.665 C 
HETATM   15  N   UNK N   1      24.984  20.388   3.551  0.00  0.00    -0.235 N 
HETATM   16  N   UNK N   1      26.294  20.860   5.420  0.00  0.00    -0.235 N 
HETATM   17  H   UNK N   1      24.417  19.748   3.064  0.00  0.00     0.174 HD
HETATM   18  H   UNK N   1      25.152  21.282   3.175  0.00  0.00     0.174 HD
HETATM   19  H   UNK N   1      26.459  21.753   5.040  0.00  0.00     0.174 HD
ATOM     20  HN  UNK N   1      26.710  20.603   6.315  1.00  0.00     0.174 HD
HETATM   21  H   UNK N   1      25.729  18.499   6.208  0.00  0.00     0.177 HD
ENDBRANCH  12  13
ENDBRANCH   1  12
TORSDOF 8
ENDMDL
MODEL 7
REMARK VINA RESULT:      -4.5     10.099     11.190
REMARK  8 active torsions:
REMARK  status: ('A' for Active; 'I' for Inactive)
REMARK    1  A    between atoms: C_1  and  C_2 
REMARK    2  A    between atoms: C_1  and  C_3 
REMARK    3  A    between atoms: C_2  and  C_4 
REMARK    4  A    between atoms: C_2  and  N_5 
REMARK    5  A    between atoms: C_3  and  C_6 
REMARK    6  A    between atoms: C_4  and  O_7 
REMARK    7  A    between atoms: C_6  and  C_9 
REMARK    8  A    between atoms: C_9  and  N_10 
REMARK       I    between atoms: N_10  and  C_11 
REMARK       I    between atoms: C_11  and  N_12 
ROOT
HETATM    1  C   UNK N   1      31.379  16.437   7.925  0.00  0.00     0.020 C 
ENDROOT
BRANCH   1   2
HETATM    2  C   UNK N   1      32.198  17.404   7.100  0.00  0.00     0.004 C 
BRANCH   2   3
HETATM    3  C   UNK N   1      33.338  17.979   7.921  0.00  0.00     0.035 C 
BRANCH   3   4
HETATM    4  C   UNK N   1      34.302  16.894   8.398  0.00  0.00     0.173 C 
BRANCH   4   5
HETATM    5  C   UNK N   1      34.715  16.772   9.832  0.00  0.00     0.163 C 
HETATM    6  O   UNK N   1      35.628  17.455  10.266  0.00  0.00    -0.648 OA
BRANCH   5   7
HETATM    7  O   UNK N   1      34.081  15.909  10.648  0.00  0.00    -0.775 OA
HETATM    8  H   UNK N   1      33.687  15.135  10.296  0.00  0.00     0.167 HD
ENDBRANCH   5   7
ENDBRANCH   4   5
BRANCH   4   9
HETATM    9  N   UNK N   1      34.847  15.938   7.442  0.00  0.00    -0.418 N 
HETATM   10  H   UNK N   1      34.412  15.830   6.526  0.00  0.00     0.150 HD
HETATM   11  H   UNK N   1      35.663  15.377   7.689  0.00  0.00     0.150 HD
ENDBRANCH   4   9
ENDBRANCH   3   4
ENDBRANCH   2   3
ENDBRANCH   1   2
BRANCH   1  12
HETATM   12  C   UNK N   1      30.232  17.209   8.541  0.00  0.00     0.138 C 
BRANCH  12  13
HETATM   13  N   UNK N   1      29.470  17.880   7.522  0.00  0.00    -0.227 N 
HETATM   14  C   UNK N   1      28.226  18.486   7.827  0.00  0.00     0.665 C 
HETATM   15  N   UNK N   1      27.708  18.444   9.142  0.00  0.00    -0.235 N 
HETATM   16  N   UNK N   1      27.564  19.079   6.904  0.00  0.00    -0.235 N 
HETATM   17  H   UNK N   1      28.212  17.991   9.855  0.00  0.00     0.174 HD
HETATM   18  H   UNK N   1      26.843  18.868   9.345  0.00  0.00     0.174 HD
HETATM   19  H   UNK N   1      26.699  19.501   7.112  0.00  0.00     0.174 HD
ATOM     20  HN  UNK N   1      27.932  19.112   5.953  1.00  0.00     0.174 HD
HETATM   21  H   UNK N   1      29.817  17.918   6.600  0.00  0.00     0.177 HD
ENDBRANCH  12  13
ENDBRANCH   1  12
TORSDOF 8
ENDMDL
MODEL 8
REMARK VINA RESULT:      -4.5     22.778     24.124
REMARK  8 active torsions:
REMARK  status: ('A' for Active; 'I' for Inactive)
REMARK    1  A    between atoms: C_1  and  C_2 
REMARK    2  A    between atoms: C_1  and  C_3 
REMARK    3  A    between atoms: C_2  and  C_4 
REMARK    4  A    between atoms: C_2  and  N_5 
REMARK    5  A    between atoms: C_3  and  C_6 
REMARK    6  A    between atoms: C_4  and  O_7 
REMARK    7  A    between atoms: C_6  and  C_9 
REMARK    8  A    between atoms: C_9  and  N_10 
REMARK       I    between atoms: N_10  and  C_11 
REMARK       I    between atoms: C_11  and  N_12 
ROOT
HETATM    1  C   UNK N   1      44.760  20.403   2.683  0.00  0.00     0.020 C 
ENDROOT
BRANCH   1   2
HETATM    2  C   UNK N   1      43.682  19.381   2.968  0.00  0.00     0.004 C 
BRANCH   2   3
HETATM    3  C   UNK N   1      42.380  20.065   3.345  0.00  0.00     0.035 C 
BRANCH   3   4
HETATM    4  C   UNK N   1      41.405  20.123   2.171  0.00  0.00     0.173 C 
BRANCH   4   5
HETATM    5  C   UNK N   1      40.281  21.112   2.120  0.00  0.00     0.163 C 
HETATM    6  O   UNK N   1      40.510  22.306   2.225  0.00  0.00    -0.648 OA
BRANCH   5   7
HETATM    7  O   UNK N   1      39.014  20.688   1.958  0.00  0.00    -0.775 OA
HETATM    8  H   UNK N   1      38.732  19.891   2.362  0.00  0.00     0.167 HD
ENDBRANCH   5   7
ENDBRANCH   4   5
BRANCH   4   9
HETATM    9  N   UNK N   1      41.557  19.197   1.056  0.00  0.00    -0.418 N 
HETATM   10  H   UNK N   1      42.453  19.117   0.578  0.00  0.00     0.150 HD
HETATM   11  H   UNK N   1      40.765  18.627   0.755  0.00  0.00     0.150 HD
ENDBRANCH   4   9
ENDBRANCH   3   4
ENDBRANCH   2   3
ENDBRANCH   1   2
BRANCH   1  12
HETATM   12  C   UNK N   1      44.804  21.368   3.848  0.00  0.00     0.138 C 
BRANCH  12  13
HETATM   13  N   UNK N   1      45.361  22.629   3.439  0.00  0.00    -0.227 N 
HETATM   14  C   UNK N   1      44.520  23.706   3.062  0.00  0.00     0.665 C 
HETATM   15  N   UNK N   1      43.113  23.561   3.081  0.00  0.00    -0.235 N 
HETATM   16  N   UNK N   1      45.037  24.821   2.700  0.00  0.00    -0.235 N 
HETATM   17  H   UNK N   1      42.711  22.707   3.358  0.00  0.00     0.174 HD
HETATM   18  H   UNK N   1      42.536  24.314   2.817  0.00  0.00     0.174 HD
HETATM   19  H   UNK N   1      44.456  25.571   2.438  0.00  0.00     0.174 HD
ATOM     20  HN  UNK N   1      46.051  24.932   2.684  1.00  0.00     0.174 HD
HETATM   21  H   UNK N   1      46.339  22.747   3.420  0.00  0.00     0.177 HD
ENDBRANCH  12  13
ENDBRANCH   1  12
TORSDOF 8
ENDMDL
MODEL 9
REMARK VINA RESULT:      -4.5      8.032      8.537
REMARK  8 active torsions:
REMARK  status: ('A' for Active; 'I' for Inactive)
REMARK    1  A    between atoms: C_1  and  C_2 
REMARK    2  A    between atoms: C_1  and  C_3 
REMARK    3  A    between atoms: C_2  and  C_4 
REMARK    4  A    between atoms: C_2  and  N_5 
REMARK    5  A    between atoms: C_3  and  C_6 
REMARK    6  A    between atoms: C_4  and  O_7 
REMARK    7  A    between atoms: C_6  and  C_9 
REMARK    8  A    between atoms: C_9  and  N_10 
REMARK       I    between atoms: N_10  and  C_11 
REMARK       I    between atoms: C_11  and  N_12 
ROOT
HETATM    1  C   UNK N   1      28.492  17.252   4.972  0.00  0.00     0.020 C 
ENDROOT
BRANCH   1   2
HETATM    2  C   UNK N   1      28.580  16.665   6.363  0.00  0.00     0.004 C 
BRANCH   2   3
HETATM    3  C   UNK N   1      29.831  17.147   7.072  0.00  0.00     0.035 C 
BRANCH   3   4
HETATM    4  C   UNK N   1      29.587  17.394   8.559  0.00  0.00     0.173 C 
BRANCH   4   5
HETATM    5  C   UNK N   1      28.224  17.698   9.101  0.00  0.00     0.163 C 
HETATM    6  O   UNK N   1      27.616  16.854   9.739  0.00  0.00    -0.648 OA
BRANCH   5   7
HETATM    7  O   UNK N   1      27.665  18.904   8.886  0.00  0.00    -0.775 OA
HETATM    8  H   UNK N   1      26.732  18.988   8.857  0.00  0.00     0.167 HD
ENDBRANCH   5   7
ENDBRANCH   4   5
BRANCH   4   9
HETATM    9  N   UNK N   1      30.702  17.335   9.496  0.00  0.00    -0.418 N 
HETATM   10  H   UNK N   1      31.564  17.841   9.295  0.00  0.00     0.150 HD
HETATM   11  H   UNK N   1      30.620  16.788  10.354  0.00  0.00     0.150 HD
ENDBRANCH   4   9
ENDBRANCH   3   4
ENDBRANCH   2   3
ENDBRANCH   1   2
BRANCH   1  12
HETATM   12  C   UNK N   1      27.166  17.972   4.855  0.00  0.00     0.138 C 
BRANCH  12  13
HETATM   13  N   UNK N   1      26.927  18.782   6.019  0.00  0.00    -0.227 N 
HETATM   14  C   UNK N   1      26.471  20.118   5.892  0.00  0.00     0.665 C 
HETATM   15  N   UNK N   1      26.241  20.682   4.616  0.00  0.00    -0.235 N 
HETATM   16  N   UNK N   1      26.265  20.822   6.943  0.00  0.00    -0.235 N 
HETATM   17  H   UNK N   1      26.398  20.146   3.806  0.00  0.00     0.174 HD
HETATM   18  H   UNK N   1      25.925  21.611   4.538  0.00  0.00     0.174 HD
HETATM   19  H   UNK N   1      25.948  21.750   6.859  0.00  0.00     0.174 HD
ATOM     20  HN  UNK N   1      26.429  20.421   7.866  1.00  0.00     0.174 HD
HETATM   21  H   UNK N   1      27.082  18.404   6.915  0.00  0.00     0.177 HD
ENDBRANCH  12  13
ENDBRANCH   1  12
TORSDOF 8
ENDMDL
