MODEL 1
REMARK VINA RESULT:      -7.3      0.000      0.000
REMARK  15 active torsions:
REMARK  status: ('A' for Active; 'I' for Inactive)
REMARK    1  A    between atoms: C_5  and  C_1 
REMARK    2  A    between atoms: O_29  and  C_1 
REMARK    3  A    between atoms: P_32  and  C_4 
REMARK    4  A    between atoms: P_33  and  C_4 
REMARK    5  A    between atoms: C_7  and  O_20 
REMARK    6  A    between atoms: C_8  and  O_21 
REMARK    7  A    between atoms: N_12  and  C_9 
REMARK    8  A    between atoms: C_11  and  N_19 
REMARK    9  A    between atoms: P_32  and  O_22 
REMARK   10  A    between atoms: P_32  and  O_23 
REMARK   11  A    between atoms: P_33  and  O_25 
REMARK   12  A    between atoms: P_34  and  O_27 
REMARK   13  A    between atoms: P_34  and  O_29 
REMARK   14  A    between atoms: P_33  and  O_31 
REMARK   15  A    between atoms: P_34  and  O_31 
ROOT
HETATM    1  C   UNK N   1      33.458  16.042   9.501  0.00  0.00     0.180 C 
HETATM    2  C   UNK N   1      34.476  16.844   8.707  0.00  0.00     0.182 C 
HETATM    3  C   UNK N   1      33.545  17.636   7.862  0.00  0.00     0.198 C 
HETATM    4  C   UNK N   1      32.574  16.526   7.457  0.00  0.00     0.262 C 
HETATM    5  O   UNK N   1      32.425  15.686   8.595  0.00  0.00    -0.353 OA
ENDROOT
BRANCH   1   6
HETATM    6  C   UNK N   1      34.172  14.836  10.099  0.00  0.00     0.215 C 
BRANCH   6   7
HETATM    7  O   UNK N   1      34.284  14.904  11.488  0.00  0.00    -0.294 OA
BRANCH   7   8
HETATM    8  P   UNK N   1      35.994  14.733  11.827  0.00  0.00     0.400 P 
HETATM    9  O   UNK N   1      36.197  14.993  13.349  0.00  0.00    -0.631 OA
BRANCH   8  10
HETATM   10  O   UNK N   1      36.961  15.927  11.019  0.00  0.00    -0.307 OA
HETATM   11  H   UNK N   1      36.847  16.664  10.398  0.00  0.00     0.222 HD
ENDBRANCH   8  10
BRANCH   8  12
HETATM   12  O   UNK N   1      36.609  13.113  11.599  0.00  0.00    -0.218 OA
BRANCH  12  13
HETATM   13  P   UNK N   1      35.488  11.972  12.302  0.00  0.00     0.258 P 
HETATM   14  O   UNK N   1      34.518  11.534  11.174  0.00  0.00    -0.653 OA
BRANCH  13  15
HETATM   15  C   UNK N   1      36.189  10.510  13.213  0.00  0.00     0.250 C 
BRANCH  15  16
HETATM   16  P   UNK N   1      37.287  11.102  14.594  0.00  0.00     0.247 P 
HETATM   17  O   UNK N   1      36.659  10.759  15.970  0.00  0.00    -0.653 OA
BRANCH  16  18
HETATM   18  O   UNK N   1      38.858  10.365  14.653  0.00  0.00    -0.329 OA
HETATM   19  H   UNK N   1      39.516  10.540  15.344  0.00  0.00     0.220 HD
ENDBRANCH  16  18
BRANCH  16  20
HETATM   20  O   UNK N   1      37.530  12.819  14.657  0.00  0.00    -0.329 OA
HETATM   21  H   UNK N   1      37.648  13.409  13.895  0.00  0.00     0.220 HD
ENDBRANCH  16  20
ENDBRANCH  15  16
ENDBRANCH  13  15
BRANCH  13  22
HETATM   22  O   UNK N   1      34.457  12.926  13.321  0.00  0.00    -0.328 OA
HETATM   23  H   UNK N   1      34.172  13.838  13.151  0.00  0.00     0.220 HD
ENDBRANCH  13  22
ENDBRANCH  12  13
ENDBRANCH   8  12
ENDBRANCH   7   8
ENDBRANCH   6   7
ENDBRANCH   1   6
BRANCH   2  24
HETATM   24  O   UNK N   1      35.293  17.636   9.516  0.00  0.00    -0.390 OA
HETATM   25  H   UNK N   1      36.237  17.541   9.722  0.00  0.00     0.210 HD
ENDBRANCH   2  24
BRANCH   3  26
HETATM   26  O   UNK N   1      34.186  18.236   6.775  0.00  0.00    -0.388 OA
HETATM   27  H   UNK N   1      34.353  18.007   5.848  0.00  0.00     0.210 HD
ENDBRANCH   3  26
BRANCH   4  28
HETATM   28  N   UNK N   1      31.267  17.034   7.002  0.00  0.00    -0.297 N 
HETATM   29  C   UNK N   1      30.865  17.090   5.705  0.00  0.00     0.188 A 
HETATM   30  N   UNK N   1      29.605  17.598   5.591  0.00  0.00    -0.346 N 
HETATM   31  C   UNK N   1      29.240  17.873   6.854  0.00  0.00     0.122 A 
ATOM     32  HN  UNK N   1      29.062  17.738   4.739  1.00  0.00     0.167 HD
HETATM   33  C   UNK N   1      28.063  18.424   7.342  0.00  0.00     0.131 A 
HETATM   34  C   UNK N   1      30.232  17.538   7.703  0.00  0.00     0.142 A 
HETATM   35  N   UNK N   1      27.958  18.624   8.689  0.00  0.00    -0.337 N 
HETATM   36  C   UNK N   1      28.985  18.287   9.535  0.00  0.00     0.183 A 
ATOM     37  HN  UNK N   1      27.103  19.029   9.072  1.00  0.00     0.168 HD
HETATM   38  N   UNK N   1      30.136  17.736   9.040  0.00  0.00    -0.336 N 
ATOM     39  HN  UNK N   1      30.902  17.480   9.663  1.00  0.00     0.168 HD
BRANCH  33  40
HETATM   40  N   UNK N   1      27.005  18.774   6.479  0.00  0.00    -0.383 N 
HETATM   41  H   UNK N   1      26.742  19.717   6.375  0.00  0.00     0.157 HD
HETATM   42  H   UNK N   1      26.528  18.073   5.978  0.00  0.00     0.157 HD
ENDBRANCH  33  40
ENDBRANCH   4  28
TORSDOF 15
ENDMDL
MODEL 2
REMARK VINA RESULT:      -7.1      1.297      2.113
REMARK  15 active torsions:
REMARK  status: ('A' for Active; 'I' for Inactive)
REMARK    1  A    between atoms: C_5  and  C_1 
REMARK    2  A    between atoms: O_29  and  C_1 
REMARK    3  A    between atoms: P_32  and  C_4 
REMARK    4  A    between atoms: P_33  and  C_4 
REMARK    5  A    between atoms: C_7  and  O_20 
REMARK    6  A    between atoms: C_8  and  O_21 
REMARK    7  A    between atoms: N_12  and  C_9 
REMARK    8  A    between atoms: C_11  and  N_19 
REMARK    9  A    between atoms: P_32  and  O_22 
REMARK   10  A    between atoms: P_32  and  O_23 
REMARK   11  A    between atoms: P_33  and  O_25 
REMARK   12  A    between atoms: P_34  and  O_27 
REMARK   13  A    between atoms: P_34  and  O_29 
REMARK   14  A    between atoms: P_33  and  O_31 
REMARK   15  A    between atoms: P_34  and  O_31 
ROOT
HETATM    1  C   UNK N   1      33.727  15.754   9.906  0.00  0.00     0.180 C 
HETATM    2  C   UNK N   1      34.760  16.637   9.226  0.00  0.00     0.182 C 
HETATM    3  C   UNK N   1      33.850  17.483   8.413  0.00  0.00     0.198 C 
HETATM    4  C   UNK N   1      32.917  16.397   7.875  0.00  0.00     0.262 C 
HETATM    5  O   UNK N   1      32.739  15.460   8.930  0.00  0.00    -0.353 OA
ENDROOT
BRANCH   1   6
HETATM    6  C   UNK N   1      34.439  14.512  10.429  0.00  0.00     0.215 C 
BRANCH   6   7
HETATM    7  O   UNK N   1      35.796  14.727  10.676  0.00  0.00    -0.294 OA
BRANCH   7   8
HETATM    8  P   UNK N   1      36.070  14.154  12.308  0.00  0.00     0.400 P 
HETATM    9  O   UNK N   1      36.324  15.401  13.205  0.00  0.00    -0.631 OA
BRANCH   8  10
HETATM   10  O   UNK N   1      37.503  13.184  12.445  0.00  0.00    -0.307 OA
HETATM   11  H   UNK N   1      37.875  12.505  13.030  0.00  0.00     0.222 HD
ENDBRANCH   8  10
BRANCH   8  12
HETATM   12  O   UNK N   1      34.679  13.393  13.042  0.00  0.00    -0.218 OA
BRANCH  12  13
HETATM   13  P   UNK N   1      35.177  12.581  14.506  0.00  0.00     0.258 P 
HETATM   14  O   UNK N   1      34.165  12.979  15.613  0.00  0.00    -0.653 OA
BRANCH  13  15
HETATM   15  C   UNK N   1      35.433  10.740  14.439  0.00  0.00     0.250 C 
BRANCH  15  16
HETATM   16  P   UNK N   1      35.131  10.131  12.707  0.00  0.00     0.247 P 
HETATM   17  O   UNK N   1      36.344  10.460  11.798  0.00  0.00    -0.653 OA
BRANCH  16  18
HETATM   18  O   UNK N   1      34.943   8.411  12.553  0.00  0.00    -0.329 OA
HETATM   19  H   UNK N   1      34.198   7.983  12.105  0.00  0.00     0.220 HD
ENDBRANCH  16  18
BRANCH  16  20
HETATM   20  O   UNK N   1      33.784  10.862  11.894  0.00  0.00    -0.329 OA
HETATM   21  H   UNK N   1      32.916  10.455  11.744  0.00  0.00     0.220 HD
ENDBRANCH  16  20
ENDBRANCH  15  16
ENDBRANCH  13  15
BRANCH  13  22
HETATM   22  O   UNK N   1      36.616  13.409  15.011  0.00  0.00    -0.328 OA
HETATM   23  H   UNK N   1      37.072  13.295  15.860  0.00  0.00     0.220 HD
ENDBRANCH  13  22
ENDBRANCH  12  13
ENDBRANCH   8  12
ENDBRANCH   7   8
ENDBRANCH   6   7
ENDBRANCH   1   6
BRANCH   2  24
HETATM   24  O   UNK N   1      35.529  17.370  10.132  0.00  0.00    -0.390 OA
HETATM   25  H   UNK N   1      35.257  17.838  10.937  0.00  0.00     0.210 HD
ENDBRANCH   2  24
BRANCH   3  26
HETATM   26  O   UNK N   1      34.522  18.183   7.408  0.00  0.00    -0.388 OA
HETATM   27  H   UNK N   1      34.302  18.532   6.531  0.00  0.00     0.210 HD
ENDBRANCH   3  26
BRANCH   4  28
HETATM   28  N   UNK N   1      31.621  16.921   7.411  0.00  0.00    -0.297 N 
HETATM   29  C   UNK N   1      31.220  16.962   6.112  0.00  0.00     0.188 A 
HETATM   30  N   UNK N   1      29.970  17.491   5.989  0.00  0.00    -0.346 N 
HETATM   31  C   UNK N   1      29.609  17.795   7.247  0.00  0.00     0.122 A 
ATOM     32  HN  UNK N   1      29.430  17.626   5.134  1.00  0.00     0.167 HD
HETATM   33  C   UNK N   1      28.443  18.376   7.724  0.00  0.00     0.131 A 
HETATM   34  C   UNK N   1      30.595  17.456   8.102  0.00  0.00     0.142 A 
HETATM   35  N   UNK N   1      28.341  18.602   9.067  0.00  0.00    -0.337 N 
HETATM   36  C   UNK N   1      29.361  18.260   9.919  0.00  0.00     0.183 A 
ATOM     37  HN  UNK N   1      27.494  19.029   9.442  1.00  0.00     0.168 HD
HETATM   38  N   UNK N   1      30.501  17.679   9.435  0.00  0.00    -0.336 N 
ATOM     39  HN  UNK N   1      31.263  17.420  10.063  1.00  0.00     0.168 HD
BRANCH  33  40
HETATM   40  N   UNK N   1      27.392  18.730   6.854  0.00  0.00    -0.383 N 
HETATM   41  H   UNK N   1      26.492  18.911   7.211  0.00  0.00     0.157 HD
HETATM   42  H   UNK N   1      27.558  18.798   5.886  0.00  0.00     0.157 HD
ENDBRANCH  33  40
ENDBRANCH   4  28
TORSDOF 15
ENDMDL
MODEL 3
REMARK VINA RESULT:      -7.1      1.788      2.446
REMARK  15 active torsions:
REMARK  status: ('A' for Active; 'I' for Inactive)
REMARK    1  A    between atoms: C_5  and  C_1 
REMARK    2  A    between atoms: O_29  and  C_1 
REMARK    3  A    between atoms: P_32  and  C_4 
REMARK    4  A    between atoms: P_33  and  C_4 
REMARK    5  A    between atoms: C_7  and  O_20 
REMARK    6  A    between atoms: C_8  and  O_21 
REMARK    7  A    between atoms: N_12  and  C_9 
REMARK    8  A    between atoms: C_11  and  N_19 
REMARK    9  A    between atoms: P_32  and  O_22 
REMARK   10  A    between atoms: P_32  and  O_23 
REMARK   11  A    between atoms: P_33  and  O_25 
REMARK   12  A    between atoms: P_34  and  O_27 
REMARK   13  A    between atoms: P_34  and  O_29 
REMARK   14  A    between atoms: P_33  and  O_31 
REMARK   15  A    between atoms: P_34  and  O_31 
ROOT
HETATM    1  C   UNK N   1      32.885  16.580   8.095  0.00  0.00     0.180 C 
HETATM    2  C   UNK N   1      33.929  17.076   7.109  0.00  0.00     0.182 C 
HETATM    3  C   UNK N   1      33.026  17.645   6.075  0.00  0.00     0.198 C 
HETATM    4  C   UNK N   1      31.998  16.515   5.997  0.00  0.00     0.262 C 
HETATM    5  O   UNK N   1      31.824  16.036   7.325  0.00  0.00    -0.353 OA
ENDROOT
BRANCH   1   6
HETATM    6  C   UNK N   1      33.548  15.555   9.008  0.00  0.00     0.215 C 
BRANCH   6   7
HETATM    7  O   UNK N   1      34.937  15.532   8.879  0.00  0.00    -0.294 OA
BRANCH   7   8
HETATM    8  P   UNK N   1      35.560  15.973  10.456  0.00  0.00     0.400 P 
HETATM    9  O   UNK N   1      35.367  17.509  10.622  0.00  0.00    -0.631 OA
BRANCH   8  10
HETATM   10  O   UNK N   1      37.268  15.702  10.601  0.00  0.00    -0.307 OA
HETATM   11  H   UNK N   1      37.879  14.988  10.844  0.00  0.00     0.222 HD
ENDBRANCH   8  10
BRANCH   8  12
HETATM   12  O   UNK N   1      34.662  15.296  11.793  0.00  0.00    -0.218 OA
BRANCH  12  13
HETATM   13  P   UNK N   1      35.421  13.805  12.295  0.00  0.00     0.258 P 
HETATM   14  O   UNK N   1      34.551  13.214  13.435  0.00  0.00    -0.653 OA
BRANCH  13  15
HETATM   15  C   UNK N   1      35.798  12.536  10.989  0.00  0.00     0.250 C 
BRANCH  15  16
HETATM   16  P   UNK N   1      37.568  11.986  11.146  0.00  0.00     0.247 P 
HETATM   17  O   UNK N   1      37.822  11.371  12.548  0.00  0.00    -0.653 OA
BRANCH  16  18
HETATM   18  O   UNK N   1      38.051  10.733  10.044  0.00  0.00    -0.329 OA
HETATM   19  H   UNK N   1      38.060   9.788  10.264  0.00  0.00     0.220 HD
ENDBRANCH  16  18
BRANCH  16  20
HETATM   20  O   UNK N   1      38.747  13.252  11.020  0.00  0.00    -0.329 OA
HETATM   21  H   UNK N   1      38.565  14.186  10.828  0.00  0.00     0.220 HD
ENDBRANCH  16  20
ENDBRANCH  15  16
ENDBRANCH  13  15
BRANCH  13  22
HETATM   22  O   UNK N   1      36.853  14.294  13.144  0.00  0.00    -0.328 OA
HETATM   23  H   UNK N   1      37.704  13.827  13.146  0.00  0.00     0.220 HD
ENDBRANCH  13  22
ENDBRANCH  12  13
ENDBRANCH   8  12
ENDBRANCH   7   8
ENDBRANCH   6   7
ENDBRANCH   1   6
BRANCH   2  24
HETATM   24  O   UNK N   1      34.795  18.021   7.663  0.00  0.00    -0.390 OA
HETATM   25  H   UNK N   1      34.737  18.490   8.510  0.00  0.00     0.210 HD
ENDBRANCH   2  24
BRANCH   3  26
HETATM   26  O   UNK N   1      33.680  17.883   4.864  0.00  0.00    -0.388 OA
HETATM   27  H   UNK N   1      34.573  18.141   4.589  0.00  0.00     0.210 HD
ENDBRANCH   3  26
BRANCH   4  28
HETATM   28  N   UNK N   1      30.711  16.940   5.417  0.00  0.00    -0.297 N 
HETATM   29  C   UNK N   1      30.385  16.849   4.101  0.00  0.00     0.188 A 
HETATM   30  N   UNK N   1      29.124  17.311   3.863  0.00  0.00    -0.346 N 
HETATM   31  C   UNK N   1      28.680  17.708   5.067  0.00  0.00     0.122 A 
ATOM     32  HN  UNK N   1      28.630  17.346   2.971  1.00  0.00     0.167 HD
HETATM   33  C   UNK N   1      27.466  18.277   5.425  0.00  0.00     0.131 A 
HETATM   34  C   UNK N   1      29.627  17.489   6.001  0.00  0.00     0.142 A 
HETATM   35  N   UNK N   1      27.278  18.615   6.735  0.00  0.00    -0.337 N 
HETATM   36  C   UNK N   1      28.260  18.394   7.669  0.00  0.00     0.183 A 
ATOM     37  HN  UNK N   1      26.395  19.036   7.024  1.00  0.00     0.168 HD
HETATM   38  N   UNK N   1      29.447  17.823   7.302  0.00  0.00    -0.336 N 
ATOM     39  HN  UNK N   1      30.181  17.654   7.990  1.00  0.00     0.168 HD
BRANCH  33  40
HETATM   40  N   UNK N   1      26.455  18.508   4.471  0.00  0.00    -0.383 N 
HETATM   41  H   UNK N   1      25.575  18.076   4.567  0.00  0.00     0.157 HD
HETATM   42  H   UNK N   1      26.628  19.103   3.707  0.00  0.00     0.157 HD
ENDBRANCH  33  40
ENDBRANCH   4  28
TORSDOF 15
ENDMDL
MODEL 4
REMARK VINA RESULT:      -7.1      2.807      4.996
REMARK  15 active torsions:
REMARK  status: ('A' for Active; 'I' for Inactive)
REMARK    1  A    between atoms: C_5  and  C_1 
REMARK    2  A    between atoms: O_29  and  C_1 
REMARK    3  A    between atoms: P_32  and  C_4 
REMARK    4  A    between atoms: P_33  and  C_4 
REMARK    5  A    between atoms: C_7  and  O_20 
REMARK    6  A    between atoms: C_8  and  O_21 
REMARK    7  A    between atoms: N_12  and  C_9 
REMARK    8  A    between atoms: C_11  and  N_19 
REMARK    9  A    between atoms: P_32  and  O_22 
REMARK   10  A    between atoms: P_32  and  O_23 
REMARK   11  A    between atoms: P_33  and  O_25 
REMARK   12  A    between atoms: P_34  and  O_27 
REMARK   13  A    between atoms: P_34  and  O_29 
REMARK   14  A    between atoms: P_33  and  O_31 
REMARK   15  A    between atoms: P_34  and  O_31 
ROOT
HETATM    1  C   UNK N   1      30.467  17.106   7.403  0.00  0.00     0.180 C 
HETATM    2  C   UNK N   1      29.909  17.771   8.650  0.00  0.00     0.182 C 
HETATM    3  C   UNK N   1      28.459  17.580   8.392  0.00  0.00     0.198 C 
HETATM    4  C   UNK N   1      28.417  17.974   6.915  0.00  0.00     0.262 C 
HETATM    5  O   UNK N   1      29.613  17.474   6.330  0.00  0.00    -0.353 OA
ENDROOT
BRANCH   1   6
HETATM    6  C   UNK N   1      31.902  17.583   7.216  0.00  0.00     0.215 C 
BRANCH   6   7
HETATM    7  O   UNK N   1      32.489  18.018   8.405  0.00  0.00    -0.294 OA
BRANCH   7   8
HETATM    8  P   UNK N   1      34.216  17.864   8.157  0.00  0.00     0.400 P 
HETATM    9  O   UNK N   1      34.853  19.260   8.423  0.00  0.00    -0.631 OA
BRANCH   8  10
HETATM   10  O   UNK N   1      34.625  17.471   6.517  0.00  0.00    -0.307 OA
HETATM   11  H   UNK N   1      34.189  17.380   5.655  0.00  0.00     0.222 HD
ENDBRANCH   8  10
BRANCH   8  12
HETATM   12  O   UNK N   1      35.013  16.820   9.310  0.00  0.00    -0.218 OA
BRANCH  12  13
HETATM   13  P   UNK N   1      34.287  15.233   9.242  0.00  0.00     0.258 P 
HETATM   14  O   UNK N   1      34.001  14.929   7.748  0.00  0.00    -0.653 OA
BRANCH  13  15
HETATM   15  C   UNK N   1      35.181  13.828  10.070  0.00  0.00     0.250 C 
BRANCH  15  16
HETATM   16  P   UNK N   1      36.397  14.505  11.306  0.00  0.00     0.247 P 
HETATM   17  O   UNK N   1      35.689  14.800  12.655  0.00  0.00    -0.653 OA
BRANCH  16  18
HETATM   18  O   UNK N   1      37.688  13.425  11.736  0.00  0.00    -0.329 OA
HETATM   19  H   UNK N   1      37.828  12.556  11.330  0.00  0.00     0.220 HD
ENDBRANCH  16  18
BRANCH  16  20
HETATM   20  O   UNK N   1      37.125  16.018  10.870  0.00  0.00    -0.329 OA
HETATM   21  H   UNK N   1      37.343  16.743  11.476  0.00  0.00     0.220 HD
ENDBRANCH  16  20
ENDBRANCH  15  16
ENDBRANCH  13  15
BRANCH  13  22
HETATM   22  O   UNK N   1      32.689  15.442   9.885  0.00  0.00    -0.328 OA
HETATM   23  H   UNK N   1      32.195  14.793  10.409  0.00  0.00     0.220 HD
ENDBRANCH  13  22
ENDBRANCH  12  13
ENDBRANCH   8  12
ENDBRANCH   7   8
ENDBRANCH   6   7
ENDBRANCH   1   6
BRANCH   2  24
HETATM   24  O   UNK N   1      30.342  17.163   9.830  0.00  0.00    -0.390 OA
HETATM   25  H   UNK N   1      31.217  16.812  10.059  0.00  0.00     0.210 HD
ENDBRANCH   2  24
BRANCH   3  26
HETATM   26  O   UNK N   1      27.658  18.387   9.203  0.00  0.00    -0.388 OA
HETATM   27  H   UNK N   1      27.320  19.295   9.171  0.00  0.00     0.210 HD
ENDBRANCH   3  26
BRANCH   4  28
HETATM   28  N   UNK N   1      27.230  17.459   6.208  0.00  0.00    -0.297 N 
HETATM   29  C   UNK N   1      26.829  16.161   6.210  0.00  0.00     0.188 A 
HETATM   30  N   UNK N   1      25.693  15.985   5.477  0.00  0.00    -0.346 N 
HETATM   31  C   UNK N   1      25.407  17.210   5.004  0.00  0.00     0.122 A 
ATOM     32  HN  UNK N   1      25.177  15.119   5.323  1.00  0.00     0.167 HD
HETATM   33  C   UNK N   1      24.369  17.628   4.183  0.00  0.00     0.131 A 
HETATM   34  C   UNK N   1      26.326  18.096   5.438  0.00  0.00     0.142 A 
HETATM   35  N   UNK N   1      24.325  18.945   3.826  0.00  0.00    -0.337 N 
HETATM   36  C   UNK N   1      25.277  19.830   4.270  0.00  0.00     0.183 A 
ATOM     37  HN  UNK N   1      23.572  19.278   3.222  1.00  0.00     0.168 HD
HETATM   38  N   UNK N   1      26.288  19.404   5.087  0.00  0.00    -0.336 N 
ATOM     39  HN  UNK N   1      26.998  20.055   5.422  1.00  0.00     0.168 HD
BRANCH  33  40
HETATM   40  N   UNK N   1      23.390  16.725   3.723  0.00  0.00    -0.383 N 
HETATM   41  H   UNK N   1      23.487  15.760   3.892  0.00  0.00     0.157 HD
HETATM   42  H   UNK N   1      22.606  17.061   3.231  0.00  0.00     0.157 HD
ENDBRANCH  33  40
ENDBRANCH   4  28
TORSDOF 15
ENDMDL
MODEL 5
REMARK VINA RESULT:      -7.0      5.943     10.122
REMARK  15 active torsions:
REMARK  status: ('A' for Active; 'I' for Inactive)
REMARK    1  A    between atoms: C_5  and  C_1 
REMARK    2  A    between atoms: O_29  and  C_1 
REMARK    3  A    between atoms: P_32  and  C_4 
REMARK    4  A    between atoms: P_33  and  C_4 
REMARK    5  A    between atoms: C_7  and  O_20 
REMARK    6  A    between atoms: C_8  and  O_21 
REMARK    7  A    between atoms: N_12  and  C_9 
REMARK    8  A    between atoms: C_11  and  N_19 
REMARK    9  A    between atoms: P_32  and  O_22 
REMARK   10  A    between atoms: P_32  and  O_23 
REMARK   11  A    between atoms: P_33  and  O_25 
REMARK   12  A    between atoms: P_34  and  O_27 
REMARK   13  A    between atoms: P_34  and  O_29 
REMARK   14  A    between atoms: P_33  and  O_31 
REMARK   15  A    between atoms: P_34  and  O_31 
ROOT
HETATM    1  C   UNK N   1      35.445  12.346  13.613  0.00  0.00     0.180 C 
HETATM    2  C   UNK N   1      36.545  13.394  13.597  0.00  0.00     0.182 C 
HETATM    3  C   UNK N   1      36.842  13.446  15.052  0.00  0.00     0.198 C 
HETATM    4  C   UNK N   1      35.412  13.470  15.595  0.00  0.00     0.262 C 
HETATM    5  O   UNK N   1      34.649  12.609  14.758  0.00  0.00    -0.353 OA
ENDROOT
BRANCH   1   6
HETATM    6  C   UNK N   1      34.668  12.460  12.306  0.00  0.00     0.215 C 
BRANCH   6   7
HETATM    7  O   UNK N   1      35.287  11.794  11.247  0.00  0.00    -0.294 OA
BRANCH   7   8
HETATM    8  P   UNK N   1      35.404  12.974   9.957  0.00  0.00     0.400 P 
HETATM    9  O   UNK N   1      33.953  13.361   9.545  0.00  0.00    -0.631 OA
BRANCH   8  10
HETATM   10  O   UNK N   1      36.137  12.328   8.523  0.00  0.00    -0.307 OA
HETATM   11  H   UNK N   1      36.327  11.465   8.122  0.00  0.00     0.222 HD
ENDBRANCH   8  10
BRANCH   8  12
HETATM   12  O   UNK N   1      36.115  14.494  10.442  0.00  0.00    -0.218 OA
BRANCH  12  13
HETATM   13  P   UNK N   1      35.079  15.801   9.926  0.00  0.00     0.258 P 
HETATM   14  O   UNK N   1      35.662  17.108  10.525  0.00  0.00    -0.653 OA
BRANCH  13  15
HETATM   15  C   UNK N   1      34.733  15.974   8.107  0.00  0.00     0.250 C 
BRANCH  15  16
HETATM   16  P   UNK N   1      34.198  17.717   7.736  0.00  0.00     0.247 P 
HETATM   17  O   UNK N   1      32.787  17.986   8.322  0.00  0.00    -0.653 OA
BRANCH  16  18
HETATM   18  O   UNK N   1      35.190  18.957   8.439  0.00  0.00    -0.329 OA
HETATM   19  H   UNK N   1      36.112  18.828   8.710  0.00  0.00     0.220 HD
ENDBRANCH  16  18
BRANCH  16  20
HETATM   20  O   UNK N   1      34.034  18.094   6.050  0.00  0.00    -0.329 OA
HETATM   21  H   UNK N   1      34.393  18.876   5.601  0.00  0.00     0.220 HD
ENDBRANCH  16  20
ENDBRANCH  15  16
ENDBRANCH  13  15
BRANCH  13  22
HETATM   22  O   UNK N   1      33.617  15.602  10.839  0.00  0.00    -0.328 OA
HETATM   23  H   UNK N   1      33.555  15.310  11.762  0.00  0.00     0.220 HD
ENDBRANCH  13  22
ENDBRANCH  12  13
ENDBRANCH   8  12
ENDBRANCH   7   8
ENDBRANCH   6   7
ENDBRANCH   1   6
BRANCH   2  24
HETATM   24  O   UNK N   1      37.645  13.016  12.825  0.00  0.00    -0.390 OA
HETATM   25  H   UNK N   1      38.460  12.561  13.091  0.00  0.00     0.210 HD
ENDBRANCH   2  24
BRANCH   3  26
HETATM   26  O   UNK N   1      37.587  14.573  15.407  0.00  0.00    -0.388 OA
HETATM   27  H   UNK N   1      37.728  15.094  16.213  0.00  0.00     0.210 HD
ENDBRANCH   3  26
BRANCH   4  28
HETATM   28  N   UNK N   1      35.318  13.053  17.005  0.00  0.00    -0.297 N 
HETATM   29  C   UNK N   1      35.305  13.902  18.066  0.00  0.00     0.188 A 
HETATM   30  N   UNK N   1      35.201  13.229  19.247  0.00  0.00    -0.346 N 
HETATM   31  C   UNK N   1      35.168  11.934  18.892  0.00  0.00     0.122 A 
ATOM     32  HN  UNK N   1      35.159  13.620  20.188  1.00  0.00     0.167 HD
HETATM   33  C   UNK N   1      35.085  10.795  19.681  0.00  0.00     0.131 A 
HETATM   34  C   UNK N   1      35.239  11.823  17.550  0.00  0.00     0.142 A 
HETATM   35  N   UNK N   1      35.095   9.580  19.058  0.00  0.00    -0.337 N 
HETATM   36  C   UNK N   1      35.180   9.489  17.690  0.00  0.00     0.183 A 
ATOM     37  HN  UNK N   1      35.037   8.727  19.616  1.00  0.00     0.168 HD
HETATM   38  N   UNK N   1      35.250  10.621  16.925  0.00  0.00    -0.336 N 
ATOM     39  HN  UNK N   1      35.311  10.561  15.909  1.00  0.00     0.168 HD
BRANCH  33  40
HETATM   40  N   UNK N   1      35.000  10.882  21.085  0.00  0.00    -0.383 N 
HETATM   41  H   UNK N   1      35.436  10.204  21.651  0.00  0.00     0.157 HD
HETATM   42  H   UNK N   1      34.503  11.622  21.502  0.00  0.00     0.157 HD
ENDBRANCH  33  40
ENDBRANCH   4  28
TORSDOF 15
ENDMDL
MODEL 6
REMARK VINA RESULT:      -6.7      1.584      2.116
REMARK  15 active torsions:
REMARK  status: ('A' for Active; 'I' for Inactive)
REMARK    1  A    between atoms: C_5  and  C_1 
REMARK    2  A    between atoms: O_29  and  C_1 
REMARK    3  A    between atoms: P_32  and  C_4 
REMARK    4  A    between atoms: P_33  and  C_4 
REMARK    5  A    between atoms: C_7  and  O_20 
REMARK    6  A    between atoms: C_8  and  O_21 
REMARK    7  A    between atoms: N_12  and  C_9 
REMARK    8  A    between atoms: C_11  and  N_19 
REMARK    9  A    between atoms: P_32  and  O_22 
REMARK   10  A    between atoms: P_32  and  O_23 
REMARK   11  A    between atoms: P_33  and  O_25 
REMARK   12  A    between atoms: P_34  and  O_27 
REMARK   13  A    between atoms: P_34  and  O_29 
REMARK   14  A    between atoms: P_33  and  O_31 
REMARK   15  A    between atoms: P_34  and  O_31 
ROOT
HETATM    1  C   UNK N   1      33.838  17.291   9.179  0.00  0.00     0.180 C 
HETATM    2  C   UNK N   1      34.594  17.724   7.935  0.00  0.00     0.182 C 
HETATM    3  C   UNK N   1      33.453  17.827   6.989  0.00  0.00     0.198 C 
HETATM    4  C   UNK N   1      32.721  16.532   7.344  0.00  0.00     0.262 C 
HETATM    5  O   UNK N   1      32.843  16.372   8.752  0.00  0.00    -0.353 OA
ENDROOT
BRANCH   1   6
HETATM    6  C   UNK N   1      34.840  16.678  10.150  0.00  0.00     0.215 C 
BRANCH   6   7
HETATM    7  O   UNK N   1      34.433  15.437  10.640  0.00  0.00    -0.294 OA
BRANCH   7   8
HETATM    8  P   UNK N   1      35.911  14.578  11.024  0.00  0.00     0.400 P 
HETATM    9  O   UNK N   1      37.044  15.179  10.141  0.00  0.00    -0.631 OA
BRANCH   8  10
HETATM   10  O   UNK N   1      35.837  12.896  10.603  0.00  0.00    -0.307 OA
HETATM   11  H   UNK N   1      36.392  12.102  10.657  0.00  0.00     0.222 HD
ENDBRANCH   8  10
BRANCH   8  12
HETATM   12  O   UNK N   1      36.481  14.832  12.656  0.00  0.00    -0.218 OA
BRANCH  12  13
HETATM   13  P   UNK N   1      36.211  13.380  13.588  0.00  0.00     0.258 P 
HETATM   14  O   UNK N   1      37.050  12.254  12.929  0.00  0.00    -0.653 OA
BRANCH  13  15
HETATM   15  C   UNK N   1      36.488  13.457  15.425  0.00  0.00     0.250 C 
BRANCH  15  16
HETATM   16  P   UNK N   1      35.115  12.559  16.302  0.00  0.00     0.247 P 
HETATM   17  O   UNK N   1      33.779  13.333  16.150  0.00  0.00    -0.653 OA
BRANCH  16  18
HETATM   18  O   UNK N   1      34.757  10.976  15.684  0.00  0.00    -0.329 OA
HETATM   19  H   UNK N   1      35.360  10.461  15.125  0.00  0.00     0.220 HD
ENDBRANCH  16  18
BRANCH  16  20
HETATM   20  O   UNK N   1      35.317  12.399  18.018  0.00  0.00    -0.329 OA
HETATM   21  H   UNK N   1      35.909  12.928  18.576  0.00  0.00     0.220 HD
ENDBRANCH  16  20
ENDBRANCH  15  16
ENDBRANCH  13  15
BRANCH  13  22
HETATM   22  O   UNK N   1      34.589  12.897  13.206  0.00  0.00    -0.328 OA
HETATM   23  H   UNK N   1      33.911  13.451  12.789  0.00  0.00     0.220 HD
ENDBRANCH  13  22
ENDBRANCH  12  13
ENDBRANCH   8  12
ENDBRANCH   7   8
ENDBRANCH   6   7
ENDBRANCH   1   6
BRANCH   2  24
HETATM   24  O   UNK N   1      35.277  18.930   8.106  0.00  0.00    -0.390 OA
HETATM   25  H   UNK N   1      35.091  19.665   8.711  0.00  0.00     0.210 HD
ENDBRANCH   2  24
BRANCH   3  26
HETATM   26  O   UNK N   1      33.865  17.882   5.655  0.00  0.00    -0.388 OA
HETATM   27  H   UNK N   1      33.542  18.295   4.839  0.00  0.00     0.210 HD
ENDBRANCH   3  26
BRANCH   4  28
HETATM   28  N   UNK N   1      31.304  16.534   6.936  0.00  0.00    -0.297 N 
HETATM   29  C   UNK N   1      30.820  15.942   5.812  0.00  0.00     0.188 A 
HETATM   30  N   UNK N   1      29.470  16.101   5.703  0.00  0.00    -0.346 N 
HETATM   31  C   UNK N   1      29.130  16.826   6.782  0.00  0.00     0.122 A 
ATOM     32  HN  UNK N   1      28.857  15.750   4.967  1.00  0.00     0.167 HD
HETATM   33  C   UNK N   1      27.889  17.300   7.181  0.00  0.00     0.131 A 
HETATM   34  C   UNK N   1      30.225  17.088   7.523  0.00  0.00     0.142 A 
HETATM   35  N   UNK N   1      27.824  18.044   8.324  0.00  0.00    -0.337 N 
HETATM   36  C   UNK N   1      28.953  18.310   9.059  0.00  0.00     0.183 A 
ATOM     37  HN  UNK N   1      26.923  18.407   8.639  1.00  0.00     0.168 HD
HETATM   38  N   UNK N   1      30.168  17.827   8.657  0.00  0.00    -0.336 N 
ATOM     39  HN  UNK N   1      31.011  18.018   9.199  1.00  0.00     0.168 HD
BRANCH  33  40
HETATM   40  N   UNK N   1      26.726  17.033   6.431  0.00  0.00    -0.383 N 
HETATM   41  H   UNK N   1      25.855  17.387   6.723  0.00  0.00     0.157 HD
HETATM   42  H   UNK N   1      26.785  16.490   5.612  0.00  0.00     0.157 HD
ENDBRANCH  33  40
ENDBRANCH   4  28
TORSDOF 15
ENDMDL
MODEL 7
REMARK VINA RESULT:      -6.6      1.991      3.277
REMARK  15 active torsions:
REMARK  status: ('A' for Active; 'I' for Inactive)
REMARK    1  A    between atoms: C_5  and  C_1 
REMARK    2  A    between atoms: O_29  and  C_1 
REMARK    3  A    between atoms: P_32  and  C_4 
REMARK    4  A    between atoms: P_33  and  C_4 
REMARK    5  A    between atoms: C_7  and  O_20 
REMARK    6  A    between atoms: C_8  and  O_21 
REMARK    7  A    between atoms: N_12  and  C_9 
REMARK    8  A    between atoms: C_11  and  N_19 
REMARK    9  A    between atoms: P_32  and  O_22 
REMARK   10  A    between atoms: P_32  and  O_23 
REMARK   11  A    between atoms: P_33  and  O_25 
REMARK   12  A    between atoms: P_34  and  O_27 
REMARK   13  A    between atoms: P_34  and  O_29 
REMARK   14  A    between atoms: P_33  and  O_31 
REMARK   15  A    between atoms: P_34  and  O_31 
ROOT
HETATM    1  C   UNK N   1      33.814  15.672   9.928  0.00  0.00     0.180 C 
HETATM    2  C   UNK N   1      34.835  16.597   9.288  0.00  0.00     0.182 C 
HETATM    3  C   UNK N   1      33.914  17.455   8.499  0.00  0.00     0.198 C 
HETATM    4  C   UNK N   1      33.007  16.371   7.915  0.00  0.00     0.262 C 
HETATM    5  O   UNK N   1      32.838  15.394   8.936  0.00  0.00    -0.353 OA
ENDROOT
BRANCH   1   6
HETATM    6  C   UNK N   1      34.546  14.426  10.413  0.00  0.00     0.215 C 
BRANCH   6   7
HETATM    7  O   UNK N   1      35.752  14.718  11.051  0.00  0.00    -0.294 OA
BRANCH   7   8
HETATM    8  P   UNK N   1      35.882  13.559  12.358  0.00  0.00     0.400 P 
HETATM    9  O   UNK N   1      34.514  13.539  13.103  0.00  0.00    -0.631 OA
BRANCH   8  10
HETATM   10  O   UNK N   1      37.054  14.023  13.551  0.00  0.00    -0.307 OA
HETATM   11  H   UNK N   1      38.017  14.079  13.649  0.00  0.00     0.222 HD
ENDBRANCH   8  10
BRANCH   8  12
HETATM   12  O   UNK N   1      36.088  11.906  11.830  0.00  0.00    -0.218 OA
BRANCH  12  13
HETATM   13  P   UNK N   1      37.449  11.821  10.738  0.00  0.00     0.258 P 
HETATM   14  O   UNK N   1      38.212  10.510  11.064  0.00  0.00    -0.653 OA
BRANCH  13  15
HETATM   15  C   UNK N   1      37.118  11.989   8.916  0.00  0.00     0.250 C 
BRANCH  15  16
HETATM   16  P   UNK N   1      38.033  13.465   8.248  0.00  0.00     0.247 P 
HETATM   17  O   UNK N   1      37.359  13.977   6.948  0.00  0.00    -0.653 OA
BRANCH  16  18
HETATM   18  O   UNK N   1      38.050  14.854   9.290  0.00  0.00    -0.329 OA
HETATM   19  H   UNK N   1      37.674  15.717   9.053  0.00  0.00     0.220 HD
ENDBRANCH  16  18
BRANCH  16  20
HETATM   20  O   UNK N   1      39.677  13.163   7.780  0.00  0.00    -0.329 OA
HETATM   21  H   UNK N   1      40.125  13.525   7.001  0.00  0.00     0.220 HD
ENDBRANCH  16  20
ENDBRANCH  15  16
ENDBRANCH  13  15
BRANCH  13  22
HETATM   22  O   UNK N   1      38.553  13.036  11.301  0.00  0.00    -0.328 OA
HETATM   23  H   UNK N   1      39.000  13.047  12.163  0.00  0.00     0.220 HD
ENDBRANCH  13  22
ENDBRANCH  12  13
ENDBRANCH   8  12
ENDBRANCH   7   8
ENDBRANCH   6   7
ENDBRANCH   1   6
BRANCH   2  24
HETATM   24  O   UNK N   1      35.584  17.312  10.225  0.00  0.00    -0.390 OA
HETATM   25  H   UNK N   1      35.518  18.243  10.488  0.00  0.00     0.210 HD
ENDBRANCH   2  24
BRANCH   3  26
HETATM   26  O   UNK N   1      34.580  18.202   7.524  0.00  0.00    -0.388 OA
HETATM   27  H   UNK N   1      34.383  18.983   6.984  0.00  0.00     0.210 HD
ENDBRANCH   3  26
BRANCH   4  28
HETATM   28  N   UNK N   1      31.703  16.887   7.460  0.00  0.00    -0.297 N 
HETATM   29  C   UNK N   1      31.285  16.907   6.167  0.00  0.00     0.188 A 
HETATM   30  N   UNK N   1      30.033  17.433   6.052  0.00  0.00    -0.346 N 
HETATM   31  C   UNK N   1      29.689  17.757   7.309  0.00  0.00     0.122 A 
ATOM     32  HN  UNK N   1      29.482  17.554   5.201  1.00  0.00     0.167 HD
HETATM   33  C   UNK N   1      28.529  18.345   7.792  0.00  0.00     0.131 A 
HETATM   34  C   UNK N   1      30.687  17.433   8.156  0.00  0.00     0.142 A 
HETATM   35  N   UNK N   1      28.445  18.592   9.132  0.00  0.00    -0.337 N 
HETATM   36  C   UNK N   1      29.477  18.265   9.977  0.00  0.00     0.183 A 
ATOM     37  HN  UNK N   1      27.602  19.025   9.513  1.00  0.00     0.168 HD
HETATM   38  N   UNK N   1      30.610  17.677   9.487  0.00  0.00    -0.336 N 
ATOM     39  HN  UNK N   1      31.380  17.428  10.108  1.00  0.00     0.168 HD
BRANCH  33  40
HETATM   40  N   UNK N   1      27.466  18.685   6.931  0.00  0.00    -0.383 N 
HETATM   41  H   UNK N   1      27.491  18.418   5.983  0.00  0.00     0.157 HD
HETATM   42  H   UNK N   1      26.697  19.191   7.278  0.00  0.00     0.157 HD
ENDBRANCH  33  40
ENDBRANCH   4  28
TORSDOF 15
ENDMDL
MODEL 8
REMARK VINA RESULT:      -6.6     12.353     15.236
REMARK  15 active torsions:
REMARK  status: ('A' for Active; 'I' for Inactive)
REMARK    1  A    between atoms: C_5  and  C_1 
REMARK    2  A    between atoms: O_29  and  C_1 
REMARK    3  A    between atoms: P_32  and  C_4 
REMARK    4  A    between atoms: P_33  and  C_4 
REMARK    5  A    between atoms: C_7  and  O_20 
REMARK    6  A    between atoms: C_8  and  O_21 
REMARK    7  A    between atoms: N_12  and  C_9 
REMARK    8  A    between atoms: C_11  and  N_19 
REMARK    9  A    between atoms: P_32  and  O_22 
REMARK   10  A    between atoms: P_32  and  O_23 
REMARK   11  A    between atoms: P_33  and  O_25 
REMARK   12  A    between atoms: P_34  and  O_27 
REMARK   13  A    between atoms: P_34  and  O_29 
REMARK   14  A    between atoms: P_33  and  O_31 
REMARK   15  A    between atoms: P_34  and  O_31 
ROOT
HETATM    1  C   UNK N   1      22.759  14.978   6.276  0.00  0.00     0.180 C 
HETATM    2  C   UNK N   1      21.627  15.966   6.500  0.00  0.00     0.182 C 
HETATM    3  C   UNK N   1      21.313  15.646   7.917  0.00  0.00     0.198 C 
HETATM    4  C   UNK N   1      21.339  14.119   7.836  0.00  0.00     0.262 C 
HETATM    5  O   UNK N   1      22.393  13.780   6.943  0.00  0.00    -0.353 OA
ENDROOT
BRANCH   1   6
HETATM    6  C   UNK N   1      22.934  14.795   4.772  0.00  0.00     0.215 C 
BRANCH   6   7
HETATM    7  O   UNK N   1      22.416  15.859   4.032  0.00  0.00    -0.294 OA
BRANCH   7   8
HETATM    8  P   UNK N   1      21.708  15.133   2.604  0.00  0.00     0.400 P 
HETATM    9  O   UNK N   1      20.806  13.955   3.076  0.00  0.00    -0.631 OA
BRANCH   8  10
HETATM   10  O   UNK N   1      22.894  14.419   1.557  0.00  0.00    -0.307 OA
HETATM   11  H   UNK N   1      23.856  14.422   1.431  0.00  0.00     0.222 HD
ENDBRANCH   8  10
BRANCH   8  12
HETATM   12  O   UNK N   1      20.604  16.179   1.743  0.00  0.00    -0.218 OA
BRANCH  12  13
HETATM   13  P   UNK N   1      20.187  17.534   2.764  0.00  0.00     0.258 P 
HETATM   14  O   UNK N   1      19.471  16.957   4.014  0.00  0.00    -0.653 OA
BRANCH  13  15
HETATM   15  C   UNK N   1      21.539  18.721   3.234  0.00  0.00     0.250 C 
BRANCH  15  16
HETATM   16  P   UNK N   1      21.065  20.444   2.714  0.00  0.00     0.247 P 
HETATM   17  O   UNK N   1      22.316  21.360   2.670  0.00  0.00    -0.653 OA
BRANCH  16  18
HETATM   18  O   UNK N   1      20.393  20.573   1.118  0.00  0.00    -0.329 OA
HETATM   19  H   UNK N   1      20.659  20.018   0.369  0.00  0.00     0.220 HD
ENDBRANCH  16  18
BRANCH  16  20
HETATM   20  O   UNK N   1      19.978  21.264   3.790  0.00  0.00    -0.329 OA
HETATM   21  H   UNK N   1      19.936  22.222   3.939  0.00  0.00     0.220 HD
ENDBRANCH  16  20
ENDBRANCH  15  16
ENDBRANCH  13  15
BRANCH  13  22
HETATM   22  O   UNK N   1      18.890  18.336   1.938  0.00  0.00    -0.328 OA
HETATM   23  H   UNK N   1      18.945  19.190   1.482  0.00  0.00     0.220 HD
ENDBRANCH  13  22
ENDBRANCH  12  13
ENDBRANCH   8  12
ENDBRANCH   7   8
ENDBRANCH   6   7
ENDBRANCH   1   6
BRANCH   2  24
HETATM   24  O   UNK N   1      22.018  17.293   6.310  0.00  0.00    -0.390 OA
HETATM   25  H   UNK N   1      21.898  17.867   5.537  0.00  0.00     0.210 HD
ENDBRANCH   2  24
BRANCH   3  26
HETATM   26  O   UNK N   1      20.077  16.158   8.321  0.00  0.00    -0.388 OA
HETATM   27  H   UNK N   1      19.469  16.846   8.011  0.00  0.00     0.210 HD
ENDBRANCH   3  26
BRANCH   4  28
HETATM   28  N   UNK N   1      21.530  13.471   9.146  0.00  0.00    -0.297 N 
HETATM   29  C   UNK N   1      20.528  13.143  10.004  0.00  0.00     0.188 A 
HETATM   30  N   UNK N   1      21.007  12.548  11.133  0.00  0.00    -0.346 N 
HETATM   31  C   UNK N   1      22.339  12.530  10.962  0.00  0.00     0.122 A 
ATOM     32  HN  UNK N   1      20.474  12.196  11.928  1.00  0.00     0.167 HD
HETATM   33  C   UNK N   1      23.339  12.056  11.800  0.00  0.00     0.131 A 
HETATM   34  C   UNK N   1      22.658  13.082   9.774  0.00  0.00     0.142 A 
HETATM   35  N   UNK N   1      24.635  12.184  11.389  0.00  0.00    -0.337 N 
HETATM   36  C   UNK N   1      24.939  12.761  10.181  0.00  0.00     0.183 A 
ATOM     37  HN  UNK N   1      25.389  11.845  11.988  1.00  0.00     0.168 HD
HETATM   38  N   UNK N   1      23.941  13.214   9.361  0.00  0.00    -0.336 N 
ATOM     39  HN  UNK N   1      24.159  13.641   8.461  1.00  0.00     0.168 HD
BRANCH  33  40
HETATM   40  N   UNK N   1      23.034  11.465  13.043  0.00  0.00    -0.383 N 
HETATM   41  H   UNK N   1      23.200  11.957  13.879  0.00  0.00     0.157 HD
HETATM   42  H   UNK N   1      22.654  10.557  13.074  0.00  0.00     0.157 HD
ENDBRANCH  33  40
ENDBRANCH   4  28
TORSDOF 15
ENDMDL
MODEL 9
REMARK VINA RESULT:      -6.3      5.727      9.852
REMARK  15 active torsions:
REMARK  status: ('A' for Active; 'I' for Inactive)
REMARK    1  A    between atoms: C_5  and  C_1 
REMARK    2  A    between atoms: O_29  and  C_1 
REMARK    3  A    between atoms: P_32  and  C_4 
REMARK    4  A    between atoms: P_33  and  C_4 
REMARK    5  A    between atoms: C_7  and  O_20 
REMARK    6  A    between atoms: C_8  and  O_21 
REMARK    7  A    between atoms: N_12  and  C_9 
REMARK    8  A    between atoms: C_11  and  N_19 
REMARK    9  A    between atoms: P_32  and  O_22 
REMARK   10  A    between atoms: P_32  and  O_23 
REMARK   11  A    between atoms: P_33  and  O_25 
REMARK   12  A    between atoms: P_34  and  O_27 
REMARK   13  A    between atoms: P_34  and  O_29 
REMARK   14  A    between atoms: P_33  and  O_31 
REMARK   15  A    between atoms: P_34  and  O_31 
ROOT
HETATM    1  C   UNK N   1      35.481  13.460  13.088  0.00  0.00     0.180 C 
HETATM    2  C   UNK N   1      35.243  12.154  12.350  0.00  0.00     0.182 C 
HETATM    3  C   UNK N   1      34.994  11.267  13.516  0.00  0.00     0.198 C 
HETATM    4  C   UNK N   1      36.127  11.735  14.429  0.00  0.00     0.262 C 
HETATM    5  O   UNK N   1      36.237  13.142  14.246  0.00  0.00    -0.353 OA
ENDROOT
BRANCH   1   6
HETATM    6  C   UNK N   1      36.208  14.410  12.142  0.00  0.00     0.215 C 
BRANCH   6   7
HETATM    7  O   UNK N   1      35.878  14.200  10.803  0.00  0.00    -0.294 OA
BRANCH   7   8
HETATM    8  P   UNK N   1      34.716  15.449  10.406  0.00  0.00     0.400 P 
HETATM    9  O   UNK N   1      35.203  16.769  11.073  0.00  0.00    -0.631 OA
BRANCH   8  10
HETATM   10  O   UNK N   1      33.146  15.141  11.077  0.00  0.00    -0.307 OA
HETATM   11  H   UNK N   1      32.332  15.625  11.291  0.00  0.00     0.222 HD
ENDBRANCH   8  10
BRANCH   8  12
HETATM   12  O   UNK N   1      34.648  15.847   8.706  0.00  0.00    -0.218 OA
BRANCH  12  13
HETATM   13  P   UNK N   1      33.664  14.663   7.881  0.00  0.00     0.258 P 
HETATM   14  O   UNK N   1      33.554  13.431   8.819  0.00  0.00    -0.653 OA
BRANCH  13  15
HETATM   15  C   UNK N   1      31.997  15.198   7.252  0.00  0.00     0.250 C 
BRANCH  15  16
HETATM   16  P   UNK N   1      31.471  16.753   8.127  0.00  0.00     0.247 P 
HETATM   17  O   UNK N   1      30.333  17.458   7.341  0.00  0.00    -0.653 OA
BRANCH  16  18
HETATM   18  O   UNK N   1      30.802  16.517   9.712  0.00  0.00    -0.329 OA
HETATM   19  H   UNK N   1      30.835  17.178  10.421  0.00  0.00     0.220 HD
ENDBRANCH  16  18
BRANCH  16  20
HETATM   20  O   UNK N   1      32.700  17.969   8.271  0.00  0.00    -0.329 OA
HETATM   21  H   UNK N   1      33.524  17.892   8.777  0.00  0.00     0.220 HD
ENDBRANCH  16  20
ENDBRANCH  15  16
ENDBRANCH  13  15
BRANCH  13  22
HETATM   22  O   UNK N   1      34.667  14.059   6.601  0.00  0.00    -0.328 OA
HETATM   23  H   UNK N   1      34.386  13.885   5.688  0.00  0.00     0.220 HD
ENDBRANCH  13  22
ENDBRANCH  12  13
ENDBRANCH   8  12
ENDBRANCH   7   8
ENDBRANCH   6   7
ENDBRANCH   1   6
BRANCH   2  24
HETATM   24  O   UNK N   1      34.164  12.217  11.467  0.00  0.00    -0.390 OA
HETATM   25  H   UNK N   1      33.281  11.821  11.540  0.00  0.00     0.210 HD
ENDBRANCH   2  24
BRANCH   3  26
HETATM   26  O   UNK N   1      35.074   9.912  13.185  0.00  0.00    -0.388 OA
HETATM   27  H   UNK N   1      35.737   9.209  13.267  0.00  0.00     0.210 HD
ENDBRANCH   3  26
BRANCH   4  28
HETATM   28  N   UNK N   1      35.905  11.405  15.848  0.00  0.00    -0.297 N 
HETATM   29  C   UNK N   1      35.900  10.146  16.360  0.00  0.00     0.188 A 
HETATM   30  N   UNK N   1      35.677  10.151  17.705  0.00  0.00    -0.346 N 
HETATM   31  C   UNK N   1      35.525  11.450  18.014  0.00  0.00     0.122 A 
ATOM     32  HN  UNK N   1      35.635   9.350  18.335  1.00  0.00     0.167 HD
HETATM   33  C   UNK N   1      35.260  12.050  19.237  0.00  0.00     0.131 A 
HETATM   34  C   UNK N   1      35.660  12.204  16.905  0.00  0.00     0.142 A 
HETATM   35  N   UNK N   1      35.127  13.409  19.270  0.00  0.00    -0.337 N 
HETATM   36  C   UNK N   1      35.256  14.158  18.126  0.00  0.00     0.183 A 
ATOM     37  HN  UNK N   1      34.930  13.874  20.156  1.00  0.00     0.168 HD
HETATM   38  N   UNK N   1      35.527  13.553  16.930  0.00  0.00    -0.336 N 
ATOM     39  HN  UNK N   1      35.627  14.103  16.077  1.00  0.00     0.168 HD
BRANCH  33  40
HETATM   40  N   UNK N   1      35.125  11.286  20.414  0.00  0.00    -0.383 N 
HETATM   41  H   UNK N   1      34.431  11.513  21.074  0.00  0.00     0.157 HD
HETATM   42  H   UNK N   1      35.727  10.524  20.576  0.00  0.00     0.157 HD
ENDBRANCH  33  40
ENDBRANCH   4  28
TORSDOF 15
ENDMDL
