MODEL 1
REMARK VINA RESULT:      -4.7      0.000      0.000
REMARK  7 active torsions:
REMARK  status: ('A' for Active; 'I' for Inactive)
REMARK    1  A    between atoms: C_2  and  C_4 
REMARK    2  A    between atoms: C_4  and  S_5 
REMARK    3  A    between atoms: S_5  and  C_6 
REMARK    4  A    between atoms: C_6  and  C_7 
REMARK    5  A    between atoms: C_7  and  N_8 
REMARK    6  A    between atoms: C_7  and  C_9 
REMARK    7  A    between atoms: C_9  and  O_10 
ROOT
HETATM    1  C   UNK N   1      33.888  17.251   8.984  0.00  0.00     0.182 C 
ENDROOT
BRANCH   1   2
HETATM    2  C   UNK N   1      32.563  16.482   8.817  0.00  0.00     0.110 C 
BRANCH   2   3
HETATM    3  S   UNK N   1      31.308  17.402   7.860  0.00  0.00    -0.159 SA
BRANCH   3   4
HETATM    4  C   UNK N   1      30.127  18.067   9.109  0.00  0.00     0.151 C 
BRANCH   4   5
HETATM    5  C   UNK N   1      28.644  18.135   8.879  0.00  0.00     0.132 C 
HETATM    6  C   UNK N   1      28.142  19.003   7.777  0.00  0.00     0.091 C 
HETATM    7  O   UNK N   1      27.850  17.508   9.558  0.00  0.00    -0.298 OA
ENDBRANCH   4   5
ENDBRANCH   3   4
ENDBRANCH   2   3
ENDBRANCH   1   2
BRANCH   1   8
HETATM    8  N   UNK N   1      34.608  17.017  10.224  0.00  0.00    -0.417 N 
HETATM    9  H   UNK N   1      34.586  17.716  10.967  0.00  0.00     0.150 HD
HETATM   10  H   UNK N   1      35.136  16.154  10.352  0.00  0.00     0.150 HD
ENDBRANCH   1   8
BRANCH   1  11
HETATM   11  C   UNK N   1      34.531  18.221   8.015  0.00  0.00     0.163 C 
HETATM   12  O   UNK N   1      35.090  19.228   8.411  0.00  0.00    -0.648 OA
BRANCH  11  13
HETATM   13  O   UNK N   1      34.488  17.972   6.692  0.00  0.00    -0.775 OA
HETATM   14  H   UNK N   1      35.174  18.283   6.135  0.00  0.00     0.167 HD
ENDBRANCH  11  13
ENDBRANCH   1  11
TORSDOF 7
ENDMDL
MODEL 2
REMARK VINA RESULT:      -4.7      4.397      6.165
REMARK  7 active torsions:
REMARK  status: ('A' for Active; 'I' for Inactive)
REMARK    1  A    between atoms: C_2  and  C_4 
REMARK    2  A    between atoms: C_4  and  S_5 
REMARK    3  A    between atoms: S_5  and  C_6 
REMARK    4  A    between atoms: C_6  and  C_7 
REMARK    5  A    between atoms: C_7  and  N_8 
REMARK    6  A    between atoms: C_7  and  C_9 
REMARK    7  A    between atoms: C_9  and  O_10 
ROOT
HETATM    1  C   UNK N   1      34.373  17.193   9.266  0.00  0.00     0.182 C 
ENDROOT
BRANCH   1   2
HETATM    2  C   UNK N   1      35.286  16.712  10.411  0.00  0.00     0.110 C 
BRANCH   2   3
HETATM    3  S   UNK N   1      34.786  15.098  11.106  0.00  0.00    -0.159 SA
BRANCH   3   4
HETATM    4  C   UNK N   1      35.964  14.771  12.486  0.00  0.00     0.151 C 
BRANCH   4   5
HETATM    5  C   UNK N   1      35.648  13.850  13.630  0.00  0.00     0.132 C 
HETATM    6  C   UNK N   1      36.620  13.769  14.756  0.00  0.00     0.091 C 
HETATM    7  O   UNK N   1      34.634  13.176  13.663  0.00  0.00    -0.298 OA
ENDBRANCH   4   5
ENDBRANCH   3   4
ENDBRANCH   2   3
ENDBRANCH   1   2
BRANCH   1   8
HETATM    8  N   UNK N   1      33.065  16.564   9.190  0.00  0.00    -0.417 N 
HETATM    9  H   UNK N   1      32.520  16.414  10.040  0.00  0.00     0.150 HD
HETATM   10  H   UNK N   1      32.690  16.273   8.287  0.00  0.00     0.150 HD
ENDBRANCH   1   8
BRANCH   1  11
HETATM   11  C   UNK N   1      34.671  18.238   8.212  0.00  0.00     0.163 C 
HETATM   12  O   UNK N   1      35.155  19.315   8.514  0.00  0.00    -0.648 OA
BRANCH  11  13
HETATM   13  O   UNK N   1      34.398  17.980   6.919  0.00  0.00    -0.775 OA
HETATM   14  H   UNK N   1      35.067  18.082   6.271  0.00  0.00     0.167 HD
ENDBRANCH  11  13
ENDBRANCH   1  11
TORSDOF 7
ENDMDL
MODEL 3
REMARK VINA RESULT:      -4.6      3.485      4.233
REMARK  7 active torsions:
REMARK  status: ('A' for Active; 'I' for Inactive)
REMARK    1  A    between atoms: C_2  and  C_4 
REMARK    2  A    between atoms: C_4  and  S_5 
REMARK    3  A    between atoms: S_5  and  C_6 
REMARK    4  A    between atoms: C_6  and  C_7 
REMARK    5  A    between atoms: C_7  and  N_8 
REMARK    6  A    between atoms: C_7  and  C_9 
REMARK    7  A    between atoms: C_9  and  O_10 
ROOT
HETATM    1  C   UNK N   1      34.636  15.401  10.023  0.00  0.00     0.182 C 
ENDROOT
BRANCH   1   2
HETATM    2  C   UNK N   1      34.482  14.672   8.673  0.00  0.00     0.110 C 
BRANCH   2   3
HETATM    3  S   UNK N   1      32.862  14.957   7.878  0.00  0.00    -0.159 SA
BRANCH   3   4
HETATM    4  C   UNK N   1      32.742  16.782   7.647  0.00  0.00     0.151 C 
BRANCH   4   5
HETATM    5  C   UNK N   1      33.624  17.547   6.701  0.00  0.00     0.132 C 
HETATM    6  C   UNK N   1      33.313  17.488   5.246  0.00  0.00     0.091 C 
HETATM    7  O   UNK N   1      34.574  18.206   7.085  0.00  0.00    -0.298 OA
ENDBRANCH   4   5
ENDBRANCH   3   4
ENDBRANCH   2   3
ENDBRANCH   1   2
BRANCH   1   8
HETATM    8  N   UNK N   1      33.673  15.045  11.051  0.00  0.00    -0.417 N 
HETATM    9  H   UNK N   1      33.071  15.763  11.457  0.00  0.00     0.150 HD
HETATM   10  H   UNK N   1      33.598  14.079  11.368  0.00  0.00     0.150 HD
ENDBRANCH   1   8
BRANCH   1  11
HETATM   11  C   UNK N   1      35.666  16.442  10.408  0.00  0.00     0.163 C 
HETATM   12  O   UNK N   1      35.448  17.631  10.249  0.00  0.00    -0.648 OA
BRANCH  11  13
HETATM   13  O   UNK N   1      36.843  16.055  10.934  0.00  0.00    -0.775 OA
HETATM   14  H   UNK N   1      36.867  15.365  11.568  0.00  0.00     0.167 HD
ENDBRANCH  11  13
ENDBRANCH   1  11
TORSDOF 7
ENDMDL
MODEL 4
REMARK VINA RESULT:      -4.5      1.930      2.167
REMARK  7 active torsions:
REMARK  status: ('A' for Active; 'I' for Inactive)
REMARK    1  A    between atoms: C_2  and  C_4 
REMARK    2  A    between atoms: C_4  and  S_5 
REMARK    3  A    between atoms: S_5  and  C_6 
REMARK    4  A    between atoms: C_6  and  C_7 
REMARK    5  A    between atoms: C_7  and  N_8 
REMARK    6  A    between atoms: C_7  and  C_9 
REMARK    7  A    between atoms: C_9  and  O_10 
ROOT
HETATM    1  C   UNK N   1      34.644  16.999   9.098  0.00  0.00     0.182 C 
ENDROOT
BRANCH   1   2
HETATM    2  C   UNK N   1      34.217  15.566   8.727  0.00  0.00     0.110 C 
BRANCH   2   3
HETATM    3  S   UNK N   1      32.445  15.238   9.031  0.00  0.00    -0.159 SA
BRANCH   3   4
HETATM    4  C   UNK N   1      31.563  15.887   7.548  0.00  0.00     0.151 C 
BRANCH   4   5
HETATM    5  C   UNK N   1      30.800  17.181   7.550  0.00  0.00     0.132 C 
HETATM    6  C   UNK N   1      30.996  18.111   8.697  0.00  0.00     0.091 C 
HETATM    7  O   UNK N   1      30.035  17.488   6.653  0.00  0.00    -0.298 OA
ENDBRANCH   4   5
ENDBRANCH   3   4
ENDBRANCH   2   3
ENDBRANCH   1   2
BRANCH   1   8
HETATM    8  N   UNK N   1      34.982  17.221  10.494  0.00  0.00    -0.417 N 
HETATM    9  H   UNK N   1      34.378  16.851  11.230  0.00  0.00     0.150 HD
HETATM   10  H   UNK N   1      35.821  17.746  10.739  0.00  0.00     0.150 HD
ENDBRANCH   1   8
BRANCH   1  11
HETATM   11  C   UNK N   1      34.756  18.204   8.188  0.00  0.00     0.163 C 
HETATM   12  O   UNK N   1      35.262  19.242   8.578  0.00  0.00    -0.648 OA
BRANCH  11  13
HETATM   13  O   UNK N   1      34.292  18.134   6.926  0.00  0.00    -0.775 OA
HETATM   14  H   UNK N   1      33.440  18.466   6.722  0.00  0.00     0.167 HD
ENDBRANCH  11  13
ENDBRANCH   1  11
TORSDOF 7
ENDMDL
MODEL 5
REMARK VINA RESULT:      -4.4     10.214     12.589
REMARK  7 active torsions:
REMARK  status: ('A' for Active; 'I' for Inactive)
REMARK    1  A    between atoms: C_2  and  C_4 
REMARK    2  A    between atoms: C_4  and  S_5 
REMARK    3  A    between atoms: S_5  and  C_6 
REMARK    4  A    between atoms: C_6  and  C_7 
REMARK    5  A    between atoms: C_7  and  N_8 
REMARK    6  A    between atoms: C_7  and  C_9 
REMARK    7  A    between atoms: C_9  and  O_10 
ROOT
HETATM    1  C   UNK N   1      20.294  19.043   2.245  0.00  0.00     0.182 C 
ENDROOT
BRANCH   1   2
HETATM    2  C   UNK N   1      21.169  18.048   3.033  0.00  0.00     0.110 C 
BRANCH   2   3
HETATM    3  S   UNK N   1      22.234  18.852   4.281  0.00  0.00    -0.159 SA
BRANCH   3   4
HETATM    4  C   UNK N   1      23.927  18.859   3.551  0.00  0.00     0.151 C 
BRANCH   4   5
HETATM    5  C   UNK N   1      24.697  20.121   3.281  0.00  0.00     0.132 C 
HETATM    6  C   UNK N   1      25.848  20.447   4.168  0.00  0.00     0.091 C 
HETATM    7  O   UNK N   1      24.410  20.875   2.368  0.00  0.00    -0.298 OA
ENDBRANCH   4   5
ENDBRANCH   3   4
ENDBRANCH   2   3
ENDBRANCH   1   2
BRANCH   1   8
HETATM    8  N   UNK N   1      18.859  18.827   2.323  0.00  0.00    -0.417 N 
HETATM    9  H   UNK N   1      18.443  18.462   3.180  0.00  0.00     0.150 HD
HETATM   10  H   UNK N   1      18.267  19.040   1.520  0.00  0.00     0.150 HD
ENDBRANCH   1   8
BRANCH   1  11
HETATM   11  C   UNK N   1      20.745  20.216   1.402  0.00  0.00     0.163 C 
HETATM   12  O   UNK N   1      21.163  21.238   1.918  0.00  0.00    -0.648 OA
BRANCH  11  13
HETATM   13  O   UNK N   1      20.686  20.136   0.059  0.00  0.00    -0.775 OA
HETATM   14  H   UNK N   1      19.901  20.381  -0.390  0.00  0.00     0.167 HD
ENDBRANCH  11  13
ENDBRANCH   1  11
TORSDOF 7
ENDMDL
MODEL 6
REMARK VINA RESULT:      -4.4     12.863     13.710
REMARK  7 active torsions:
REMARK  status: ('A' for Active; 'I' for Inactive)
REMARK    1  A    between atoms: C_2  and  C_4 
REMARK    2  A    between atoms: C_4  and  S_5 
REMARK    3  A    between atoms: S_5  and  C_6 
REMARK    4  A    between atoms: C_6  and  C_7 
REMARK    5  A    between atoms: C_7  and  N_8 
REMARK    6  A    between atoms: C_7  and  C_9 
REMARK    7  A    between atoms: C_9  and  O_10 
ROOT
HETATM    1  C   UNK N   1      20.481  19.314   2.441  0.00  0.00     0.182 C 
ENDROOT
BRANCH   1   2
HETATM    2  C   UNK N   1      21.168  18.115   3.124  0.00  0.00     0.110 C 
BRANCH   2   3
HETATM    3  S   UNK N   1      19.989  16.872   3.760  0.00  0.00    -0.159 SA
BRANCH   3   4
HETATM    4  C   UNK N   1      20.014  15.498   2.532  0.00  0.00     0.151 C 
BRANCH   4   5
HETATM    5  C   UNK N   1      20.445  15.683   1.105  0.00  0.00     0.132 C 
HETATM    6  C   UNK N   1      19.545  16.439   0.190  0.00  0.00     0.091 C 
HETATM    7  O   UNK N   1      21.497  15.239   0.679  0.00  0.00    -0.298 OA
ENDBRANCH   4   5
ENDBRANCH   3   4
ENDBRANCH   2   3
ENDBRANCH   1   2
BRANCH   1   8
HETATM    8  N   UNK N   1      19.030  19.266   2.382  0.00  0.00    -0.417 N 
HETATM    9  H   UNK N   1      18.559  18.411   2.081  0.00  0.00     0.150 HD
HETATM   10  H   UNK N   1      18.480  20.086   2.640  0.00  0.00     0.150 HD
ENDBRANCH   1   8
BRANCH   1  11
HETATM   11  C   UNK N   1      21.131  20.535   1.827  0.00  0.00     0.163 C 
HETATM   12  O   UNK N   1      21.308  20.615   0.623  0.00  0.00    -0.648 OA
BRANCH  11  13
HETATM   13  O   UNK N   1      21.523  21.553   2.616  0.00  0.00    -0.775 OA
HETATM   14  H   UNK N   1      21.236  21.592   3.507  0.00  0.00     0.167 HD
ENDBRANCH  11  13
ENDBRANCH   1  11
TORSDOF 7
ENDMDL
MODEL 7
REMARK VINA RESULT:      -4.4      3.937      4.967
REMARK  7 active torsions:
REMARK  status: ('A' for Active; 'I' for Inactive)
REMARK    1  A    between atoms: C_2  and  C_4 
REMARK    2  A    between atoms: C_4  and  S_5 
REMARK    3  A    between atoms: S_5  and  C_6 
REMARK    4  A    between atoms: C_6  and  C_7 
REMARK    5  A    between atoms: C_7  and  N_8 
REMARK    6  A    between atoms: C_7  and  C_9 
REMARK    7  A    between atoms: C_9  and  O_10 
ROOT
HETATM    1  C   UNK N   1      34.110  17.249   9.081  0.00  0.00     0.182 C 
ENDROOT
BRANCH   1   2
HETATM    2  C   UNK N   1      34.911  16.356  10.050  0.00  0.00     0.110 C 
BRANCH   2   3
HETATM    3  S   UNK N   1      34.868  14.585   9.602  0.00  0.00    -0.159 SA
BRANCH   3   4
HETATM    4  C   UNK N   1      35.728  14.467   7.976  0.00  0.00     0.151 C 
BRANCH   4   5
HETATM    5  C   UNK N   1      35.077  14.846   6.676  0.00  0.00     0.132 C 
HETATM    6  C   UNK N   1      33.705  14.335   6.402  0.00  0.00     0.091 C 
HETATM    7  O   UNK N   1      35.631  15.550   5.851  0.00  0.00    -0.298 OA
ENDBRANCH   4   5
ENDBRANCH   3   4
ENDBRANCH   2   3
ENDBRANCH   1   2
BRANCH   1   8
HETATM    8  N   UNK N   1      32.669  17.061   9.086  0.00  0.00    -0.417 N 
HETATM    9  H   UNK N   1      32.105  17.419   8.315  0.00  0.00     0.150 HD
HETATM   10  H   UNK N   1      32.221  16.571   9.861  0.00  0.00     0.150 HD
ENDBRANCH   1   8
BRANCH   1  11
HETATM   11  C   UNK N   1      34.640  18.298   8.127  0.00  0.00     0.163 C 
HETATM   12  O   UNK N   1      35.288  19.248   8.532  0.00  0.00    -0.648 OA
BRANCH  11  13
HETATM   13  O   UNK N   1      34.396  18.186   6.808  0.00  0.00    -0.775 OA
HETATM   14  H   UNK N   1      34.407  18.948   6.263  0.00  0.00     0.167 HD
ENDBRANCH  11  13
ENDBRANCH   1  11
TORSDOF 7
ENDMDL
MODEL 8
REMARK VINA RESULT:      -4.3      3.503      4.301
REMARK  7 active torsions:
REMARK  status: ('A' for Active; 'I' for Inactive)
REMARK    1  A    between atoms: C_2  and  C_4 
REMARK    2  A    between atoms: C_4  and  S_5 
REMARK    3  A    between atoms: S_5  and  C_6 
REMARK    4  A    between atoms: C_6  and  C_7 
REMARK    5  A    between atoms: C_7  and  N_8 
REMARK    6  A    between atoms: C_7  and  C_9 
REMARK    7  A    between atoms: C_9  and  O_10 
ROOT
HETATM    1  C   UNK N   1      34.585  15.243  10.678  0.00  0.00     0.182 C 
ENDROOT
BRANCH   1   2
HETATM    2  C   UNK N   1      33.430  15.020   9.681  0.00  0.00     0.110 C 
BRANCH   2   3
HETATM    3  S   UNK N   1      34.001  14.637   7.988  0.00  0.00    -0.159 SA
BRANCH   3   4
HETATM    4  C   UNK N   1      33.362  16.006   6.933  0.00  0.00     0.151 C 
BRANCH   4   5
HETATM    5  C   UNK N   1      33.598  17.457   7.243  0.00  0.00     0.132 C 
HETATM    6  C   UNK N   1      32.647  18.144   8.160  0.00  0.00     0.091 C 
HETATM    7  O   UNK N   1      34.533  18.080   6.771  0.00  0.00    -0.298 OA
ENDBRANCH   4   5
ENDBRANCH   3   4
ENDBRANCH   2   3
ENDBRANCH   1   2
BRANCH   1   8
HETATM    8  N   UNK N   1      34.647  14.317  11.796  0.00  0.00    -0.417 N 
HETATM    9  H   UNK N   1      34.630  14.671  12.754  0.00  0.00     0.150 HD
HETATM   10  H   UNK N   1      34.709  13.314  11.626  0.00  0.00     0.150 HD
ENDBRANCH   1   8
BRANCH   1  11
HETATM   11  C   UNK N   1      35.660  16.308  10.635  0.00  0.00     0.163 C 
HETATM   12  O   UNK N   1      35.397  17.456  10.321  0.00  0.00    -0.648 OA
BRANCH  11  13
HETATM   13  O   UNK N   1      36.930  15.988  10.948  0.00  0.00    -0.775 OA
HETATM   14  H   UNK N   1      37.496  16.635  11.321  0.00  0.00     0.167 HD
ENDBRANCH  11  13
ENDBRANCH   1  11
TORSDOF 7
ENDMDL
MODEL 9
REMARK VINA RESULT:      -4.2      5.223      6.839
REMARK  7 active torsions:
REMARK  status: ('A' for Active; 'I' for Inactive)
REMARK    1  A    between atoms: C_2  and  C_4 
REMARK    2  A    between atoms: C_4  and  S_5 
REMARK    3  A    between atoms: S_5  and  C_6 
REMARK    4  A    between atoms: C_6  and  C_7 
REMARK    5  A    between atoms: C_7  and  N_8 
REMARK    6  A    between atoms: C_7  and  C_9 
REMARK    7  A    between atoms: C_9  and  O_10 
ROOT
HETATM    1  C   UNK N   1      34.791  15.096  10.217  0.00  0.00     0.182 C 
ENDROOT
BRANCH   1   2
HETATM    2  C   UNK N   1      35.080  13.849   9.358  0.00  0.00     0.110 C 
BRANCH   2   3
HETATM    3  S   UNK N   1      35.092  12.295  10.320  0.00  0.00    -0.159 SA
BRANCH   3   4
HETATM    4  C   UNK N   1      36.225  12.605  11.740  0.00  0.00     0.151 C 
BRANCH   4   5
HETATM    5  C   UNK N   1      35.739  13.018  13.100  0.00  0.00     0.132 C 
HETATM    6  C   UNK N   1      36.661  12.851  14.258  0.00  0.00     0.091 C 
HETATM    7  O   UNK N   1      34.626  13.480  13.282  0.00  0.00    -0.298 OA
ENDBRANCH   4   5
ENDBRANCH   3   4
ENDBRANCH   2   3
ENDBRANCH   1   2
BRANCH   1   8
HETATM    8  N   UNK N   1      33.493  15.131  10.870  0.00  0.00    -0.417 N 
HETATM    9  H   UNK N   1      33.259  15.900  11.498  0.00  0.00     0.150 HD
HETATM   10  H   UNK N   1      32.816  14.387  10.701  0.00  0.00     0.150 HD
ENDBRANCH   1   8
BRANCH   1  11
HETATM   11  C   UNK N   1      35.691  16.287  10.463  0.00  0.00     0.163 C 
HETATM   12  O   UNK N   1      35.332  17.417  10.179  0.00  0.00    -0.648 OA
BRANCH  11  13
HETATM   13  O   UNK N   1      36.910  16.103  11.005  0.00  0.00    -0.775 OA
HETATM   14  H   UNK N   1      37.492  16.831  11.105  0.00  0.00     0.167 HD
ENDBRANCH  11  13
ENDBRANCH   1  11
TORSDOF 7
ENDMDL
