MODEL 1
REMARK VINA RESULT:      -6.2      0.000      0.000
REMARK  6 active torsions:
REMARK  status: ('A' for Active; 'I' for Inactive)
REMARK    1  A    between atoms: C_4  and  C_2 
REMARK    2  A    between atoms: O_19  and  C_2 
REMARK    3  A    between atoms: C_10  and  C_6 
REMARK    4  A    between atoms: C_8  and  O_20 
REMARK    5  A    between atoms: C_9  and  O_21 
REMARK    6  A    between atoms: N_12  and  C_11 
ROOT
HETATM    1  C   UNK N   1      29.546  15.074   4.948  0.00  0.00     0.158 C 
HETATM    2  C   UNK N   1      31.522  14.461   6.227  0.00  0.00     0.184 A 
HETATM    3  C   UNK N   1      32.447  15.900   7.813  0.00  0.00     0.092 A 
HETATM    4  C   UNK N   1      33.283  16.444   8.755  0.00  0.00     0.086 A 
HETATM    5  C   UNK N   1      31.500  16.828   7.571  0.00  0.00     0.120 A 
HETATM    6  C   UNK N   1      30.513  16.587   6.629  0.00  0.00     0.132 A 
HETATM    7  N   UNK N   1      32.489  14.715   7.162  0.00  0.00    -0.349 N 
HETATM    8  N   UNK N   1      32.825  17.687   9.050  0.00  0.00    -0.299 N 
ATOM      9  HN  UNK N   1      33.252  18.338   9.710  1.00  0.00     0.186 HD
HETATM   10  N   UNK N   1      31.724  17.916   8.333  0.00  0.00    -0.295 N 
ATOM     11  HN  UNK N   1      31.154  18.761   8.358  1.00  0.00     0.187 HD
HETATM   12  N   UNK N   1      30.542  15.386   5.960  0.00  0.00    -0.332 N 
HETATM   13  H   UNK N   1      33.194  14.056   7.354  0.00  0.00     0.167 HD
ENDROOT
BRANCH   4  14
HETATM   14  C   UNK N   1      34.543  15.831   9.301  0.00  0.00     0.207 C 
HETATM   15  C   UNK N   1      35.070  16.507  10.546  0.00  0.00     0.184 C 
HETATM   16  C   UNK N   1      36.033  15.460  11.072  0.00  0.00     0.180 C 
HETATM   17  C   UNK N   1      35.478  14.167  10.441  0.00  0.00     0.177 C 
HETATM   18  O   UNK N   1      34.319  14.502   9.707  0.00  0.00    -0.367 OA
BRANCH  15  19
HETATM   19  O   UNK N   1      35.680  17.741  10.289  0.00  0.00    -0.390 OA
HETATM   20  H   UNK N   1      36.638  17.880  10.345  0.00  0.00     0.210 HD
ENDBRANCH  15  19
BRANCH  16  21
HETATM   21  O   UNK N   1      37.333  15.677  10.604  0.00  0.00    -0.390 OA
HETATM   22  H   UNK N   1      37.844  16.144   9.925  0.00  0.00     0.210 HD
ENDBRANCH  16  21
BRANCH  17  23
HETATM   23  C   UNK N   1      35.181  13.089  11.473  0.00  0.00     0.198 C 
BRANCH  23  24
HETATM   24  O   UNK N   1      34.405  13.622  12.506  0.00  0.00    -0.398 OA
HETATM   25  H   UNK N   1      34.803  14.175  13.196  0.00  0.00     0.209 HD
ENDBRANCH  23  24
ENDBRANCH  17  23
ENDBRANCH   4  14
BRANCH   6  26
HETATM   26  N   UNK N   1      29.519  17.554   6.357  0.00  0.00    -0.383 N 
HETATM   27  H   UNK N   1      29.351  18.294   6.984  0.00  0.00     0.157 HD
HETATM   28  H   UNK N   1      28.988  17.487   5.531  0.00  0.00     0.157 HD
ENDBRANCH   6  26
TORSDOF 6
ENDMDL
MODEL 2
REMARK VINA RESULT:      -6.1      7.729     10.403
REMARK  6 active torsions:
REMARK  status: ('A' for Active; 'I' for Inactive)
REMARK    1  A    between atoms: C_4  and  C_2 
REMARK    2  A    between atoms: O_19  and  C_2 
REMARK    3  A    between atoms: C_10  and  C_6 
REMARK    4  A    between atoms: C_8  and  O_20 
REMARK    5  A    between atoms: C_9  and  O_21 
REMARK    6  A    between atoms: N_12  and  C_11 
ROOT
HETATM    1  C   UNK N   1      34.664   8.351  19.824  0.00  0.00     0.158 C 
HETATM    2  C   UNK N   1      34.939   9.578  17.742  0.00  0.00     0.184 A 
HETATM    3  C   UNK N   1      35.237  11.892  17.716  0.00  0.00     0.092 A 
HETATM    4  C   UNK N   1      35.385  13.185  17.287  0.00  0.00     0.086 A 
HETATM    5  C   UNK N   1      35.174  11.946  19.062  0.00  0.00     0.120 A 
HETATM    6  C   UNK N   1      34.990  10.788  19.799  0.00  0.00     0.132 A 
HETATM    7  N   UNK N   1      35.122  10.731  17.029  0.00  0.00    -0.349 N 
HETATM    8  N   UNK N   1      35.400  13.988  18.381  0.00  0.00    -0.299 N 
ATOM      9  HN  UNK N   1      35.485  15.005  18.373  1.00  0.00     0.186 HD
HETATM   10  N   UNK N   1      35.284  13.226  19.469  0.00  0.00    -0.295 N 
ATOM     11  HN  UNK N   1      35.278  13.552  20.436  1.00  0.00     0.187 HD
HETATM   12  N   UNK N   1      34.872   9.602  19.114  0.00  0.00    -0.332 N 
HETATM   13  H   UNK N   1      35.167  10.718  16.046  0.00  0.00     0.167 HD
ENDROOT
BRANCH   4  14
HETATM   14  C   UNK N   1      35.425  13.661  15.861  0.00  0.00     0.207 C 
HETATM   15  C   UNK N   1      36.803  13.635  15.239  0.00  0.00     0.184 C 
HETATM   16  C   UNK N   1      36.469  13.743  13.764  0.00  0.00     0.180 C 
HETATM   17  C   UNK N   1      35.023  13.210  13.721  0.00  0.00     0.177 C 
HETATM   18  O   UNK N   1      34.664  12.818  15.029  0.00  0.00    -0.367 OA
BRANCH  15  19
HETATM   19  O   UNK N   1      37.635  14.664  15.695  0.00  0.00    -0.390 OA
HETATM   20  H   UNK N   1      37.901  15.415  15.142  0.00  0.00     0.210 HD
ENDBRANCH  15  19
BRANCH  16  21
HETATM   21  O   UNK N   1      36.479  15.073  13.331  0.00  0.00    -0.390 OA
HETATM   22  H   UNK N   1      36.749  15.648  12.598  0.00  0.00     0.210 HD
ENDBRANCH  16  21
BRANCH  17  23
HETATM   23  C   UNK N   1      34.847  12.063  12.737  0.00  0.00     0.198 C 
BRANCH  23  24
HETATM   24  O   UNK N   1      34.497  12.565  11.481  0.00  0.00    -0.398 OA
HETATM   25  H   UNK N   1      34.771  12.114  10.668  0.00  0.00     0.209 HD
ENDBRANCH  23  24
ENDBRANCH  17  23
ENDBRANCH   4  14
BRANCH   6  26
HETATM   26  N   UNK N   1      34.913  10.832  21.209  0.00  0.00    -0.383 N 
HETATM   27  H   UNK N   1      34.288  10.249  21.697  0.00  0.00     0.157 HD
HETATM   28  H   UNK N   1      35.491  11.452  21.710  0.00  0.00     0.157 HD
ENDBRANCH   6  26
TORSDOF 6
ENDMDL
MODEL 3
REMARK VINA RESULT:      -6.0      4.496      7.180
REMARK  6 active torsions:
REMARK  status: ('A' for Active; 'I' for Inactive)
REMARK    1  A    between atoms: C_4  and  C_2 
REMARK    2  A    between atoms: O_19  and  C_2 
REMARK    3  A    between atoms: C_10  and  C_6 
REMARK    4  A    between atoms: C_8  and  O_20 
REMARK    5  A    between atoms: C_9  and  O_21 
REMARK    6  A    between atoms: N_12  and  C_11 
ROOT
HETATM    1  C   UNK N   1      35.224   8.970  14.463  0.00  0.00     0.158 C 
HETATM    2  C   UNK N   1      34.460  10.712  12.947  0.00  0.00     0.184 A 
HETATM    3  C   UNK N   1      35.441  12.828  12.921  0.00  0.00     0.092 A 
HETATM    4  C   UNK N   1      35.704  14.143  12.635  0.00  0.00     0.086 A 
HETATM    5  C   UNK N   1      36.305  12.474  13.894  0.00  0.00     0.120 A 
HETATM    6  C   UNK N   1      36.268  11.196  14.428  0.00  0.00     0.132 A 
HETATM    7  N   UNK N   1      34.511  11.977  12.429  0.00  0.00    -0.349 N 
HETATM    8  N   UNK N   1      36.712  14.553  13.447  0.00  0.00    -0.299 N 
ATOM      9  HN  UNK N   1      37.115  15.489  13.471  1.00  0.00     0.186 HD
HETATM   10  N   UNK N   1      37.088  13.524  14.209  0.00  0.00    -0.295 N 
ATOM     11  HN  UNK N   1      37.834  13.531  14.905  1.00  0.00     0.187 HD
HETATM   12  N   UNK N   1      35.328  10.322  13.938  0.00  0.00    -0.332 N 
HETATM   13  H   UNK N   1      33.889  12.261  11.722  0.00  0.00     0.167 HD
ENDROOT
BRANCH   4  14
HETATM   14  C   UNK N   1      34.956  15.022  11.671  0.00  0.00     0.207 C 
HETATM   15  C   UNK N   1      35.788  15.514  10.509  0.00  0.00     0.184 C 
HETATM   16  C   UNK N   1      34.713  15.978   9.545  0.00  0.00     0.180 C 
HETATM   17  C   UNK N   1      33.493  15.154  10.003  0.00  0.00     0.177 C 
HETATM   18  O   UNK N   1      33.905  14.312  11.058  0.00  0.00    -0.367 OA
BRANCH  15  19
HETATM   19  O   UNK N   1      36.689  16.524  10.863  0.00  0.00    -0.390 OA
HETATM   20  H   UNK N   1      36.682  17.405  10.459  0.00  0.00     0.210 HD
ENDBRANCH  15  19
BRANCH  16  21
HETATM   21  O   UNK N   1      34.433  17.339   9.707  0.00  0.00    -0.390 OA
HETATM   22  H   UNK N   1      33.860  18.055   9.391  0.00  0.00     0.210 HD
ENDBRANCH  16  21
BRANCH  17  23
HETATM   23  C   UNK N   1      32.869  14.350   8.872  0.00  0.00     0.198 C 
BRANCH  23  24
HETATM   24  O   UNK N   1      32.262  13.201   9.386  0.00  0.00    -0.398 OA
HETATM   25  H   UNK N   1      31.323  13.018   9.228  0.00  0.00     0.209 HD
ENDBRANCH  23  24
ENDBRANCH  17  23
ENDBRANCH   4  14
BRANCH   6  26
HETATM   26  N   UNK N   1      37.160  10.815  15.455  0.00  0.00    -0.383 N 
HETATM   27  H   UNK N   1      37.023   9.979  15.957  0.00  0.00     0.157 HD
HETATM   28  H   UNK N   1      37.928  11.391  15.672  0.00  0.00     0.157 HD
ENDBRANCH   6  26
TORSDOF 6
ENDMDL
MODEL 4
REMARK VINA RESULT:      -5.9      2.235      3.515
REMARK  6 active torsions:
REMARK  status: ('A' for Active; 'I' for Inactive)
REMARK    1  A    between atoms: C_4  and  C_2 
REMARK    2  A    between atoms: O_19  and  C_2 
REMARK    3  A    between atoms: C_10  and  C_6 
REMARK    4  A    between atoms: C_8  and  O_20 
REMARK    5  A    between atoms: C_9  and  O_21 
REMARK    6  A    between atoms: N_12  and  C_11 
ROOT
HETATM    1  C   UNK N   1      31.556  15.673   7.187  0.00  0.00     0.158 C 
HETATM    2  C   UNK N   1      32.734  14.228   8.750  0.00  0.00     0.184 A 
HETATM    3  C   UNK N   1      34.308  15.075  10.249  0.00  0.00     0.092 A 
HETATM    4  C   UNK N   1      35.283  15.162  11.210  0.00  0.00     0.086 A 
HETATM    5  C   UNK N   1      34.118  16.328   9.791  0.00  0.00     0.120 A 
HETATM    6  C   UNK N   1      33.205  16.568   8.776  0.00  0.00     0.132 A 
HETATM    7  N   UNK N   1      33.638  14.008   9.753  0.00  0.00    -0.349 N 
HETATM    8  N   UNK N   1      35.663  16.462  11.301  0.00  0.00    -0.299 N 
ATOM      9  HN  UNK N   1      36.382  16.830  11.923  1.00  0.00     0.186 HD
HETATM   10  N   UNK N   1      34.938  17.178  10.439  0.00  0.00    -0.295 N 
ATOM     11  HN  UNK N   1      34.994  18.186  10.297  1.00  0.00     0.187 HD
HETATM   12  N   UNK N   1      32.517  15.494   8.263  0.00  0.00    -0.332 N 
HETATM   13  H   UNK N   1      33.798  13.103  10.102  0.00  0.00     0.167 HD
ENDROOT
BRANCH   4  14
HETATM   14  C   UNK N   1      35.906  14.021  11.966  0.00  0.00     0.207 C 
HETATM   15  C   UNK N   1      35.880  14.188  13.469  0.00  0.00     0.184 C 
HETATM   16  C   UNK N   1      36.161  12.773  13.934  0.00  0.00     0.180 C 
HETATM   17  C   UNK N   1      35.706  11.939  12.719  0.00  0.00     0.177 C 
HETATM   18  O   UNK N   1      35.194  12.826  11.747  0.00  0.00    -0.367 OA
BRANCH  15  19
HETATM   19  O   UNK N   1      36.812  15.121  13.937  0.00  0.00    -0.390 OA
HETATM   20  H   UNK N   1      36.609  15.771  14.627  0.00  0.00     0.210 HD
ENDBRANCH  15  19
BRANCH  16  21
HETATM   21  O   UNK N   1      37.527  12.564  14.146  0.00  0.00    -0.390 OA
HETATM   22  H   UNK N   1      38.398  12.643  13.726  0.00  0.00     0.210 HD
ENDBRANCH  16  21
BRANCH  17  23
HETATM   23  C   UNK N   1      34.680  10.876  13.085  0.00  0.00     0.198 C 
BRANCH  23  24
HETATM   24  O   UNK N   1      33.745  10.745  12.055  0.00  0.00    -0.398 OA
HETATM   25  H   UNK N   1      32.838  11.072  12.158  0.00  0.00     0.209 HD
ENDBRANCH  23  24
ENDBRANCH  17  23
ENDBRANCH   4  14
BRANCH   6  26
HETATM   26  N   UNK N   1      33.003  17.875   8.279  0.00  0.00    -0.383 N 
HETATM   27  H   UNK N   1      33.727  18.541   8.305  0.00  0.00     0.157 HD
HETATM   28  H   UNK N   1      32.128  18.122   7.902  0.00  0.00     0.157 HD
ENDBRANCH   6  26
TORSDOF 6
ENDMDL
MODEL 5
REMARK VINA RESULT:      -5.8      4.011      6.201
REMARK  6 active torsions:
REMARK  status: ('A' for Active; 'I' for Inactive)
REMARK    1  A    between atoms: C_4  and  C_2 
REMARK    2  A    between atoms: O_19  and  C_2 
REMARK    3  A    between atoms: C_10  and  C_6 
REMARK    4  A    between atoms: C_8  and  O_20 
REMARK    5  A    between atoms: C_9  and  O_21 
REMARK    6  A    between atoms: N_12  and  C_11 
ROOT
HETATM    1  C   UNK N   1      34.579  14.367   4.226  0.00  0.00     0.158 C 
HETATM    2  C   UNK N   1      32.405  15.264   4.848  0.00  0.00     0.184 A 
HETATM    3  C   UNK N   1      32.035  16.229   6.940  0.00  0.00     0.092 A 
HETATM    4  C   UNK N   1      31.423  16.806   8.023  0.00  0.00     0.086 A 
HETATM    5  C   UNK N   1      33.314  16.007   7.304  0.00  0.00     0.120 A 
HETATM    6  C   UNK N   1      34.193  15.395   6.425  0.00  0.00     0.132 A 
HETATM    7  N   UNK N   1      31.551  15.870   5.728  0.00  0.00    -0.349 N 
HETATM    8  N   UNK N   1      32.343  16.911   9.015  0.00  0.00    -0.299 N 
ATOM      9  HN  UNK N   1      32.175  17.291   9.946  1.00  0.00     0.186 HD
HETATM   10  N   UNK N   1      33.506  16.433   8.568  0.00  0.00    -0.295 N 
ATOM     11  HN  UNK N   1      34.382  16.395   9.089  1.00  0.00     0.187 HD
HETATM   12  N   UNK N   1      33.715  15.026   5.191  0.00  0.00    -0.332 N 
HETATM   13  H   UNK N   1      30.612  16.040   5.487  0.00  0.00     0.167 HD
ENDROOT
BRANCH   4  14
HETATM   14  C   UNK N   1      29.969  17.173   8.145  0.00  0.00     0.207 C 
HETATM   15  C   UNK N   1      29.722  18.494   8.837  0.00  0.00     0.184 C 
HETATM   16  C   UNK N   1      28.286  18.777   8.440  0.00  0.00     0.180 C 
HETATM   17  C   UNK N   1      28.140  17.948   7.147  0.00  0.00     0.177 C 
HETATM   18  O   UNK N   1      29.386  17.342   6.875  0.00  0.00    -0.367 OA
BRANCH  15  19
HETATM   19  O   UNK N   1      29.912  18.438  10.222  0.00  0.00    -0.390 OA
HETATM   20  H   UNK N   1      30.276  19.175  10.737  0.00  0.00     0.210 HD
ENDBRANCH  15  19
BRANCH  16  21
HETATM   21  O   UNK N   1      27.385  18.296   9.395  0.00  0.00    -0.390 OA
HETATM   22  H   UNK N   1      26.459  18.341   9.680  0.00  0.00     0.210 HD
ENDBRANCH  16  21
BRANCH  17  23
HETATM   23  C   UNK N   1      27.665  18.780   5.965  0.00  0.00     0.198 C 
BRANCH  23  24
HETATM   24  O   UNK N   1      26.582  19.575   6.350  0.00  0.00    -0.398 OA
HETATM   25  H   UNK N   1      25.801  19.186   6.772  0.00  0.00     0.209 HD
ENDBRANCH  23  24
ENDBRANCH  17  23
ENDBRANCH   4  14
BRANCH   6  26
HETATM   26  N   UNK N   1      35.533  15.148   6.797  0.00  0.00    -0.383 N 
HETATM   27  H   UNK N   1      36.133  14.636   6.208  0.00  0.00     0.157 HD
HETATM   28  H   UNK N   1      35.872  15.491   7.656  0.00  0.00     0.157 HD
ENDBRANCH   6  26
TORSDOF 6
ENDMDL
MODEL 6
REMARK VINA RESULT:      -5.7      2.033      2.105
REMARK  6 active torsions:
REMARK  status: ('A' for Active; 'I' for Inactive)
REMARK    1  A    between atoms: C_4  and  C_2 
REMARK    2  A    between atoms: O_19  and  C_2 
REMARK    3  A    between atoms: C_10  and  C_6 
REMARK    4  A    between atoms: C_8  and  O_20 
REMARK    5  A    between atoms: C_9  and  O_21 
REMARK    6  A    between atoms: N_12  and  C_11 
ROOT
HETATM    1  C   UNK N   1      31.964  13.828   2.960  0.00  0.00     0.158 C 
HETATM    2  C   UNK N   1      33.213  13.633   5.038  0.00  0.00     0.184 A 
HETATM    3  C   UNK N   1      33.769  15.508   6.310  0.00  0.00     0.092 A 
HETATM    4  C   UNK N   1      34.305  16.319   7.278  0.00  0.00     0.086 A 
HETATM    5  C   UNK N   1      33.157  16.326   5.431  0.00  0.00     0.120 A 
HETATM    6  C   UNK N   1      32.539  15.804   4.306  0.00  0.00     0.132 A 
HETATM    7  N   UNK N   1      33.817  14.166   6.144  0.00  0.00    -0.349 N 
HETATM    8  N   UNK N   1      34.011  17.604   6.954  0.00  0.00    -0.299 N 
ATOM      9  HN  UNK N   1      34.291  18.430   7.483  1.00  0.00     0.186 HD
HETATM   10  N   UNK N   1      33.295  17.606   5.829  0.00  0.00    -0.295 N 
ATOM     11  HN  UNK N   1      32.921  18.427   5.354  1.00  0.00     0.187 HD
HETATM   12  N   UNK N   1      32.579  14.441   4.125  0.00  0.00    -0.332 N 
HETATM   13  H   UNK N   1      34.274  13.591   6.798  0.00  0.00     0.167 HD
ENDROOT
BRANCH   4  14
HETATM   14  C   UNK N   1      35.156  15.890   8.441  0.00  0.00     0.207 C 
HETATM   15  C   UNK N   1      34.894  16.660   9.716  0.00  0.00     0.184 C 
HETATM   16  C   UNK N   1      35.544  15.761  10.749  0.00  0.00     0.180 C 
HETATM   17  C   UNK N   1      35.526  14.391  10.041  0.00  0.00     0.177 C 
HETATM   18  O   UNK N   1      34.886  14.553   8.793  0.00  0.00    -0.367 OA
BRANCH  15  19
HETATM   19  O   UNK N   1      35.423  17.956   9.697  0.00  0.00    -0.390 OA
HETATM   20  H   UNK N   1      35.573  18.478  10.500  0.00  0.00     0.210 HD
ENDBRANCH  15  19
BRANCH  16  21
HETATM   21  O   UNK N   1      36.870  16.134  10.991  0.00  0.00    -0.390 OA
HETATM   22  H   UNK N   1      37.462  16.900  11.047  0.00  0.00     0.210 HD
ENDBRANCH  16  21
BRANCH  17  23
HETATM   23  C   UNK N   1      34.848  13.310  10.869  0.00  0.00     0.198 C 
BRANCH  23  24
HETATM   24  O   UNK N   1      34.225  13.885  11.980  0.00  0.00    -0.398 OA
HETATM   25  H   UNK N   1      34.616  14.647  12.435  0.00  0.00     0.209 HD
ENDBRANCH  23  24
ENDBRANCH  17  23
ENDBRANCH   4  14
BRANCH   6  26
HETATM   26  N   UNK N   1      31.902  16.650   3.371  0.00  0.00    -0.383 N 
HETATM   27  H   UNK N   1      31.793  16.372   2.433  0.00  0.00     0.157 HD
HETATM   28  H   UNK N   1      31.562  17.527   3.660  0.00  0.00     0.157 HD
ENDBRANCH   6  26
TORSDOF 6
ENDMDL
MODEL 7
REMARK VINA RESULT:      -5.5      9.939     13.213
REMARK  6 active torsions:
REMARK  status: ('A' for Active; 'I' for Inactive)
REMARK    1  A    between atoms: C_4  and  C_2 
REMARK    2  A    between atoms: O_19  and  C_2 
REMARK    3  A    between atoms: C_10  and  C_6 
REMARK    4  A    between atoms: C_8  and  O_20 
REMARK    5  A    between atoms: C_9  and  O_21 
REMARK    6  A    between atoms: N_12  and  C_11 
ROOT
HETATM    1  C   UNK N   1      27.615  17.685   5.306  0.00  0.00     0.158 C 
HETATM    2  C   UNK N   1      25.222  17.362   5.011  0.00  0.00     0.184 A 
HETATM    3  C   UNK N   1      23.923  18.884   3.811  0.00  0.00     0.092 A 
HETATM    4  C   UNK N   1      22.851  19.528   3.246  0.00  0.00     0.086 A 
HETATM    5  C   UNK N   1      25.000  19.652   3.556  0.00  0.00     0.120 A 
HETATM    6  C   UNK N   1      26.248  19.282   4.031  0.00  0.00     0.132 A 
HETATM    7  N   UNK N   1      23.997  17.741   4.532  0.00  0.00    -0.349 N 
HETATM    8  N   UNK N   1      23.307  20.670   2.672  0.00  0.00    -0.299 N 
ATOM      9  HN  UNK N   1      22.736  21.361   2.185  1.00  0.00     0.186 HD
HETATM   10  N   UNK N   1      24.628  20.738   2.851  0.00  0.00    -0.295 N 
ATOM     11  HN  UNK N   1      25.243  21.479   2.516  1.00  0.00     0.187 HD
HETATM   12  N   UNK N   1      26.339  18.124   4.765  0.00  0.00    -0.332 N 
HETATM   13  H   UNK N   1      23.195  17.200   4.709  0.00  0.00     0.167 HD
ENDROOT
BRANCH   4  14
HETATM   14  C   UNK N   1      21.408  19.112   3.324  0.00  0.00     0.207 C 
HETATM   15  C   UNK N   1      20.777  18.817   1.982  0.00  0.00     0.184 C 
HETATM   16  C   UNK N   1      19.536  18.049   2.395  0.00  0.00     0.180 C 
HETATM   17  C   UNK N   1      19.942  17.504   3.779  0.00  0.00     0.177 C 
HETATM   18  O   UNK N   1      21.273  17.903   4.033  0.00  0.00    -0.367 OA
BRANCH  15  19
HETATM   19  O   UNK N   1      20.494  19.970   1.240  0.00  0.00    -0.390 OA
HETATM   20  H   UNK N   1      21.177  20.591   0.945  0.00  0.00     0.210 HD
ENDBRANCH  15  19
BRANCH  16  21
HETATM   21  O   UNK N   1      18.434  18.897   2.543  0.00  0.00    -0.390 OA
HETATM   22  H   UNK N   1      17.484  18.973   2.360  0.00  0.00     0.210 HD
ENDBRANCH  16  21
BRANCH  17  23
HETATM   23  C   UNK N   1      19.794  15.993   3.882  0.00  0.00     0.198 C 
BRANCH  23  24
HETATM   24  O   UNK N   1      20.068  15.404   2.645  0.00  0.00    -0.398 OA
HETATM   25  H   UNK N   1      20.174  15.944   1.847  0.00  0.00     0.209 HD
ENDBRANCH  23  24
ENDBRANCH  17  23
ENDBRANCH   4  14
BRANCH   6  26
HETATM   26  N   UNK N   1      27.385  20.083   3.780  0.00  0.00    -0.383 N 
HETATM   27  H   UNK N   1      27.502  20.533   2.913  0.00  0.00     0.157 HD
HETATM   28  H   UNK N   1      28.069  20.192   4.480  0.00  0.00     0.157 HD
ENDBRANCH   6  26
TORSDOF 6
ENDMDL
MODEL 8
REMARK VINA RESULT:      -5.5     13.407     15.120
REMARK  6 active torsions:
REMARK  status: ('A' for Active; 'I' for Inactive)
REMARK    1  A    between atoms: C_4  and  C_2 
REMARK    2  A    between atoms: O_19  and  C_2 
REMARK    3  A    between atoms: C_10  and  C_6 
REMARK    4  A    between atoms: C_8  and  O_20 
REMARK    5  A    between atoms: C_9  and  O_21 
REMARK    6  A    between atoms: N_12  and  C_11 
ROOT
HETATM    1  C   UNK N   1      18.757  12.137   0.061  0.00  0.00     0.158 C 
HETATM    2  C   UNK N   1      18.821  14.542   0.426  0.00  0.00     0.184 A 
HETATM    3  C   UNK N   1      20.045  15.479   2.178  0.00  0.00     0.092 A 
HETATM    4  C   UNK N   1      20.576  16.379   3.066  0.00  0.00     0.086 A 
HETATM    5  C   UNK N   1      20.459  14.262   2.582  0.00  0.00     0.120 A 
HETATM    6  C   UNK N   1      20.057  13.126   1.899  0.00  0.00     0.132 A 
HETATM    7  N   UNK N   1      19.229  15.653   1.112  0.00  0.00    -0.349 N 
HETATM    8  N   UNK N   1      21.290  15.684   3.987  0.00  0.00    -0.299 N 
ATOM      9  HN  UNK N   1      21.790  16.085   4.780  1.00  0.00     0.186 HD
HETATM   10  N   UNK N   1      21.228  14.387   3.681  0.00  0.00    -0.295 N 
ATOM     11  HN  UNK N   1      21.681  13.626   4.188  1.00  0.00     0.187 HD
HETATM   12  N   UNK N   1      19.228  13.288   0.814  0.00  0.00    -0.332 N 
HETATM   13  H   UNK N   1      18.937  16.552   0.839  0.00  0.00     0.167 HD
ENDROOT
BRANCH   4  14
HETATM   14  C   UNK N   1      20.341  17.864   3.091  0.00  0.00     0.207 C 
HETATM   15  C   UNK N   1      21.356  18.637   3.902  0.00  0.00     0.184 C 
HETATM   16  C   UNK N   1      21.124  20.051   3.406  0.00  0.00     0.180 C 
HETATM   17  C   UNK N   1      20.494  19.806   2.019  0.00  0.00     0.177 C 
HETATM   18  O   UNK N   1      20.453  18.412   1.799  0.00  0.00    -0.367 OA
BRANCH  15  19
HETATM   19  O   UNK N   1      21.180  18.499   5.284  0.00  0.00    -0.390 OA
HETATM   20  H   UNK N   1      20.948  17.658   5.707  0.00  0.00     0.210 HD
ENDBRANCH  15  19
BRANCH  16  21
HETATM   21  O   UNK N   1      20.205  20.733   4.211  0.00  0.00    -0.390 OA
HETATM   22  H   UNK N   1      19.321  20.668   4.604  0.00  0.00     0.210 HD
ENDBRANCH  16  21
BRANCH  17  23
HETATM   23  C   UNK N   1      21.241  20.517   0.900  0.00  0.00     0.198 C 
BRANCH  23  24
HETATM   24  O   UNK N   1      20.471  20.504  -0.266  0.00  0.00    -0.398 OA
HETATM   25  H   UNK N   1      19.533  20.263  -0.243  0.00  0.00     0.209 HD
ENDBRANCH  23  24
ENDBRANCH  17  23
ENDBRANCH   4  14
BRANCH   6  26
HETATM   26  N   UNK N   1      20.475  11.843   2.318  0.00  0.00    -0.383 N 
HETATM   27  H   UNK N   1      19.858  11.077   2.289  0.00  0.00     0.157 HD
HETATM   28  H   UNK N   1      21.396  11.713   2.642  0.00  0.00     0.157 HD
ENDBRANCH   6  26
TORSDOF 6
ENDMDL
MODEL 9
REMARK VINA RESULT:      -5.4     10.028     12.833
REMARK  6 active torsions:
REMARK  status: ('A' for Active; 'I' for Inactive)
REMARK    1  A    between atoms: C_4  and  C_2 
REMARK    2  A    between atoms: O_19  and  C_2 
REMARK    3  A    between atoms: C_10  and  C_6 
REMARK    4  A    between atoms: C_8  and  O_20 
REMARK    5  A    between atoms: C_9  and  O_21 
REMARK    6  A    between atoms: N_12  and  C_11 
ROOT
HETATM    1  C   UNK N   1      27.182  18.881   4.154  0.00  0.00     0.158 C 
HETATM    2  C   UNK N   1      25.246  17.690   5.021  0.00  0.00     0.184 A 
HETATM    3  C   UNK N   1      23.072  18.305   4.440  0.00  0.00     0.092 A 
HETATM    4  C   UNK N   1      21.703  18.370   4.384  0.00  0.00     0.086 A 
HETATM    5  C   UNK N   1      23.529  19.302   3.657  0.00  0.00     0.120 A 
HETATM    6  C   UNK N   1      24.891  19.522   3.531  0.00  0.00     0.132 A 
HETATM    7  N   UNK N   1      23.898  17.487   5.133  0.00  0.00    -0.349 N 
HETATM    8  N   UNK N   1      21.369  19.409   3.577  0.00  0.00    -0.299 N 
ATOM      9  HN  UNK N   1      20.419  19.710   3.355  1.00  0.00     0.186 HD
HETATM   10  N   UNK N   1      22.490  19.971   3.121  0.00  0.00    -0.295 N 
ATOM     11  HN  UNK N   1      22.549  20.765   2.483  1.00  0.00     0.187 HD
HETATM   12  N   UNK N   1      25.742  18.698   4.229  0.00  0.00    -0.332 N 
HETATM   13  H   UNK N   1      23.539  16.768   5.701  0.00  0.00     0.167 HD
ENDROOT
BRANCH   4  14
HETATM   14  C   UNK N   1      20.729  17.518   5.150  0.00  0.00     0.207 C 
HETATM   15  C   UNK N   1      19.920  16.577   4.287  0.00  0.00     0.184 C 
HETATM   16  C   UNK N   1      19.384  15.607   5.322  0.00  0.00     0.180 C 
HETATM   17  C   UNK N   1      20.411  15.752   6.463  0.00  0.00     0.177 C 
HETATM   18  O   UNK N   1      21.405  16.663   6.041  0.00  0.00    -0.367 OA
BRANCH  15  19
HETATM   19  O   UNK N   1      18.914  17.222   3.558  0.00  0.00    -0.390 OA
HETATM   20  H   UNK N   1      18.933  17.310   2.593  0.00  0.00     0.210 HD
ENDBRANCH  15  19
BRANCH  16  21
HETATM   21  O   UNK N   1      18.124  15.998   5.788  0.00  0.00    -0.390 OA
HETATM   22  H   UNK N   1      17.501  16.742   5.806  0.00  0.00     0.210 HD
ENDBRANCH  16  21
BRANCH  17  23
HETATM   23  C   UNK N   1      21.025  14.422   6.874  0.00  0.00     0.198 C 
BRANCH  23  24
HETATM   24  O   UNK N   1      20.297  13.872   7.933  0.00  0.00    -0.398 OA
HETATM   25  H   UNK N   1      19.614  14.385   8.390  0.00  0.00     0.209 HD
ENDBRANCH  23  24
ENDBRANCH  17  23
ENDBRANCH   4  14
BRANCH   6  26
HETATM   26  N   UNK N   1      25.384  20.570   2.722  0.00  0.00    -0.383 N 
HETATM   27  H   UNK N   1      25.131  21.505   2.899  0.00  0.00     0.157 HD
HETATM   28  H   UNK N   1      25.989  20.364   1.973  0.00  0.00     0.157 HD
ENDBRANCH   6  26
TORSDOF 6
ENDMDL
