REMARK  8 active torsions:
REMARK  status: ('A' for Active; 'I' for Inactive)
REMARK    1  A    between atoms: C_5  and  C_4 
REMARK    2  A    between atoms: C_6  and  C_4 
REMARK    3  A    between atoms: C_7  and  C_5 
REMARK    4  A    between atoms: C_8  and  C_6 
REMARK    5  A    between atoms: N_11  and  C_7 
REMARK    6  A    between atoms: C_9  and  C_8 
REMARK    7  A    between atoms: C_8  and  N_10 
REMARK    8  A    between atoms: O_13  and  C_9 
ROOT
HETATM    1  C   UNK N   1       1.402   0.855  -0.416  0.00  0.00     0.035 C 
ENDROOT
BRANCH   1   2
HETATM    2  C   UNK N   1       0.182   1.060   0.462  0.00  0.00     0.004 C 
BRANCH   2   3
HETATM    3  C   UNK N   1      -0.931   1.741  -0.301  0.00  0.00     0.028 C 
BRANCH   3   4
HETATM    4  C   UNK N   1      -2.216   1.577   0.507  0.00  0.00     0.236 C 
BRANCH   4   5
HETATM    5  N   UNK N   1      -3.184   0.676  -0.123  0.00  0.00    -0.079 N 
HETATM    6  C   UNK N   1      -4.231   0.392   0.841  0.00  0.00     0.271 C 
HETATM    7  C   UNK N   1      -2.585  -0.591  -0.522  0.00  0.00     0.271 C 
HETATM    8  C   UNK N   1      -3.787   1.316  -1.280  0.00  0.00     0.271 C 
ENDBRANCH   4   5
ENDBRANCH   3   4
ENDBRANCH   2   3
ENDBRANCH   1   2
BRANCH   1   9
HETATM    9  C   UNK N   1       2.669   1.034   0.411  0.00  0.00     0.173 C 
BRANCH   9  10
HETATM   10  C   UNK N   1       3.856   0.504  -0.345  0.00  0.00     0.163 C 
HETATM   11  O   UNK N   1       4.793   1.233  -0.628  0.00  0.00    -0.648 OA
BRANCH  10  12
HETATM   12  O   UNK N   1       3.897  -0.797  -0.692  0.00  0.00    -0.775 OA
HETATM   13  H   UNK N   1       3.128  -1.274  -0.934  0.00  0.00     0.167 HD
ENDBRANCH  10  12
ENDBRANCH   9  10
BRANCH   9  14
HETATM   14  N   UNK N   1       2.842   2.446   0.726  0.00  0.00    -0.418 N 
HETATM   15  H   UNK N   1       3.758   2.836   0.946  0.00  0.00     0.150 HD
HETATM   16  H   UNK N   1       2.026   3.059   0.726  0.00  0.00     0.150 HD
ENDBRANCH   9  14
ENDBRANCH   1   9
TORSDOF 8
