MODEL 1
REMARK VINA RESULT:      -6.1      0.000      0.000
REMARK  10 active torsions:
REMARK  status: ('A' for Active; 'I' for Inactive)
REMARK    1  A    between atoms: C_5  and  C_3 
REMARK    2  A    between atoms: O_14  and  C_3 
REMARK    3  A    between atoms: C_7  and  C_4 
REMARK    4  A    between atoms: O_21  and  C_4 
REMARK    5  A    between atoms: C_6  and  O_15 
REMARK    6  A    between atoms: C_8  and  N_13 
REMARK    7  A    between atoms: O_16  and  C_9 
REMARK    8  A    between atoms: P_23  and  O_18 
REMARK    9  A    between atoms: P_23  and  O_19 
REMARK   10  A    between atoms: P_23  and  O_21 
ROOT
HETATM    1  C   UNK N   1      33.017  15.805   6.621  0.00  0.00     0.088 C 
HETATM    2  C   UNK N   1      34.450  16.183   6.811  0.00  0.00     0.153 C 
HETATM    3  C   UNK N   1      34.319  17.386   7.751  0.00  0.00     0.177 C 
HETATM    4  C   UNK N   1      32.452  17.209   6.478  0.00  0.00     0.235 C 
HETATM    5  O   UNK N   1      33.062  17.991   7.487  0.00  0.00    -0.356 OA
ENDROOT
BRANCH   4   6
HETATM    6  N   UNK N   1      30.976  17.240   6.526  0.00  0.00    -0.282 N 
HETATM    7  C   UNK N   1      30.325  17.248   7.725  0.00  0.00     0.112 A 
HETATM    8  C   UNK N   1      28.933  17.364   7.790  0.00  0.00     0.032 A 
HETATM    9  C   UNK N   1      28.217  17.486   6.583  0.00  0.00     0.153 A 
HETATM   10  N   UNK N   1      28.885  17.465   5.404  0.00  0.00    -0.288 N 
HETATM   11  C   UNK N   1      30.245  17.341   5.357  0.00  0.00     0.330 A 
ATOM     12  HN  UNK N   1      28.360  17.543   4.532  1.00  0.00     0.172 HD
HETATM   13  O   UNK N   1      30.808  17.354   4.273  0.00  0.00    -0.246 OA
BRANCH   8  14
HETATM   14  C   UNK N   1      28.295  17.369   9.157  0.00  0.00     0.208 C 
BRANCH  14  15
HETATM   15  O   UNK N   1      27.373  18.401   9.340  0.00  0.00    -0.396 OA
HETATM   16  H   UNK N   1      26.598  18.475   8.760  0.00  0.00     0.209 HD
ENDBRANCH  14  15
ENDBRANCH   8  14
BRANCH   9  17
HETATM   17  O   UNK N   1      26.880  17.630   6.572  0.00  0.00    -0.345 OA
HETATM   18  H   UNK N   1      26.380  17.354   5.830  0.00  0.00     0.219 HD
ENDBRANCH   9  17
ENDBRANCH   4   6
BRANCH   2  19
HETATM   19  O   UNK N   1      35.233  15.141   7.313  0.00  0.00    -0.393 OA
HETATM   20  H   UNK N   1      36.160  14.860   7.289  0.00  0.00     0.210 HD
ENDBRANCH   2  19
BRANCH   3  21
HETATM   21  C   UNK N   1      34.375  17.017   9.239  0.00  0.00     0.215 C 
BRANCH  21  22
HETATM   22  O   UNK N   1      35.644  16.530   9.606  0.00  0.00    -0.294 OA
BRANCH  22  23
HETATM   23  P   UNK N   1      35.447  15.775  11.171  0.00  0.00     0.390 P 
HETATM   24  O   UNK N   1      35.051  14.603  10.232  0.00  0.00    -0.632 OA
BRANCH  23  25
HETATM   25  O   UNK N   1      36.483  14.490  11.708  0.00  0.00    -0.307 OA
HETATM   26  H   UNK N   1      36.106  13.675  12.075  0.00  0.00     0.222 HD
ENDBRANCH  23  25
BRANCH  23  27
HETATM   27  O   UNK N   1      37.121  16.157  10.905  0.00  0.00    -0.307 OA
HETATM   28  H   UNK N   1      37.748  16.274  11.636  0.00  0.00     0.222 HD
ENDBRANCH  23  27
ENDBRANCH  22  23
ENDBRANCH  21  22
ENDBRANCH   3  21
TORSDOF 10
ENDMDL
MODEL 2
REMARK VINA RESULT:      -6.1      2.000      2.545
REMARK  10 active torsions:
REMARK  status: ('A' for Active; 'I' for Inactive)
REMARK    1  A    between atoms: C_5  and  C_3 
REMARK    2  A    between atoms: O_14  and  C_3 
REMARK    3  A    between atoms: C_7  and  C_4 
REMARK    4  A    between atoms: O_21  and  C_4 
REMARK    5  A    between atoms: C_6  and  O_15 
REMARK    6  A    between atoms: C_8  and  N_13 
REMARK    7  A    between atoms: O_16  and  C_9 
REMARK    8  A    between atoms: P_23  and  O_18 
REMARK    9  A    between atoms: P_23  and  O_19 
REMARK   10  A    between atoms: P_23  and  O_21 
ROOT
HETATM    1  C   UNK N   1      31.423  15.404   5.666  0.00  0.00     0.088 C 
HETATM    2  C   UNK N   1      32.663  15.234   4.849  0.00  0.00     0.153 C 
HETATM    3  C   UNK N   1      33.374  16.567   5.102  0.00  0.00     0.177 C 
HETATM    4  C   UNK N   1      31.133  16.850   5.299  0.00  0.00     0.235 C 
HETATM    5  O   UNK N   1      32.369  17.536   5.364  0.00  0.00    -0.356 OA
ENDROOT
BRANCH   4   6
HETATM    6  N   UNK N   1      30.083  17.455   6.143  0.00  0.00    -0.282 N 
HETATM    7  C   UNK N   1      30.277  17.602   7.486  0.00  0.00     0.112 A 
HETATM    8  C   UNK N   1      29.331  18.250   8.286  0.00  0.00     0.032 A 
HETATM    9  C   UNK N   1      28.173  18.762   7.667  0.00  0.00     0.153 A 
HETATM   10  N   UNK N   1      27.998  18.595   6.333  0.00  0.00    -0.288 N 
HETATM   11  C   UNK N   1      28.928  17.950   5.567  0.00  0.00     0.330 A 
ATOM     12  HN  UNK N   1      27.153  18.959   5.892  1.00  0.00     0.172 HD
HETATM   13  O   UNK N   1      28.742  17.847   4.364  0.00  0.00    -0.246 OA
BRANCH   8  14
HETATM   14  C   UNK N   1      29.627  18.371   9.760  0.00  0.00     0.208 C 
BRANCH  14  15
HETATM   15  O   UNK N   1      29.650  17.145  10.428  0.00  0.00    -0.396 OA
HETATM   16  H   UNK N   1      29.051  16.430  10.162  0.00  0.00     0.209 HD
ENDBRANCH  14  15
ENDBRANCH   8  14
BRANCH   9  17
HETATM   17  O   UNK N   1      27.235  19.421   8.370  0.00  0.00    -0.345 OA
HETATM   18  H   UNK N   1      26.845  19.028   9.125  0.00  0.00     0.219 HD
ENDBRANCH   9  17
ENDBRANCH   4   6
BRANCH   2  19
HETATM   19  O   UNK N   1      33.406  14.106   5.203  0.00  0.00    -0.393 OA
HETATM   20  H   UNK N   1      33.928  13.795   5.959  0.00  0.00     0.210 HD
ENDBRANCH   2  19
BRANCH   3  21
HETATM   21  C   UNK N   1      34.337  16.536   6.296  0.00  0.00     0.215 C 
BRANCH  21  22
HETATM   22  O   UNK N   1      34.509  17.816   6.858  0.00  0.00    -0.294 OA
BRANCH  22  23
HETATM   23  P   UNK N   1      34.103  17.668   8.551  0.00  0.00     0.390 P 
HETATM   24  O   UNK N   1      34.903  16.355   8.330  0.00  0.00    -0.632 OA
BRANCH  23  25
HETATM   25  O   UNK N   1      35.310  17.743   9.796  0.00  0.00    -0.307 OA
HETATM   26  H   UNK N   1      35.858  16.969   9.997  0.00  0.00     0.222 HD
ENDBRANCH  23  25
BRANCH  23  27
HETATM   27  O   UNK N   1      35.173  19.016   8.316  0.00  0.00    -0.307 OA
HETATM   28  H   UNK N   1      34.972  19.734   7.696  0.00  0.00     0.222 HD
ENDBRANCH  23  27
ENDBRANCH  22  23
ENDBRANCH  21  22
ENDBRANCH   3  21
TORSDOF 10
ENDMDL
MODEL 3
REMARK VINA RESULT:      -6.1     11.562     12.906
REMARK  10 active torsions:
REMARK  status: ('A' for Active; 'I' for Inactive)
REMARK    1  A    between atoms: C_5  and  C_3 
REMARK    2  A    between atoms: O_14  and  C_3 
REMARK    3  A    between atoms: C_7  and  C_4 
REMARK    4  A    between atoms: O_21  and  C_4 
REMARK    5  A    between atoms: C_6  and  O_15 
REMARK    6  A    between atoms: C_8  and  N_13 
REMARK    7  A    between atoms: O_16  and  C_9 
REMARK    8  A    between atoms: P_23  and  O_18 
REMARK    9  A    between atoms: P_23  and  O_19 
REMARK   10  A    between atoms: P_23  and  O_21 
ROOT
HETATM    1  C   UNK N   1      19.523  15.385   3.852  0.00  0.00     0.088 C 
HETATM    2  C   UNK N   1      20.134  14.280   4.651  0.00  0.00     0.153 C 
HETATM    3  C   UNK N   1      21.492  14.890   5.016  0.00  0.00     0.177 C 
HETATM    4  C   UNK N   1      20.761  15.773   3.060  0.00  0.00     0.235 C 
HETATM    5  O   UNK N   1      21.834  15.800   3.982  0.00  0.00    -0.356 OA
ENDROOT
BRANCH   4   6
HETATM    6  N   UNK N   1      20.592  17.040   2.320  0.00  0.00    -0.282 N 
HETATM    7  C   UNK N   1      20.721  18.237   2.963  0.00  0.00     0.112 A 
HETATM    8  C   UNK N   1      20.650  19.445   2.262  0.00  0.00     0.032 A 
HETATM    9  C   UNK N   1      20.456  19.395   0.867  0.00  0.00     0.153 A 
HETATM   10  N   UNK N   1      20.321  18.195   0.252  0.00  0.00    -0.288 N 
HETATM   11  C   UNK N   1      20.382  17.023   0.953  0.00  0.00     0.330 A 
ATOM     12  HN  UNK N   1      20.170  18.166  -0.756  1.00  0.00     0.172 HD
HETATM   13  O   UNK N   1      20.283  15.964   0.354  0.00  0.00    -0.246 OA
BRANCH   8  14
HETATM   14  C   UNK N   1      20.806  20.720   3.051  0.00  0.00     0.208 C 
BRANCH  14  15
HETATM   15  O   UNK N   1      21.831  21.545   2.583  0.00  0.00    -0.396 OA
HETATM   16  H   UNK N   1      22.725  21.472   2.951  0.00  0.00     0.209 HD
ENDBRANCH  14  15
ENDBRANCH   8  14
BRANCH   9  17
HETATM   17  O   UNK N   1      20.406  20.516   0.126  0.00  0.00    -0.345 OA
HETATM   18  H   UNK N   1      19.673  21.095   0.189  0.00  0.00     0.219 HD
ENDBRANCH   9  17
ENDBRANCH   4   6
BRANCH   2  19
HETATM   19  O   UNK N   1      19.359  13.899   5.749  0.00  0.00    -0.393 OA
HETATM   20  H   UNK N   1      18.742  13.190   5.984  0.00  0.00     0.210 HD
ENDBRANCH   2  19
BRANCH   3  21
HETATM   21  C   UNK N   1      21.490  15.650   6.348  0.00  0.00     0.215 C 
BRANCH  21  22
HETATM   22  O   UNK N   1      21.430  14.772   7.447  0.00  0.00    -0.294 OA
BRANCH  22  23
HETATM   23  P   UNK N   1      20.628  15.646   8.731  0.00  0.00     0.390 P 
HETATM   24  O   UNK N   1      20.056  16.374   7.485  0.00  0.00    -0.632 OA
BRANCH  23  25
HETATM   25  O   UNK N   1      18.913  15.542   8.982  0.00  0.00    -0.307 OA
HETATM   26  H   UNK N   1      18.300  15.656   8.239  0.00  0.00     0.222 HD
ENDBRANCH  23  25
BRANCH  23  27
HETATM   27  O   UNK N   1      20.081  13.997   8.708  0.00  0.00    -0.307 OA
HETATM   28  H   UNK N   1      20.451  13.337   8.100  0.00  0.00     0.222 HD
ENDBRANCH  23  27
ENDBRANCH  22  23
ENDBRANCH  21  22
ENDBRANCH   3  21
TORSDOF 10
ENDMDL
MODEL 4
REMARK VINA RESULT:      -5.9      7.433     10.436
REMARK  10 active torsions:
REMARK  status: ('A' for Active; 'I' for Inactive)
REMARK    1  A    between atoms: C_5  and  C_3 
REMARK    2  A    between atoms: O_14  and  C_3 
REMARK    3  A    between atoms: C_7  and  C_4 
REMARK    4  A    between atoms: O_21  and  C_4 
REMARK    5  A    between atoms: C_6  and  O_15 
REMARK    6  A    between atoms: C_8  and  N_13 
REMARK    7  A    between atoms: O_16  and  C_9 
REMARK    8  A    between atoms: P_23  and  O_18 
REMARK    9  A    between atoms: P_23  and  O_19 
REMARK   10  A    between atoms: P_23  and  O_21 
ROOT
HETATM    1  C   UNK N   1      37.039  12.405  14.288  0.00  0.00     0.088 C 
HETATM    2  C   UNK N   1      36.691  12.170  12.854  0.00  0.00     0.153 C 
HETATM    3  C   UNK N   1      35.217  12.589  12.832  0.00  0.00     0.177 C 
HETATM    4  C   UNK N   1      35.766  11.846  14.902  0.00  0.00     0.235 C 
HETATM    5  O   UNK N   1      34.694  12.351  14.130  0.00  0.00    -0.356 OA
ENDROOT
BRANCH   4   6
HETATM    6  N   UNK N   1      35.644  12.149  16.342  0.00  0.00    -0.282 N 
HETATM    7  C   UNK N   1      35.487  13.436  16.766  0.00  0.00     0.112 A 
HETATM    8  C   UNK N   1      35.284  13.733  18.117  0.00  0.00     0.032 A 
HETATM    9  C   UNK N   1      35.231  12.664  19.033  0.00  0.00     0.153 A 
HETATM   10  N   UNK N   1      35.399  11.394  18.591  0.00  0.00    -0.288 N 
HETATM   11  C   UNK N   1      35.607  11.122  17.268  0.00  0.00     0.330 A 
ATOM     12  HN  UNK N   1      35.371  10.625  19.260  1.00  0.00     0.172 HD
HETATM   13  O   UNK N   1      35.727   9.960  16.910  0.00  0.00    -0.246 OA
BRANCH   8  14
HETATM   14  C   UNK N   1      35.117  15.183  18.497  0.00  0.00     0.208 C 
BRANCH  14  15
HETATM   15  O   UNK N   1      36.272  15.945  18.315  0.00  0.00    -0.396 OA
HETATM   16  H   UNK N   1      36.359  16.527  17.544  0.00  0.00     0.209 HD
ENDBRANCH  14  15
ENDBRANCH   8  14
BRANCH   9  17
HETATM   17  O   UNK N   1      35.011  12.873  20.343  0.00  0.00    -0.345 OA
HETATM   18  H   UNK N   1      35.583  12.504  20.986  0.00  0.00     0.219 HD
ENDBRANCH   9  17
ENDBRANCH   4   6
BRANCH   2  19
HETATM   19  O   UNK N   1      37.505  12.877  11.967  0.00  0.00    -0.393 OA
HETATM   20  H   UNK N   1      37.478  13.710  11.471  0.00  0.00     0.210 HD
ENDBRANCH   2  19
BRANCH   3  21
HETATM   21  C   UNK N   1      35.000  14.068  12.487  0.00  0.00     0.215 C 
BRANCH  21  22
HETATM   22  O   UNK N   1      34.768  14.251  11.111  0.00  0.00    -0.294 OA
BRANCH  22  23
HETATM   23  P   UNK N   1      35.606  15.718  10.661  0.00  0.00     0.390 P 
HETATM   24  O   UNK N   1      35.978  15.621  12.166  0.00  0.00    -0.632 OA
BRANCH  23  25
HETATM   25  O   UNK N   1      37.339  15.815  10.632  0.00  0.00    -0.307 OA
HETATM   26  H   UNK N   1      37.847  15.318   9.972  0.00  0.00     0.222 HD
ENDBRANCH  23  25
BRANCH  23  27
HETATM   27  O   UNK N   1      36.302  14.362   9.829  0.00  0.00    -0.307 OA
HETATM   28  H   UNK N   1      36.867  14.468   9.047  0.00  0.00     0.222 HD
ENDBRANCH  23  27
ENDBRANCH  22  23
ENDBRANCH  21  22
ENDBRANCH   3  21
TORSDOF 10
ENDMDL
MODEL 5
REMARK VINA RESULT:      -5.8      5.763      7.658
REMARK  10 active torsions:
REMARK  status: ('A' for Active; 'I' for Inactive)
REMARK    1  A    between atoms: C_5  and  C_3 
REMARK    2  A    between atoms: O_14  and  C_3 
REMARK    3  A    between atoms: C_7  and  C_4 
REMARK    4  A    between atoms: O_21  and  C_4 
REMARK    5  A    between atoms: C_6  and  O_15 
REMARK    6  A    between atoms: C_8  and  N_13 
REMARK    7  A    between atoms: O_16  and  C_9 
REMARK    8  A    between atoms: P_23  and  O_18 
REMARK    9  A    between atoms: P_23  and  O_19 
REMARK   10  A    between atoms: P_23  and  O_21 
ROOT
HETATM    1  C   UNK N   1      26.369  17.561   3.843  0.00  0.00     0.088 C 
HETATM    2  C   UNK N   1      27.836  17.776   4.028  0.00  0.00     0.153 C 
HETATM    3  C   UNK N   1      27.847  19.021   4.920  0.00  0.00     0.177 C 
HETATM    4  C   UNK N   1      25.973  19.016   3.644  0.00  0.00     0.235 C 
HETATM    5  O   UNK N   1      26.669  19.758   4.626  0.00  0.00    -0.356 OA
ENDROOT
BRANCH   4   6
HETATM    6  N   UNK N   1      24.512  19.222   3.681  0.00  0.00    -0.282 N 
HETATM    7  C   UNK N   1      23.740  18.535   4.574  0.00  0.00     0.112 A 
HETATM    8  C   UNK N   1      22.368  18.780   4.682  0.00  0.00     0.032 A 
HETATM    9  C   UNK N   1      21.800  19.767   3.853  0.00  0.00     0.153 A 
HETATM   10  N   UNK N   1      22.584  20.430   2.967  0.00  0.00    -0.288 N 
HETATM   11  C   UNK N   1      23.922  20.171   2.867  0.00  0.00     0.330 A 
ATOM     12  HN  UNK N   1      22.166  21.136   2.362  1.00  0.00     0.172 HD
HETATM   13  O   UNK N   1      24.596  20.811   2.074  0.00  0.00    -0.246 OA
BRANCH   8  14
HETATM   14  C   UNK N   1      21.593  17.978   5.697  0.00  0.00     0.208 C 
BRANCH  14  15
HETATM   15  O   UNK N   1      21.073  18.748   6.739  0.00  0.00    -0.396 OA
HETATM   16  H   UNK N   1      21.202  19.709   6.750  0.00  0.00     0.209 HD
ENDBRANCH  14  15
ENDBRANCH   8  14
BRANCH   9  17
HETATM   17  O   UNK N   1      20.493  20.075   3.923  0.00  0.00    -0.345 OA
HETATM   18  H   UNK N   1      19.847  19.477   3.606  0.00  0.00     0.219 HD
ENDBRANCH   9  17
ENDBRANCH   4   6
BRANCH   2  19
HETATM   19  O   UNK N   1      28.490  16.669   4.574  0.00  0.00    -0.393 OA
HETATM   20  H   UNK N   1      29.096  16.479   5.306  0.00  0.00     0.210 HD
ENDBRANCH   2  19
BRANCH   3  21
HETATM   21  C   UNK N   1      27.856  18.705   6.422  0.00  0.00     0.215 C 
BRANCH  21  22
HETATM   22  O   UNK N   1      29.051  18.072   6.812  0.00  0.00    -0.294 OA
BRANCH  22  23
HETATM   23  P   UNK N   1      28.849  17.631   8.491  0.00  0.00     0.390 P 
HETATM   24  O   UNK N   1      28.868  19.180   8.599  0.00  0.00    -0.632 OA
BRANCH  23  25
HETATM   25  O   UNK N   1      27.385  17.969   9.361  0.00  0.00    -0.307 OA
HETATM   26  H   UNK N   1      27.308  18.773   9.898  0.00  0.00     0.222 HD
ENDBRANCH  23  25
BRANCH  23  27
HETATM   27  O   UNK N   1      27.447  17.156   7.582  0.00  0.00    -0.307 OA
HETATM   28  H   UNK N   1      26.586  16.997   8.003  0.00  0.00     0.222 HD
ENDBRANCH  23  27
ENDBRANCH  22  23
ENDBRANCH  21  22
ENDBRANCH   3  21
TORSDOF 10
ENDMDL
MODEL 6
REMARK VINA RESULT:      -5.7      6.854      9.453
REMARK  10 active torsions:
REMARK  status: ('A' for Active; 'I' for Inactive)
REMARK    1  A    between atoms: C_5  and  C_3 
REMARK    2  A    between atoms: O_14  and  C_3 
REMARK    3  A    between atoms: C_7  and  C_4 
REMARK    4  A    between atoms: O_21  and  C_4 
REMARK    5  A    between atoms: C_6  and  O_15 
REMARK    6  A    between atoms: C_8  and  N_13 
REMARK    7  A    between atoms: O_16  and  C_9 
REMARK    8  A    between atoms: P_23  and  O_18 
REMARK    9  A    between atoms: P_23  and  O_19 
REMARK   10  A    between atoms: P_23  and  O_21 
ROOT
HETATM    1  C   UNK N   1      25.216  19.926   3.029  0.00  0.00     0.088 C 
HETATM    2  C   UNK N   1      26.347  20.105   3.988  0.00  0.00     0.153 C 
HETATM    3  C   UNK N   1      25.990  19.077   5.067  0.00  0.00     0.177 C 
HETATM    4  C   UNK N   1      24.098  19.804   4.051  0.00  0.00     0.235 C 
HETATM    5  O   UNK N   1      24.576  18.943   5.067  0.00  0.00    -0.356 OA
ENDROOT
BRANCH   4   6
HETATM    6  N   UNK N   1      22.824  19.356   3.455  0.00  0.00    -0.282 N 
HETATM    7  C   UNK N   1      22.412  18.062   3.599  0.00  0.00     0.112 A 
HETATM    8  C   UNK N   1      21.169  17.641   3.116  0.00  0.00     0.032 A 
HETATM    9  C   UNK N   1      20.342  18.592   2.486  0.00  0.00     0.153 A 
HETATM   10  N   UNK N   1      20.777  19.868   2.346  0.00  0.00    -0.288 N 
HETATM   11  C   UNK N   1      21.999  20.262   2.814  0.00  0.00     0.330 A 
ATOM     12  HN  UNK N   1      20.178  20.551   1.879  1.00  0.00     0.172 HD
HETATM   13  O   UNK N   1      22.338  21.428   2.690  0.00  0.00    -0.246 OA
BRANCH   8  14
HETATM   14  C   UNK N   1      20.793  16.196   3.321  0.00  0.00     0.208 C 
BRANCH  14  15
HETATM   15  O   UNK N   1      19.430  16.000   3.550  0.00  0.00    -0.396 OA
HETATM   16  H   UNK N   1      18.956  15.281   3.103  0.00  0.00     0.209 HD
ENDBRANCH  14  15
ENDBRANCH   8  14
BRANCH   9  17
HETATM   17  O   UNK N   1      19.123  18.265   2.023  0.00  0.00    -0.345 OA
HETATM   18  H   UNK N   1      18.764  17.417   2.192  0.00  0.00     0.219 HD
ENDBRANCH   9  17
ENDBRANCH   4   6
BRANCH   2  19
HETATM   19  O   UNK N   1      27.601  19.914   3.403  0.00  0.00    -0.393 OA
HETATM   20  H   UNK N   1      28.026  20.064   2.545  0.00  0.00     0.210 HD
ENDBRANCH   2  19
BRANCH   3  21
HETATM   21  C   UNK N   1      26.606  17.692   4.830  0.00  0.00     0.215 C 
BRANCH  21  22
HETATM   22  O   UNK N   1      27.925  17.621   5.316  0.00  0.00    -0.294 OA
BRANCH  22  23
HETATM   23  P   UNK N   1      28.775  16.508   4.270  0.00  0.00     0.390 P 
HETATM   24  O   UNK N   1      27.520  16.814   3.408  0.00  0.00    -0.632 OA
BRANCH  23  25
HETATM   25  O   UNK N   1      29.465  17.011   2.758  0.00  0.00    -0.307 OA
HETATM   26  H   UNK N   1      29.354  17.923   2.447  0.00  0.00     0.222 HD
ENDBRANCH  23  25
BRANCH  23  27
HETATM   27  O   UNK N   1      29.696  17.971   4.448  0.00  0.00    -0.307 OA
HETATM   28  H   UNK N   1      29.661  18.509   5.254  0.00  0.00     0.222 HD
ENDBRANCH  23  27
ENDBRANCH  22  23
ENDBRANCH  21  22
ENDBRANCH   3  21
TORSDOF 10
ENDMDL
MODEL 7
REMARK VINA RESULT:      -5.6      3.546      7.113
REMARK  10 active torsions:
REMARK  status: ('A' for Active; 'I' for Inactive)
REMARK    1  A    between atoms: C_5  and  C_3 
REMARK    2  A    between atoms: O_14  and  C_3 
REMARK    3  A    between atoms: C_7  and  C_4 
REMARK    4  A    between atoms: O_21  and  C_4 
REMARK    5  A    between atoms: C_6  and  O_15 
REMARK    6  A    between atoms: C_8  and  N_13 
REMARK    7  A    between atoms: O_16  and  C_9 
REMARK    8  A    between atoms: P_23  and  O_18 
REMARK    9  A    between atoms: P_23  and  O_19 
REMARK   10  A    between atoms: P_23  and  O_21 
ROOT
HETATM    1  C   UNK N   1      32.446  16.370   8.522  0.00  0.00     0.088 C 
HETATM    2  C   UNK N   1      32.074  17.508   7.628  0.00  0.00     0.153 C 
HETATM    3  C   UNK N   1      33.434  17.866   7.018  0.00  0.00     0.177 C 
HETATM    4  C   UNK N   1      33.737  16.954   9.072  0.00  0.00     0.235 C 
HETATM    5  O   UNK N   1      34.427  17.510   7.969  0.00  0.00    -0.356 OA
ENDROOT
BRANCH   4   6
HETATM    6  N   UNK N   1      34.536  15.969   9.826  0.00  0.00    -0.282 N 
HETATM    7  C   UNK N   1      34.234  14.639   9.759  0.00  0.00     0.112 A 
HETATM    8  C   UNK N   1      35.032  13.684  10.397  0.00  0.00     0.032 A 
HETATM    9  C   UNK N   1      36.168  14.128  11.103  0.00  0.00     0.153 A 
HETATM   10  N   UNK N   1      36.441  15.454  11.163  0.00  0.00    -0.288 N 
HETATM   11  C   UNK N   1      35.646  16.376  10.543  0.00  0.00     0.330 A 
ATOM     12  HN  UNK N   1      37.259  15.771  11.685  1.00  0.00     0.172 HD
HETATM   13  O   UNK N   1      35.946  17.559  10.602  0.00  0.00    -0.246 OA
BRANCH   8  14
HETATM   14  C   UNK N   1      34.627  12.237  10.268  0.00  0.00     0.208 C 
BRANCH  14  15
HETATM   15  O   UNK N   1      34.334  11.628  11.489  0.00  0.00    -0.396 OA
HETATM   16  H   UNK N   1      33.742  12.061  12.124  0.00  0.00     0.209 HD
ENDBRANCH  14  15
ENDBRANCH   8  14
BRANCH   9  17
HETATM   17  O   UNK N   1      36.995  13.264  11.716  0.00  0.00    -0.345 OA
HETATM   18  H   UNK N   1      37.017  12.364  11.457  0.00  0.00     0.219 HD
ENDBRANCH   9  17
ENDBRANCH   4   6
BRANCH   2  19
HETATM   19  O   UNK N   1      31.092  17.176   6.692  0.00  0.00    -0.393 OA
HETATM   20  H   UNK N   1      30.602  17.609   5.976  0.00  0.00     0.210 HD
ENDBRANCH   2  19
BRANCH   3  21
HETATM   21  C   UNK N   1      33.736  17.130   5.706  0.00  0.00     0.215 C 
BRANCH  21  22
HETATM   22  O   UNK N   1      33.401  17.911   4.584  0.00  0.00    -0.294 OA
BRANCH  22  23
HETATM   23  P   UNK N   1      32.629  16.832   3.446  0.00  0.00     0.390 P 
HETATM   24  O   UNK N   1      32.883  15.865   4.634  0.00  0.00    -0.632 OA
BRANCH  23  25
HETATM   25  O   UNK N   1      31.053  16.163   3.737  0.00  0.00    -0.307 OA
HETATM   26  H   UNK N   1      30.688  15.488   3.144  0.00  0.00     0.222 HD
ENDBRANCH  23  25
BRANCH  23  27
HETATM   27  O   UNK N   1      31.505  18.055   3.957  0.00  0.00    -0.307 OA
HETATM   28  H   UNK N   1      31.589  18.511   4.809  0.00  0.00     0.222 HD
ENDBRANCH  23  27
ENDBRANCH  22  23
ENDBRANCH  21  22
ENDBRANCH   3  21
TORSDOF 10
ENDMDL
MODEL 8
REMARK VINA RESULT:      -5.5     12.950     16.270
REMARK  10 active torsions:
REMARK  status: ('A' for Active; 'I' for Inactive)
REMARK    1  A    between atoms: C_5  and  C_3 
REMARK    2  A    between atoms: O_14  and  C_3 
REMARK    3  A    between atoms: C_7  and  C_4 
REMARK    4  A    between atoms: O_21  and  C_4 
REMARK    5  A    between atoms: C_6  and  O_15 
REMARK    6  A    between atoms: C_8  and  N_13 
REMARK    7  A    between atoms: O_16  and  C_9 
REMARK    8  A    between atoms: P_23  and  O_18 
REMARK    9  A    between atoms: P_23  and  O_19 
REMARK   10  A    between atoms: P_23  and  O_21 
ROOT
HETATM    1  C   UNK N   1      27.807  23.914  -3.341  0.00  0.00     0.088 C 
HETATM    2  C   UNK N   1      27.303  25.278  -3.687  0.00  0.00     0.153 C 
HETATM    3  C   UNK N   1      27.882  25.463  -5.093  0.00  0.00     0.177 C 
HETATM    4  C   UNK N   1      29.212  24.067  -3.900  0.00  0.00     0.235 C 
HETATM    5  O   UNK N   1      29.075  24.696  -5.160  0.00  0.00    -0.356 OA
ENDROOT
BRANCH   4   6
HETATM    6  N   UNK N   1      29.946  22.788  -3.961  0.00  0.00    -0.282 N 
HETATM    7  C   UNK N   1      29.944  22.044  -5.105  0.00  0.00     0.112 A 
HETATM    8  C   UNK N   1      30.703  20.875  -5.209  0.00  0.00     0.032 A 
HETATM    9  C   UNK N   1      31.485  20.487  -4.103  0.00  0.00     0.153 A 
HETATM   10  N   UNK N   1      31.463  21.236  -2.973  0.00  0.00    -0.288 N 
HETATM   11  C   UNK N   1      30.708  22.372  -2.884  0.00  0.00     0.330 A 
ATOM     12  HN  UNK N   1      32.023  20.945  -2.171  1.00  0.00     0.172 HD
HETATM   13  O   UNK N   1      30.740  23.030  -1.857  0.00  0.00    -0.246 OA
BRANCH   8  14
HETATM   14  C   UNK N   1      30.645  20.117  -6.512  0.00  0.00     0.208 C 
BRANCH  14  15
HETATM   15  O   UNK N   1      31.900  19.777  -7.017  0.00  0.00    -0.396 OA
HETATM   16  H   UNK N   1      32.382  19.013  -6.662  0.00  0.00     0.209 HD
ENDBRANCH  14  15
ENDBRANCH   8  14
BRANCH   9  17
HETATM   17  O   UNK N   1      32.261  19.390  -4.142  0.00  0.00    -0.345 OA
HETATM   18  H   UNK N   1      31.988  18.633  -4.622  0.00  0.00     0.219 HD
ENDBRANCH   9  17
ENDBRANCH   4   6
BRANCH   2  19
HETATM   19  O   UNK N   1      25.913  25.386  -3.616  0.00  0.00    -0.393 OA
HETATM   20  H   UNK N   1      25.137  24.994  -4.045  0.00  0.00     0.210 HD
ENDBRANCH   2  19
BRANCH   3  21
HETATM   21  C   UNK N   1      26.944  24.995  -6.214  0.00  0.00     0.215 C 
BRANCH  21  22
HETATM   22  O   UNK N   1      26.295  23.792  -5.880  0.00  0.00    -0.294 OA
BRANCH  22  23
HETATM   23  P   UNK N   1      25.982  22.966  -7.388  0.00  0.00     0.390 P 
HETATM   24  O   UNK N   1      25.026  22.199  -6.435  0.00  0.00    -0.632 OA
BRANCH  23  25
HETATM   25  O   UNK N   1      24.454  23.087  -8.203  0.00  0.00    -0.307 OA
HETATM   26  H   UNK N   1      23.776  23.705  -7.886  0.00  0.00     0.222 HD
ENDBRANCH  23  25
BRANCH  23  27
HETATM   27  O   UNK N   1      25.450  24.616  -7.497  0.00  0.00    -0.307 OA
HETATM   28  H   UNK N   1      25.488  25.119  -8.326  0.00  0.00     0.222 HD
ENDBRANCH  23  27
ENDBRANCH  22  23
ENDBRANCH  21  22
ENDBRANCH   3  21
TORSDOF 10
ENDMDL
MODEL 9
REMARK VINA RESULT:      -5.5      8.131     12.428
REMARK  10 active torsions:
REMARK  status: ('A' for Active; 'I' for Inactive)
REMARK    1  A    between atoms: C_5  and  C_3 
REMARK    2  A    between atoms: O_14  and  C_3 
REMARK    3  A    between atoms: C_7  and  C_4 
REMARK    4  A    between atoms: O_21  and  C_4 
REMARK    5  A    between atoms: C_6  and  O_15 
REMARK    6  A    between atoms: C_8  and  N_13 
REMARK    7  A    between atoms: O_16  and  C_9 
REMARK    8  A    between atoms: P_23  and  O_18 
REMARK    9  A    between atoms: P_23  and  O_19 
REMARK   10  A    between atoms: P_23  and  O_21 
ROOT
HETATM    1  C   UNK N   1      22.232  15.969   3.067  0.00  0.00     0.088 C 
HETATM    2  C   UNK N   1      20.743  15.847   3.096  0.00  0.00     0.153 C 
HETATM    3  C   UNK N   1      20.330  17.291   3.399  0.00  0.00     0.177 C 
HETATM    4  C   UNK N   1      22.385  16.889   4.268  0.00  0.00     0.235 C 
HETATM    5  O   UNK N   1      21.387  17.883   4.141  0.00  0.00    -0.356 OA
ENDROOT
BRANCH   4   6
HETATM    6  N   UNK N   1      23.748  17.442   4.395  0.00  0.00    -0.282 N 
HETATM    7  C   UNK N   1      24.122  18.532   3.664  0.00  0.00     0.112 A 
HETATM    8  C   UNK N   1      25.379  19.121   3.835  0.00  0.00     0.032 A 
HETATM    9  C   UNK N   1      26.249  18.566   4.794  0.00  0.00     0.153 A 
HETATM   10  N   UNK N   1      25.860  17.477   5.501  0.00  0.00    -0.288 N 
HETATM   11  C   UNK N   1      24.632  16.907   5.315  0.00  0.00     0.330 A 
ATOM     12  HN  UNK N   1      26.499  17.074   6.187  1.00  0.00     0.172 HD
HETATM   13  O   UNK N   1      24.313  15.943   5.993  0.00  0.00    -0.246 OA
BRANCH   8  14
HETATM   14  C   UNK N   1      25.707  20.324   2.988  0.00  0.00     0.208 C 
BRANCH  14  15
HETATM   15  O   UNK N   1      24.609  20.840   2.299  0.00  0.00    -0.396 OA
HETATM   16  H   UNK N   1      23.816  20.297   2.163  0.00  0.00     0.209 HD
ENDBRANCH  14  15
ENDBRANCH   8  14
BRANCH   9  17
HETATM   17  O   UNK N   1      27.461  19.098   5.031  0.00  0.00    -0.345 OA
HETATM   18  H   UNK N   1      27.589  19.688   5.747  0.00  0.00     0.219 HD
ENDBRANCH   9  17
ENDBRANCH   4   6
BRANCH   2  19
HETATM   19  O   UNK N   1      20.209  15.330   1.914  0.00  0.00    -0.393 OA
HETATM   20  H   UNK N   1      20.170  14.478   1.453  0.00  0.00     0.210 HD
ENDBRANCH   2  19
BRANCH   3  21
HETATM   21  C   UNK N   1      20.086  18.140   2.144  0.00  0.00     0.215 C 
BRANCH  21  22
HETATM   22  O   UNK N   1      21.161  19.013   1.892  0.00  0.00    -0.294 OA
BRANCH  22  23
HETATM   23  P   UNK N   1      20.454  20.569   1.521  0.00  0.00     0.390 P 
HETATM   24  O   UNK N   1      21.887  20.995   1.940  0.00  0.00    -0.632 OA
BRANCH  23  25
HETATM   25  O   UNK N   1      20.980  21.518   0.167  0.00  0.00    -0.307 OA
HETATM   26  H   UNK N   1      21.325  22.415   0.300  0.00  0.00     0.222 HD
ENDBRANCH  23  25
BRANCH  23  27
HETATM   27  O   UNK N   1      20.561  19.609   0.077  0.00  0.00    -0.307 OA
HETATM   28  H   UNK N   1      20.053  18.791  -0.040  0.00  0.00     0.222 HD
ENDBRANCH  23  27
ENDBRANCH  22  23
ENDBRANCH  21  22
ENDBRANCH   3  21
TORSDOF 10
ENDMDL
