REMARK  1 active torsions:
REMARK  status: ('A' for Active; 'I' for Inactive)
REMARK    1  A    between atoms: C_8  and  N_9 
ROOT
HETATM    1  C   UNK N   1       3.459   1.651   0.000  0.00  0.00     0.046 C 
HETATM    2  C   UNK N   1       2.189   0.870   0.000  0.00  0.00    -0.057 A 
HETATM    3  C   UNK N   1       2.233  -0.473  -0.000  0.00  0.00     0.005 A 
HETATM    4  C   UNK N   1       0.993  -1.299  -0.000  0.00  0.00     0.001 A 
HETATM    5  C   UNK N   1      -0.233  -0.745  -0.000  0.00  0.00     0.009 A 
HETATM    6  C   UNK N   1      -0.392   0.722   0.000  0.00  0.00    -0.041 A 
HETATM    7  C   UNK N   1      -1.606   1.267   0.000  0.00  0.00     0.021 C 
HETATM    8  C   UNK N   1       0.853   1.560  -0.000  0.00  0.00     0.136 A 
ENDROOT
BRANCH   8   9
HETATM    9  N   UNK N   1       0.773   3.013   0.000  0.00  0.00    -0.419 N 
HETATM   10  H   UNK N   1       1.627   3.571   0.000  0.00  0.00     0.150 HD
HETATM   11  H   UNK N   1      -0.137   3.474   0.000  0.00  0.00     0.150 HD
ENDBRANCH   8   9
TORSDOF 1
