MODEL 1
REMARK VINA RESULT:      -5.7      0.000      0.000
REMARK  3 active torsions:
REMARK  status: ('A' for Active; 'I' for Inactive)
REMARK    1  A    between atoms: O_1  and  N_2 
REMARK       I    between atoms: N_2  and  C_3 
REMARK    2  A    between atoms: C_3  and  C_5 
REMARK    3  A    between atoms: C_10  and  O_11 
ROOT
HETATM    1  C   UNK N   1      33.439  17.727   7.455  0.00  0.00     0.067 A 
HETATM    2  C   UNK N   1      33.798  17.626   6.101  0.00  0.00     0.020 A 
HETATM    3  C   UNK N   1      32.841  17.320   5.129  0.00  0.00     0.001 A 
HETATM    4  C   UNK N   1      31.513  17.111   5.499  0.00  0.00     0.003 A 
HETATM    5  C   UNK N   1      31.139  17.207   6.840  0.00  0.00     0.037 A 
HETATM    6  C   UNK N   1      32.087  17.513   7.819  0.00  0.00     0.081 A 
ENDROOT
BRANCH   1   7
HETATM    7  C   UNK N   1      34.488  18.055   8.459  0.00  0.00     0.277 C 
HETATM    8  N   UNK N   1      34.709  17.237   9.515  0.00  0.00    -0.233 N 
HETATM    9  H   UNK N   1      34.169  16.420   9.615  0.00  0.00     0.197 HD
HETATM   10  O   UNK N   1      35.157  19.071   8.331  0.00  0.00    -0.265 OA
BRANCH   8  11
HETATM   11  O   UNK N   1      35.650  17.521  10.425  0.00  0.00    -0.287 OA
HETATM   12  H   UNK N   1      36.371  16.893  10.590  0.00  0.00     0.244 HD
ENDBRANCH   8  11
ENDBRANCH   1   7
BRANCH   6  13
HETATM   13  O   UNK N   1      31.688  17.597   9.100  0.00  0.00    -0.360 OA
HETATM   14  H   UNK N   1      31.676  18.429   9.534  0.00  0.00     0.217 HD
ENDBRANCH   6  13
TORSDOF 3
ENDMDL
MODEL 2
REMARK VINA RESULT:      -5.7      1.225      2.041
REMARK  3 active torsions:
REMARK  status: ('A' for Active; 'I' for Inactive)
REMARK    1  A    between atoms: O_1  and  N_2 
REMARK       I    between atoms: N_2  and  C_3 
REMARK    2  A    between atoms: C_3  and  C_5 
REMARK    3  A    between atoms: C_10  and  O_11 
ROOT
HETATM    1  C   UNK N   1      33.024  17.725   7.768  0.00  0.00     0.067 A 
HETATM    2  C   UNK N   1      31.772  17.660   8.402  0.00  0.00     0.020 A 
HETATM    3  C   UNK N   1      30.617  17.371   7.672  0.00  0.00     0.001 A 
HETATM    4  C   UNK N   1      30.697  17.142   6.298  0.00  0.00     0.003 A 
HETATM    5  C   UNK N   1      31.932  17.202   5.653  0.00  0.00     0.037 A 
HETATM    6  C   UNK N   1      33.094  17.490   6.373  0.00  0.00     0.081 A 
ENDROOT
BRANCH   1   7
HETATM    7  C   UNK N   1      34.232  18.036   8.581  0.00  0.00     0.277 C 
HETATM    8  N   UNK N   1      34.551  17.277   9.656  0.00  0.00    -0.233 N 
HETATM    9  H   UNK N   1      33.977  16.514   9.897  0.00  0.00     0.197 HD
HETATM   10  O   UNK N   1      34.942  18.984   8.278  0.00  0.00    -0.265 OA
BRANCH   8  11
HETATM   11  O   UNK N   1      35.635  17.546  10.396  0.00  0.00    -0.287 OA
HETATM   12  H   UNK N   1      35.783  17.072  11.229  0.00  0.00     0.244 HD
ENDBRANCH   8  11
ENDBRANCH   1   7
BRANCH   6  13
HETATM   13  O   UNK N   1      34.266  17.539   5.715  0.00  0.00    -0.360 OA
HETATM   14  H   UNK N   1      34.879  16.835   5.797  0.00  0.00     0.217 HD
ENDBRANCH   6  13
TORSDOF 3
ENDMDL
MODEL 3
REMARK VINA RESULT:      -5.1     11.889     13.033
REMARK  3 active torsions:
REMARK  status: ('A' for Active; 'I' for Inactive)
REMARK    1  A    between atoms: O_1  and  N_2 
REMARK       I    between atoms: N_2  and  C_3 
REMARK    2  A    between atoms: C_3  and  C_5 
REMARK    3  A    between atoms: C_10  and  O_11 
ROOT
HETATM    1  C   UNK N   1      22.051  13.158  10.193  0.00  0.00     0.067 A 
HETATM    2  C   UNK N   1      23.118  13.563   9.374  0.00  0.00     0.020 A 
HETATM    3  C   UNK N   1      24.409  13.075   9.592  0.00  0.00     0.001 A 
HETATM    4  C   UNK N   1      24.651  12.176  10.631  0.00  0.00     0.003 A 
HETATM    5  C   UNK N   1      23.603  11.765  11.454  0.00  0.00     0.037 A 
HETATM    6  C   UNK N   1      22.308  12.246  11.245  0.00  0.00     0.081 A 
ENDROOT
BRANCH   1   7
HETATM    7  C   UNK N   1      20.690  13.701   9.929  0.00  0.00     0.277 C 
HETATM    8  N   UNK N   1      20.534  14.877   9.275  0.00  0.00    -0.233 N 
HETATM    9  H   UNK N   1      21.331  15.373   8.974  0.00  0.00     0.197 HD
HETATM   10  O   UNK N   1      19.705  13.083  10.303  0.00  0.00    -0.265 OA
BRANCH   8  11
HETATM   11  O   UNK N   1      19.316  15.377   9.030  0.00  0.00    -0.287 OA
HETATM   12  H   UNK N   1      18.527  14.897   9.324  0.00  0.00     0.244 HD
ENDBRANCH   8  11
ENDBRANCH   1   7
BRANCH   6  13
HETATM   13  O   UNK N   1      21.323  11.826  12.060  0.00  0.00    -0.360 OA
HETATM   14  H   UNK N   1      20.588  12.382  12.232  0.00  0.00     0.217 HD
ENDBRANCH   6  13
TORSDOF 3
ENDMDL
MODEL 4
REMARK VINA RESULT:      -5.0      9.907     11.388
REMARK  3 active torsions:
REMARK  status: ('A' for Active; 'I' for Inactive)
REMARK    1  A    between atoms: O_1  and  N_2 
REMARK       I    between atoms: N_2  and  C_3 
REMARK    2  A    between atoms: C_3  and  C_5 
REMARK    3  A    between atoms: C_10  and  O_11 
ROOT
HETATM    1  C   UNK N   1      35.485  12.683  17.085  0.00  0.00     0.067 A 
HETATM    2  C   UNK N   1      35.452  11.279  17.115  0.00  0.00     0.020 A 
HETATM    3  C   UNK N   1      35.301  10.594  18.324  0.00  0.00     0.001 A 
HETATM    4  C   UNK N   1      35.181  11.304  19.518  0.00  0.00     0.003 A 
HETATM    5  C   UNK N   1      35.211  12.699  19.506  0.00  0.00     0.037 A 
HETATM    6  C   UNK N   1      35.361  13.393  18.304  0.00  0.00     0.081 A 
ENDROOT
BRANCH   1   7
HETATM    7  C   UNK N   1      35.647  13.375  15.777  0.00  0.00     0.277 C 
HETATM    8  N   UNK N   1      36.755  14.109  15.520  0.00  0.00    -0.233 N 
HETATM    9  H   UNK N   1      37.456  14.183  16.208  0.00  0.00     0.197 HD
HETATM   10  O   UNK N   1      34.774  13.280  14.926  0.00  0.00    -0.265 OA
BRANCH   8  11
HETATM   11  O   UNK N   1      36.914  14.737  14.347  0.00  0.00    -0.287 OA
HETATM   12  H   UNK N   1      37.020  15.700  14.323  0.00  0.00     0.244 HD
ENDBRANCH   8  11
ENDBRANCH   1   7
BRANCH   6  13
HETATM   13  O   UNK N   1      35.386  14.738  18.333  0.00  0.00    -0.360 OA
HETATM   14  H   UNK N   1      34.583  15.222  18.313  0.00  0.00     0.217 HD
ENDBRANCH   6  13
TORSDOF 3
ENDMDL
MODEL 5
REMARK VINA RESULT:      -5.0     10.610     11.462
REMARK  3 active torsions:
REMARK  status: ('A' for Active; 'I' for Inactive)
REMARK    1  A    between atoms: O_1  and  N_2 
REMARK       I    between atoms: N_2  and  C_3 
REMARK    2  A    between atoms: C_3  and  C_5 
REMARK    3  A    between atoms: C_10  and  O_11 
ROOT
HETATM    1  C   UNK N   1      42.586  21.928   3.093  0.00  0.00     0.067 A 
HETATM    2  C   UNK N   1      42.376  20.572   3.395  0.00  0.00     0.020 A 
HETATM    3  C   UNK N   1      41.239  19.905   2.932  0.00  0.00     0.001 A 
HETATM    4  C   UNK N   1      40.296  20.584   2.160  0.00  0.00     0.003 A 
HETATM    5  C   UNK N   1      40.489  21.931   1.850  0.00  0.00     0.037 A 
HETATM    6  C   UNK N   1      41.622  22.608   2.308  0.00  0.00     0.081 A 
ENDROOT
BRANCH   1   7
HETATM    7  C   UNK N   1      43.810  22.602   3.606  0.00  0.00     0.277 C 
HETATM    8  N   UNK N   1      44.957  21.905   3.780  0.00  0.00    -0.233 N 
HETATM    9  H   UNK N   1      44.977  20.944   3.564  0.00  0.00     0.197 HD
HETATM   10  O   UNK N   1      43.781  23.795   3.872  0.00  0.00    -0.265 OA
BRANCH   8  11
HETATM   11  O   UNK N   1      46.066  22.499   4.240  0.00  0.00    -0.287 OA
HETATM   12  H   UNK N   1      46.496  22.167   5.043  0.00  0.00     0.244 HD
ENDBRANCH   8  11
ENDBRANCH   1   7
BRANCH   6  13
HETATM   13  O   UNK N   1      41.773  23.905   1.989  0.00  0.00    -0.360 OA
HETATM   14  H   UNK N   1      42.456  24.410   2.387  0.00  0.00     0.217 HD
ENDBRANCH   6  13
TORSDOF 3
ENDMDL
MODEL 6
REMARK VINA RESULT:      -4.9      9.389     10.922
REMARK  3 active torsions:
REMARK  status: ('A' for Active; 'I' for Inactive)
REMARK    1  A    between atoms: O_1  and  N_2 
REMARK       I    between atoms: N_2  and  C_3 
REMARK    2  A    between atoms: C_3  and  C_5 
REMARK    3  A    between atoms: C_10  and  O_11 
ROOT
HETATM    1  C   UNK N   1      35.536  12.838  16.449  0.00  0.00     0.067 A 
HETATM    2  C   UNK N   1      35.301  13.701  17.532  0.00  0.00     0.020 A 
HETATM    3  C   UNK N   1      35.193  13.202  18.833  0.00  0.00     0.001 A 
HETATM    4  C   UNK N   1      35.319  11.832  19.068  0.00  0.00     0.003 A 
HETATM    5  C   UNK N   1      35.552  10.961  18.004  0.00  0.00     0.037 A 
HETATM    6  C   UNK N   1      35.661  11.450  16.699  0.00  0.00     0.081 A 
ENDROOT
BRANCH   1   7
HETATM    7  C   UNK N   1      35.644  13.410  15.079  0.00  0.00     0.277 C 
HETATM    8  N   UNK N   1      36.711  14.167  14.733  0.00  0.00    -0.233 N 
HETATM    9  H   UNK N   1      37.419  14.339  15.396  0.00  0.00     0.197 HD
HETATM   10  O   UNK N   1      34.764  13.195  14.258  0.00  0.00    -0.265 OA
BRANCH   8  11
HETATM   11  O   UNK N   1      36.821  14.688  13.503  0.00  0.00    -0.287 OA
HETATM   12  H   UNK N   1      36.529  15.596  13.333  0.00  0.00     0.244 HD
ENDBRANCH   8  11
ENDBRANCH   1   7
BRANCH   6  13
HETATM   13  O   UNK N   1      35.886  10.579  15.700  0.00  0.00    -0.360 OA
HETATM   14  H   UNK N   1      35.185  10.048  15.374  0.00  0.00     0.217 HD
ENDBRANCH   6  13
TORSDOF 3
ENDMDL
MODEL 7
REMARK VINA RESULT:      -4.9     16.255     17.270
REMARK  3 active torsions:
REMARK  status: ('A' for Active; 'I' for Inactive)
REMARK    1  A    between atoms: O_1  and  N_2 
REMARK       I    between atoms: N_2  and  C_3 
REMARK    2  A    between atoms: C_3  and  C_5 
REMARK    3  A    between atoms: C_10  and  O_11 
ROOT
HETATM    1  C   UNK N   1      25.834  26.753  -4.804  0.00  0.00     0.067 A 
HETATM    2  C   UNK N   1      25.555  26.944  -6.168  0.00  0.00     0.020 A 
HETATM    3  C   UNK N   1      25.606  25.872  -7.064  0.00  0.00     0.001 A 
HETATM    4  C   UNK N   1      25.936  24.596  -6.608  0.00  0.00     0.003 A 
HETATM    5  C   UNK N   1      26.215  24.389  -5.257  0.00  0.00     0.037 A 
HETATM    6  C   UNK N   1      26.167  25.453  -4.353  0.00  0.00     0.081 A 
ENDROOT
BRANCH   1   7
HETATM    7  C   UNK N   1      25.769  27.920  -3.883  0.00  0.00     0.277 C 
HETATM    8  N   UNK N   1      26.011  29.171  -4.340  0.00  0.00    -0.233 N 
HETATM    9  H   UNK N   1      26.231  29.305  -5.291  0.00  0.00     0.197 HD
HETATM   10  O   UNK N   1      25.496  27.750  -2.704  0.00  0.00    -0.265 OA
BRANCH   8  11
HETATM   11  O   UNK N   1      25.956  30.231  -3.522  0.00  0.00    -0.287 OA
HETATM   12  H   UNK N   1      26.752  30.759  -3.358  0.00  0.00     0.244 HD
ENDBRANCH   8  11
ENDBRANCH   1   7
BRANCH   6  13
HETATM   13  O   UNK N   1      26.443  25.214  -3.059  0.00  0.00    -0.360 OA
HETATM   14  H   UNK N   1      27.226  25.558  -2.675  0.00  0.00     0.217 HD
ENDBRANCH   6  13
TORSDOF 3
ENDMDL
MODEL 8
REMARK VINA RESULT:      -4.8     15.090     16.088
REMARK  3 active torsions:
REMARK  status: ('A' for Active; 'I' for Inactive)
REMARK    1  A    between atoms: O_1  and  N_2 
REMARK       I    between atoms: N_2  and  C_3 
REMARK    2  A    between atoms: C_3  and  C_5 
REMARK    3  A    between atoms: C_10  and  O_11 
ROOT
HETATM    1  C   UNK N   1      26.433  25.585  -4.077  0.00  0.00     0.067 A 
HETATM    2  C   UNK N   1      26.435  26.807  -3.384  0.00  0.00     0.020 A 
HETATM    3  C   UNK N   1      25.685  27.892  -3.847  0.00  0.00     0.001 A 
HETATM    4  C   UNK N   1      24.923  27.768  -5.009  0.00  0.00     0.003 A 
HETATM    5  C   UNK N   1      24.910  26.562  -5.709  0.00  0.00     0.037 A 
HETATM    6  C   UNK N   1      25.656  25.471  -5.255  0.00  0.00     0.081 A 
ENDROOT
BRANCH   1   7
HETATM    7  C   UNK N   1      27.246  24.454  -3.550  0.00  0.00     0.277 C 
HETATM    8  N   UNK N   1      28.355  24.040  -4.208  0.00  0.00    -0.233 N 
HETATM    9  H   UNK N   1      28.622  24.493  -5.040  0.00  0.00     0.197 HD
HETATM   10  O   UNK N   1      26.911  23.894  -2.517  0.00  0.00    -0.265 OA
BRANCH   8  11
HETATM   11  O   UNK N   1      29.095  23.024  -3.745  0.00  0.00    -0.287 OA
HETATM   12  H   UNK N   1      29.827  22.676  -4.276  0.00  0.00     0.244 HD
ENDBRANCH   8  11
ENDBRANCH   1   7
BRANCH   6  13
HETATM   13  O   UNK N   1      25.618  24.325  -5.957  0.00  0.00    -0.360 OA
HETATM   14  H   UNK N   1      26.416  23.902  -6.207  0.00  0.00     0.217 HD
ENDBRANCH   6  13
TORSDOF 3
ENDMDL
MODEL 9
REMARK VINA RESULT:      -4.7      1.697      2.665
REMARK  3 active torsions:
REMARK  status: ('A' for Active; 'I' for Inactive)
REMARK    1  A    between atoms: O_1  and  N_2 
REMARK       I    between atoms: N_2  and  C_3 
REMARK    2  A    between atoms: C_3  and  C_5 
REMARK    3  A    between atoms: C_10  and  O_11 
ROOT
HETATM    1  C   UNK N   1      34.212  16.823   9.130  0.00  0.00     0.067 A 
HETATM    2  C   UNK N   1      33.259  15.795   9.030  0.00  0.00     0.020 A 
HETATM    3  C   UNK N   1      32.222  15.871   8.096  0.00  0.00     0.001 A 
HETATM    4  C   UNK N   1      32.125  16.976   7.249  0.00  0.00     0.003 A 
HETATM    5  C   UNK N   1      33.063  18.005   7.334  0.00  0.00     0.037 A 
HETATM    6  C   UNK N   1      34.103  17.939   8.265  0.00  0.00     0.081 A 
ENDROOT
BRANCH   1   7
HETATM    7  C   UNK N   1      35.301  16.704  10.138  0.00  0.00     0.277 C 
HETATM    8  N   UNK N   1      35.673  15.490  10.608  0.00  0.00    -0.233 N 
HETATM    9  H   UNK N   1      35.217  14.682  10.276  0.00  0.00     0.197 HD
HETATM   10  O   UNK N   1      35.864  17.709  10.546  0.00  0.00    -0.265 OA
BRANCH   8  11
HETATM   11  O   UNK N   1      36.651  15.368  11.515  0.00  0.00    -0.287 OA
HETATM   12  H   UNK N   1      37.196  14.567  11.537  0.00  0.00     0.244 HD
ENDBRANCH   8  11
ENDBRANCH   1   7
BRANCH   6  13
HETATM   13  O   UNK N   1      34.988  18.950   8.317  0.00  0.00    -0.360 OA
HETATM   14  H   UNK N   1      35.889  18.797   8.108  0.00  0.00     0.217 HD
ENDBRANCH   6  13
TORSDOF 3
ENDMDL
