REMARK  4 active torsions:
REMARK  status: ('A' for Active; 'I' for Inactive)
REMARK    1  A    between atoms: C_2  and  O_3 
REMARK    2  A    between atoms: C_2  and  C_4 
REMARK    3  A    between atoms: C_4  and  O_5 
REMARK    4  A    between atoms: C_4  and  C_6 
REMARK       I    between atoms: C_13  and  N_14 
ROOT
HETATM    1  C   UNK N   1       0.236  -1.185  -0.196  0.00  0.00     0.057 A 
HETATM    2  C   UNK N   1       0.267   0.206   0.002  0.00  0.00     0.117 A 
HETATM    3  N   UNK N   1       1.460   0.849   0.120  0.00  0.00    -0.348 N 
ATOM      4  HN  UNK N   1       1.477   1.860   0.255  1.00  0.00     0.167 HD
HETATM    5  C   UNK N   1       2.629   0.160   0.059  0.00  0.00     0.153 A 
HETATM    6  N   UNK N   1       3.818   0.808   0.173  0.00  0.00    -0.174 N 
ATOM      7  HN  UNK N   1       3.831   1.820   0.298  1.00  0.00     0.186 HD
HETATM    8  C   UNK N   1       4.992   0.122   0.121  0.00  0.00     0.680 A 
HETATM    9  N   UNK N   1       6.214   0.813   0.229  0.00  0.00    -0.234 N 
HETATM   10  N   UNK N   1       4.990  -1.230  -0.036  0.00  0.00    -0.154 N 
HETATM   11  C   UNK N   1       3.814  -1.923  -0.158  0.00  0.00     0.290 A 
HETATM   12  O   UNK N   1       3.834  -3.134  -0.295  0.00  0.00    -0.265 OA
HETATM   13  C   UNK N   1       2.603  -1.230  -0.121  0.00  0.00     0.147 A 
HETATM   14  N   UNK N   1       1.411  -1.869  -0.256  0.00  0.00    -0.349 N 
ATOM     15  HN  UNK N   1       1.397  -2.878  -0.405  1.00  0.00     0.166 HD
HETATM   16  H   UNK N   1       7.060   0.315   0.304  0.00  0.00     0.174 HD
HETATM   17  H   UNK N   1       6.223   1.798   0.229  0.00  0.00     0.174 HD
HETATM   18  H   UNK N   1       5.846  -1.717  -0.063  0.00  0.00     0.187 HD
ENDROOT
BRANCH   1  19
HETATM   19  C   UNK N   1      -1.073  -1.915  -0.393  0.00  0.00     0.197 C 
BRANCH  19  20
HETATM   20  C   UNK N   1      -1.205  -3.158   0.492  0.00  0.00     0.148 C 
HETATM   21  C   UNK N   1      -2.552  -3.822   0.266  0.00  0.00     0.042 C 
BRANCH  20  22
HETATM   22  O   UNK N   1      -0.209  -4.082   0.170  0.00  0.00    -0.393 OA
HETATM   23  H   UNK N   1      -0.418  -5.002  -0.054  0.00  0.00     0.210 HD
ENDBRANCH  20  22
ENDBRANCH  19  20
BRANCH  19  24
HETATM   24  O   UNK N   1      -2.154  -1.053  -0.176  0.00  0.00    -0.387 OA
HETATM   25  H   UNK N   1      -2.012  -0.105  -0.025  0.00  0.00     0.210 HD
ENDBRANCH  19  24
ENDBRANCH   1  19
TORSDOF 4
