MODEL 1
REMARK VINA RESULT:      -4.8      0.000      0.000
REMARK  21 active torsions:
REMARK  status: ('A' for Active; 'I' for Inactive)
REMARK    1  A    between atoms: C_3  and  C_2 
REMARK    2  A    between atoms: C_4  and  C_3 
REMARK    3  A    between atoms: C_5  and  C_4 
REMARK    4  A    between atoms: C_6  and  C_5 
REMARK    5  A    between atoms: C_7  and  C_6 
REMARK    6  A    between atoms: C_8  and  C_7 
REMARK    7  A    between atoms: C_9  and  C_8 
REMARK    8  A    between atoms: C_11  and  C_10 
REMARK    9  A    between atoms: C_12  and  C_11 
REMARK   10  A    between atoms: C_13  and  C_12 
REMARK   11  A    between atoms: C_14  and  C_13 
REMARK   12  A    between atoms: C_15  and  C_14 
REMARK   13  A    between atoms: C_16  and  C_15 
REMARK   14  A    between atoms: C_17  and  C_16 
REMARK   15  A    between atoms: C_18  and  C_17 
REMARK   16  A    between atoms: O_25  and  C_18 
REMARK   17  A    between atoms: C_20  and  C_19 
REMARK   18  A    between atoms: O_22  and  C_19 
REMARK   19  A    between atoms: C_21  and  C_20 
REMARK   20  A    between atoms: C_20  and  O_23 
REMARK   21  A    between atoms: O_25  and  C_21 
ROOT
HETATM    1  C   UNK N   1      28.720  27.769  -5.983  0.00  0.00     0.000 C 
ENDROOT
BRANCH   1   2
HETATM    2  C   UNK N   1      27.442  28.541  -6.266  0.00  0.00     0.000 C 
BRANCH   2   3
HETATM    3  C   UNK N   1      26.823  29.088  -4.994  0.00  0.00     0.004 C 
BRANCH   3   4
HETATM    4  C   UNK N   1      25.889  28.071  -4.354  0.00  0.00     0.027 C 
BRANCH   4   5
HETATM    5  C   UNK N   1      25.140  27.323  -5.414  0.00  0.00    -0.031 C 
HETATM    6  C   UNK N   1      25.232  25.991  -5.552  0.00  0.00    -0.031 C 
BRANCH   6   7
HETATM    7  C   UNK N   1      26.083  25.155  -4.641  0.00  0.00     0.027 C 
BRANCH   7   8
HETATM    8  C   UNK N   1      26.734  23.996  -5.383  0.00  0.00     0.004 C 
BRANCH   8   9
HETATM    9  C   UNK N   1      25.745  23.230  -6.246  0.00  0.00     0.000 C 
BRANCH   9  10
HETATM   10  C   UNK N   1      26.269  23.149  -7.668  0.00  0.00     0.000 C 
BRANCH  10  11
HETATM   11  C   UNK N   1      25.362  23.908  -8.622  0.00  0.00     0.000 C 
BRANCH  11  12
HETATM   12  C   UNK N   1      26.172  24.819  -9.534  0.00  0.00    -0.000 C 
BRANCH  12  13
HETATM   13  C   UNK N   1      27.212  25.585  -8.740  0.00  0.00    -0.005 C 
HETATM   14  C   UNK N   1      27.638  26.813  -9.520  0.00  0.00     0.005 C 
ENDBRANCH  12  13
ENDBRANCH  11  12
ENDBRANCH  10  11
ENDBRANCH   9  10
ENDBRANCH   8   9
ENDBRANCH   7   8
ENDBRANCH   6   7
ENDBRANCH   4   5
ENDBRANCH   3   4
ENDBRANCH   2   3
ENDBRANCH   1   2
BRANCH   1  15
HETATM   15  C   UNK N   1      29.529  28.500  -4.923  0.00  0.00     0.000 C 
BRANCH  15  16
HETATM   16  C   UNK N   1      30.036  27.567  -3.830  0.00  0.00     0.002 C 
BRANCH  16  17
HETATM   17  C   UNK N   1      29.795  26.097  -4.158  0.00  0.00     0.027 C 
BRANCH  17  18
HETATM   18  C   UNK N   1      30.879  25.237  -3.524  0.00  0.00     0.178 C 
BRANCH  18  19
HETATM   19  O   UNK N   1      30.465  23.926  -3.546  0.00  0.00    -0.319 OA
BRANCH  19  20
HETATM   20  C   UNK N   1      30.927  22.997  -2.676  0.00  0.00     0.289 C 
HETATM   21  O   UNK N   1      30.478  22.921  -1.541  0.00  0.00    -0.262 OA
BRANCH  20  22
HETATM   22  C   UNK N   1      31.963  22.024  -3.142  0.00  0.00     0.241 C 
BRANCH  22  23
HETATM   23  C   UNK N   1      31.323  21.003  -4.069  0.00  0.00     0.206 C 
BRANCH  23  24
HETATM   24  O   UNK N   1      29.968  21.289  -4.243  0.00  0.00    -0.398 OA
HETATM   25  H   UNK N   1      29.385  21.721  -3.599  0.00  0.00     0.209 HD
ENDBRANCH  23  24
ENDBRANCH  22  23
BRANCH  22  26
HETATM   26  O   UNK N   1      32.497  21.374  -2.028  0.00  0.00    -0.383 OA
HETATM   27  H   UNK N   1      32.998  20.566  -1.835  0.00  0.00     0.210 HD
ENDBRANCH  22  26
ENDBRANCH  20  22
ENDBRANCH  19  20
ENDBRANCH  18  19
ENDBRANCH  17  18
ENDBRANCH  16  17
ENDBRANCH  15  16
ENDBRANCH   1  15
TORSDOF 21
ENDMDL
MODEL 2
REMARK VINA RESULT:      -4.7      1.406      4.235
REMARK  21 active torsions:
REMARK  status: ('A' for Active; 'I' for Inactive)
REMARK    1  A    between atoms: C_3  and  C_2 
REMARK    2  A    between atoms: C_4  and  C_3 
REMARK    3  A    between atoms: C_5  and  C_4 
REMARK    4  A    between atoms: C_6  and  C_5 
REMARK    5  A    between atoms: C_7  and  C_6 
REMARK    6  A    between atoms: C_8  and  C_7 
REMARK    7  A    between atoms: C_9  and  C_8 
REMARK    8  A    between atoms: C_11  and  C_10 
REMARK    9  A    between atoms: C_12  and  C_11 
REMARK   10  A    between atoms: C_13  and  C_12 
REMARK   11  A    between atoms: C_14  and  C_13 
REMARK   12  A    between atoms: C_15  and  C_14 
REMARK   13  A    between atoms: C_16  and  C_15 
REMARK   14  A    between atoms: C_17  and  C_16 
REMARK   15  A    between atoms: C_18  and  C_17 
REMARK   16  A    between atoms: O_25  and  C_18 
REMARK   17  A    between atoms: C_20  and  C_19 
REMARK   18  A    between atoms: O_22  and  C_19 
REMARK   19  A    between atoms: C_21  and  C_20 
REMARK   20  A    between atoms: C_20  and  O_23 
REMARK   21  A    between atoms: O_25  and  C_21 
ROOT
HETATM    1  C   UNK N   1      26.743  26.048  -3.467  0.00  0.00     0.000 C 
ENDROOT
BRANCH   1   2
HETATM    2  C   UNK N   1      25.599  26.733  -4.196  0.00  0.00     0.000 C 
BRANCH   2   3
HETATM    3  C   UNK N   1      25.245  26.016  -5.485  0.00  0.00     0.004 C 
BRANCH   3   4
HETATM    4  C   UNK N   1      25.481  26.908  -6.695  0.00  0.00     0.027 C 
BRANCH   4   5
HETATM    5  C   UNK N   1      25.813  26.072  -7.893  0.00  0.00    -0.031 C 
HETATM    6  C   UNK N   1      27.066  25.955  -8.359  0.00  0.00    -0.031 C 
BRANCH   6   7
HETATM    7  C   UNK N   1      28.226  26.644  -7.701  0.00  0.00     0.027 C 
BRANCH   7   8
HETATM    8  C   UNK N   1      28.773  27.776  -8.561  0.00  0.00     0.004 C 
BRANCH   8   9
HETATM    9  C   UNK N   1      28.916  29.076  -7.788  0.00  0.00     0.000 C 
BRANCH   9  10
HETATM   10  C   UNK N   1      28.491  28.860  -6.348  0.00  0.00     0.000 C 
BRANCH  10  11
HETATM   11  C   UNK N   1      28.064  30.171  -5.708  0.00  0.00     0.000 C 
BRANCH  11  12
HETATM   12  C   UNK N   1      27.214  29.922  -4.470  0.00  0.00    -0.000 C 
BRANCH  12  13
HETATM   13  C   UNK N   1      27.940  30.380  -3.220  0.00  0.00    -0.005 C 
HETATM   14  C   UNK N   1      28.539  29.179  -2.516  0.00  0.00     0.005 C 
ENDBRANCH  12  13
ENDBRANCH  11  12
ENDBRANCH  10  11
ENDBRANCH   9  10
ENDBRANCH   8   9
ENDBRANCH   7   8
ENDBRANCH   6   7
ENDBRANCH   4   5
ENDBRANCH   3   4
ENDBRANCH   2   3
ENDBRANCH   1   2
BRANCH   1  15
HETATM   15  C   UNK N   1      26.899  24.629  -3.992  0.00  0.00     0.000 C 
BRANCH  15  16
HETATM   16  C   UNK N   1      28.305  24.353  -4.512  0.00  0.00     0.002 C 
BRANCH  16  17
HETATM   17  C   UNK N   1      29.245  25.537  -4.315  0.00  0.00     0.027 C 
BRANCH  17  18
HETATM   18  C   UNK N   1      30.418  25.131  -3.435  0.00  0.00     0.178 C 
BRANCH  18  19
HETATM   19  O   UNK N   1      30.784  23.846  -3.761  0.00  0.00    -0.319 OA
BRANCH  19  20
HETATM   20  C   UNK N   1      31.087  22.912  -2.829  0.00  0.00     0.289 C 
HETATM   21  O   UNK N   1      30.542  22.916  -1.735  0.00  0.00    -0.262 OA
BRANCH  20  22
HETATM   22  C   UNK N   1      32.064  21.835  -3.179  0.00  0.00     0.241 C 
BRANCH  22  23
HETATM   23  C   UNK N   1      31.353  20.730  -3.943  0.00  0.00     0.206 C 
BRANCH  23  24
HETATM   24  O   UNK N   1      30.120  21.182  -4.415  0.00  0.00    -0.398 OA
HETATM   25  H   UNK N   1      29.344  20.635  -4.613  0.00  0.00     0.209 HD
ENDBRANCH  23  24
ENDBRANCH  22  23
BRANCH  22  26
HETATM   26  O   UNK N   1      32.598  21.317  -1.997  0.00  0.00    -0.383 OA
HETATM   27  H   UNK N   1      32.780  21.619  -1.094  0.00  0.00     0.210 HD
ENDBRANCH  22  26
ENDBRANCH  20  22
ENDBRANCH  19  20
ENDBRANCH  18  19
ENDBRANCH  17  18
ENDBRANCH  16  17
ENDBRANCH  15  16
ENDBRANCH   1  15
TORSDOF 21
ENDMDL
MODEL 3
REMARK VINA RESULT:      -4.6      1.362      3.283
REMARK  21 active torsions:
REMARK  status: ('A' for Active; 'I' for Inactive)
REMARK    1  A    between atoms: C_3  and  C_2 
REMARK    2  A    between atoms: C_4  and  C_3 
REMARK    3  A    between atoms: C_5  and  C_4 
REMARK    4  A    between atoms: C_6  and  C_5 
REMARK    5  A    between atoms: C_7  and  C_6 
REMARK    6  A    between atoms: C_8  and  C_7 
REMARK    7  A    between atoms: C_9  and  C_8 
REMARK    8  A    between atoms: C_11  and  C_10 
REMARK    9  A    between atoms: C_12  and  C_11 
REMARK   10  A    between atoms: C_13  and  C_12 
REMARK   11  A    between atoms: C_14  and  C_13 
REMARK   12  A    between atoms: C_15  and  C_14 
REMARK   13  A    between atoms: C_16  and  C_15 
REMARK   14  A    between atoms: C_17  and  C_16 
REMARK   15  A    between atoms: C_18  and  C_17 
REMARK   16  A    between atoms: O_25  and  C_18 
REMARK   17  A    between atoms: C_20  and  C_19 
REMARK   18  A    between atoms: O_22  and  C_19 
REMARK   19  A    between atoms: C_21  and  C_20 
REMARK   20  A    between atoms: C_20  and  O_23 
REMARK   21  A    between atoms: O_25  and  C_21 
ROOT
HETATM    1  C   UNK N   1      25.343  27.273  -5.009  0.00  0.00     0.000 C 
ENDROOT
BRANCH   1   2
HETATM    2  C   UNK N   1      25.765  27.730  -3.622  0.00  0.00     0.000 C 
BRANCH   2   3
HETATM    3  C   UNK N   1      26.416  29.099  -3.657  0.00  0.00     0.004 C 
BRANCH   3   4
HETATM    4  C   UNK N   1      26.788  29.498  -5.078  0.00  0.00     0.027 C 
BRANCH   4   5
HETATM    5  C   UNK N   1      28.274  29.640  -5.200  0.00  0.00    -0.031 C 
HETATM    6  C   UNK N   1      28.967  29.081  -6.204  0.00  0.00    -0.031 C 
BRANCH   6   7
HETATM    7  C   UNK N   1      28.295  28.285  -7.286  0.00  0.00     0.027 C 
BRANCH   7   8
HETATM    8  C   UNK N   1      28.368  26.789  -7.014  0.00  0.00     0.004 C 
BRANCH   8   9
HETATM    9  C   UNK N   1      28.082  25.958  -8.254  0.00  0.00     0.000 C 
BRANCH   9  10
HETATM   10  C   UNK N   1      26.673  26.242  -8.741  0.00  0.00     0.000 C 
BRANCH  10  11
HETATM   11  C   UNK N   1      25.741  25.091  -8.396  0.00  0.00     0.000 C 
BRANCH  11  12
HETATM   12  C   UNK N   1      26.527  23.816  -8.129  0.00  0.00    -0.000 C 
BRANCH  12  13
HETATM   13  C   UNK N   1      26.042  22.690  -9.021  0.00  0.00    -0.005 C 
HETATM   14  C   UNK N   1      25.074  21.816  -8.250  0.00  0.00     0.005 C 
ENDBRANCH  12  13
ENDBRANCH  11  12
ENDBRANCH  10  11
ENDBRANCH   9  10
ENDBRANCH   8   9
ENDBRANCH   7   8
ENDBRANCH   6   7
ENDBRANCH   4   5
ENDBRANCH   3   4
ENDBRANCH   2   3
ENDBRANCH   1   2
BRANCH   1  15
HETATM   15  C   UNK N   1      25.438  25.758  -5.094  0.00  0.00     0.000 C 
BRANCH  15  16
HETATM   16  C   UNK N   1      26.321  25.168  -4.000  0.00  0.00     0.002 C 
BRANCH  16  17
HETATM   17  C   UNK N   1      27.458  24.319  -4.560  0.00  0.00     0.027 C 
BRANCH  17  18
HETATM   18  C   UNK N   1      28.658  24.373  -3.626  0.00  0.00     0.178 C 
BRANCH  18  19
HETATM   19  O   UNK N   1      28.744  23.176  -2.957  0.00  0.00    -0.319 OA
BRANCH  19  20
HETATM   20  C   UNK N   1      29.911  22.689  -2.473  0.00  0.00     0.289 C 
HETATM   21  O   UNK N   1      30.381  23.108  -1.425  0.00  0.00    -0.262 OA
BRANCH  20  22
HETATM   22  C   UNK N   1      30.596  21.586  -3.216  0.00  0.00     0.241 C 
BRANCH  22  23
HETATM   23  C   UNK N   1      32.101  21.798  -3.170  0.00  0.00     0.206 C 
BRANCH  23  24
HETATM   24  O   UNK N   1      32.631  21.254  -2.000  0.00  0.00    -0.398 OA
HETATM   25  H   UNK N   1      32.872  20.326  -1.855  0.00  0.00     0.209 HD
ENDBRANCH  23  24
ENDBRANCH  22  23
BRANCH  22  26
HETATM   26  O   UNK N   1      30.161  21.606  -4.543  0.00  0.00    -0.383 OA
HETATM   27  H   UNK N   1      30.259  21.065  -5.342  0.00  0.00     0.210 HD
ENDBRANCH  22  26
ENDBRANCH  20  22
ENDBRANCH  19  20
ENDBRANCH  18  19
ENDBRANCH  17  18
ENDBRANCH  16  17
ENDBRANCH  15  16
ENDBRANCH   1  15
TORSDOF 21
ENDMDL
MODEL 4
REMARK VINA RESULT:      -4.6      1.262      3.338
REMARK  21 active torsions:
REMARK  status: ('A' for Active; 'I' for Inactive)
REMARK    1  A    between atoms: C_3  and  C_2 
REMARK    2  A    between atoms: C_4  and  C_3 
REMARK    3  A    between atoms: C_5  and  C_4 
REMARK    4  A    between atoms: C_6  and  C_5 
REMARK    5  A    between atoms: C_7  and  C_6 
REMARK    6  A    between atoms: C_8  and  C_7 
REMARK    7  A    between atoms: C_9  and  C_8 
REMARK    8  A    between atoms: C_11  and  C_10 
REMARK    9  A    between atoms: C_12  and  C_11 
REMARK   10  A    between atoms: C_13  and  C_12 
REMARK   11  A    between atoms: C_14  and  C_13 
REMARK   12  A    between atoms: C_15  and  C_14 
REMARK   13  A    between atoms: C_16  and  C_15 
REMARK   14  A    between atoms: C_17  and  C_16 
REMARK   15  A    between atoms: C_18  and  C_17 
REMARK   16  A    between atoms: O_25  and  C_18 
REMARK   17  A    between atoms: C_20  and  C_19 
REMARK   18  A    between atoms: O_22  and  C_19 
REMARK   19  A    between atoms: C_21  and  C_20 
REMARK   20  A    between atoms: C_20  and  O_23 
REMARK   21  A    between atoms: O_25  and  C_21 
ROOT
HETATM    1  C   UNK N   1      26.376  24.555  -4.275  0.00  0.00     0.000 C 
ENDROOT
BRANCH   1   2
HETATM    2  C   UNK N   1      26.487  25.957  -3.700  0.00  0.00     0.000 C 
BRANCH   2   3
HETATM    3  C   UNK N   1      25.658  26.954  -4.488  0.00  0.00     0.004 C 
BRANCH   3   4
HETATM    4  C   UNK N   1      25.704  28.336  -3.852  0.00  0.00     0.027 C 
BRANCH   4   5
HETATM    5  C   UNK N   1      27.040  28.565  -3.215  0.00  0.00    -0.031 C 
HETATM    6  C   UNK N   1      27.987  29.323  -3.789  0.00  0.00    -0.031 C 
BRANCH   6   7
HETATM    7  C   UNK N   1      27.765  30.009  -5.106  0.00  0.00     0.027 C 
BRANCH   7   8
HETATM    8  C   UNK N   1      28.549  29.344  -6.229  0.00  0.00     0.004 C 
BRANCH   8   9
HETATM    9  C   UNK N   1      27.693  28.397  -7.055  0.00  0.00     0.000 C 
BRANCH   9  10
HETATM   10  C   UNK N   1      28.586  27.410  -7.784  0.00  0.00     0.000 C 
BRANCH  10  11
HETATM   11  C   UNK N   1      27.756  26.350  -8.488  0.00  0.00     0.000 C 
BRANCH  11  12
HETATM   12  C   UNK N   1      26.299  26.422  -8.053  0.00  0.00    -0.000 C 
BRANCH  12  13
HETATM   13  C   UNK N   1      25.767  25.039  -7.732  0.00  0.00    -0.005 C 
HETATM   14  C   UNK N   1      25.765  24.194  -8.991  0.00  0.00     0.005 C 
ENDBRANCH  12  13
ENDBRANCH  11  12
ENDBRANCH  10  11
ENDBRANCH   9  10
ENDBRANCH   8   9
ENDBRANCH   7   8
ENDBRANCH   6   7
ENDBRANCH   4   5
ENDBRANCH   3   4
ENDBRANCH   2   3
ENDBRANCH   1   2
BRANCH   1  15
HETATM   15  C   UNK N   1      27.708  24.152  -4.887  0.00  0.00     0.000 C 
BRANCH  15  16
HETATM   16  C   UNK N   1      28.701  25.307  -4.934  0.00  0.00     0.002 C 
BRANCH  16  17
HETATM   17  C   UNK N   1      30.145  24.846  -4.761  0.00  0.00     0.027 C 
BRANCH  17  18
HETATM   18  C   UNK N   1      30.606  25.102  -3.334  0.00  0.00     0.178 C 
BRANCH  18  19
HETATM   19  O   UNK N   1      31.111  23.931  -2.821  0.00  0.00    -0.319 OA
BRANCH  19  20
HETATM   20  C   UNK N   1      30.335  22.854  -2.555  0.00  0.00     0.289 C 
HETATM   21  O   UNK N   1      29.336  22.955  -1.856  0.00  0.00    -0.262 OA
BRANCH  20  22
HETATM   22  C   UNK N   1      30.688  21.540  -3.175  0.00  0.00     0.241 C 
BRANCH  22  23
HETATM   23  C   UNK N   1      32.200  21.401  -3.250  0.00  0.00     0.206 C 
BRANCH  23  24
HETATM   24  O   UNK N   1      32.733  21.210  -1.974  0.00  0.00    -0.398 OA
HETATM   25  H   UNK N   1      32.463  21.670  -1.164  0.00  0.00     0.209 HD
ENDBRANCH  23  24
ENDBRANCH  22  23
BRANCH  22  26
HETATM   26  O   UNK N   1      30.150  21.495  -4.463  0.00  0.00    -0.383 OA
HETATM   27  H   UNK N   1      29.724  22.102  -5.088  0.00  0.00     0.210 HD
ENDBRANCH  22  26
ENDBRANCH  20  22
ENDBRANCH  19  20
ENDBRANCH  18  19
ENDBRANCH  17  18
ENDBRANCH  16  17
ENDBRANCH  15  16
ENDBRANCH   1  15
TORSDOF 21
ENDMDL
MODEL 5
REMARK VINA RESULT:      -4.6      1.209      2.225
REMARK  21 active torsions:
REMARK  status: ('A' for Active; 'I' for Inactive)
REMARK    1  A    between atoms: C_3  and  C_2 
REMARK    2  A    between atoms: C_4  and  C_3 
REMARK    3  A    between atoms: C_5  and  C_4 
REMARK    4  A    between atoms: C_6  and  C_5 
REMARK    5  A    between atoms: C_7  and  C_6 
REMARK    6  A    between atoms: C_8  and  C_7 
REMARK    7  A    between atoms: C_9  and  C_8 
REMARK    8  A    between atoms: C_11  and  C_10 
REMARK    9  A    between atoms: C_12  and  C_11 
REMARK   10  A    between atoms: C_13  and  C_12 
REMARK   11  A    between atoms: C_14  and  C_13 
REMARK   12  A    between atoms: C_15  and  C_14 
REMARK   13  A    between atoms: C_16  and  C_15 
REMARK   14  A    between atoms: C_17  and  C_16 
REMARK   15  A    between atoms: C_18  and  C_17 
REMARK   16  A    between atoms: O_25  and  C_18 
REMARK   17  A    between atoms: C_20  and  C_19 
REMARK   18  A    between atoms: O_22  and  C_19 
REMARK   19  A    between atoms: C_21  and  C_20 
REMARK   20  A    between atoms: C_20  and  O_23 
REMARK   21  A    between atoms: O_25  and  C_21 
ROOT
HETATM    1  C   UNK N   1      29.228  28.059  -6.022  0.00  0.00     0.000 C 
ENDROOT
BRANCH   1   2
HETATM    2  C   UNK N   1      27.954  28.857  -6.245  0.00  0.00     0.000 C 
BRANCH   2   3
HETATM    3  C   UNK N   1      27.736  29.884  -5.150  0.00  0.00     0.004 C 
BRANCH   3   4
HETATM    4  C   UNK N   1      26.739  29.384  -4.115  0.00  0.00     0.027 C 
BRANCH   4   5
HETATM    5  C   UNK N   1      25.745  28.468  -4.760  0.00  0.00    -0.031 C 
HETATM    6  C   UNK N   1      25.536  27.216  -4.325  0.00  0.00    -0.031 C 
BRANCH   6   7
HETATM    7  C   UNK N   1      26.277  26.651  -3.147  0.00  0.00     0.027 C 
BRANCH   7   8
HETATM    8  C   UNK N   1      26.937  25.320  -3.481  0.00  0.00     0.004 C 
BRANCH   8   9
HETATM    9  C   UNK N   1      26.080  24.459  -4.395  0.00  0.00     0.000 C 
BRANCH   9  10
HETATM   10  C   UNK N   1      26.922  23.950  -5.550  0.00  0.00     0.000 C 
BRANCH  10  11
HETATM   11  C   UNK N   1      26.537  24.646  -6.845  0.00  0.00     0.000 C 
BRANCH  11  12
HETATM   12  C   UNK N   1      25.867  23.675  -7.807  0.00  0.00    -0.000 C 
BRANCH  12  13
HETATM   13  C   UNK N   1      26.111  22.241  -7.377  0.00  0.00    -0.005 C 
HETATM   14  C   UNK N   1      24.796  21.488  -7.361  0.00  0.00     0.005 C 
ENDBRANCH  12  13
ENDBRANCH  11  12
ENDBRANCH  10  11
ENDBRANCH   9  10
ENDBRANCH   8   9
ENDBRANCH   7   8
ENDBRANCH   6   7
ENDBRANCH   4   5
ENDBRANCH   3   4
ENDBRANCH   2   3
ENDBRANCH   1   2
BRANCH   1  15
HETATM   15  C   UNK N   1      30.031  28.692  -4.896  0.00  0.00     0.000 C 
BRANCH  15  16
HETATM   16  C   UNK N   1      30.554  27.661  -3.902  0.00  0.00     0.002 C 
BRANCH  16  17
HETATM   17  C   UNK N   1      30.223  26.230  -4.315  0.00  0.00     0.027 C 
BRANCH  17  18
HETATM   18  C   UNK N   1      30.850  25.247  -3.337  0.00  0.00     0.178 C 
BRANCH  18  19
HETATM   19  O   UNK N   1      30.292  24.009  -3.546  0.00  0.00    -0.319 OA
BRANCH  19  20
HETATM   20  C   UNK N   1      30.488  22.966  -2.704  0.00  0.00     0.289 C 
HETATM   21  O   UNK N   1      30.477  23.125  -1.492  0.00  0.00    -0.262 OA
BRANCH  20  22
HETATM   22  C   UNK N   1      30.665  21.597  -3.281  0.00  0.00     0.241 C 
BRANCH  22  23
HETATM   23  C   UNK N   1      32.145  21.252  -3.329  0.00  0.00     0.206 C 
BRANCH  23  24
HETATM   24  O   UNK N   1      32.666  21.167  -2.037  0.00  0.00    -0.398 OA
HETATM   25  H   UNK N   1      33.600  21.242  -1.788  0.00  0.00     0.209 HD
ENDBRANCH  23  24
ENDBRANCH  22  23
BRANCH  22  26
HETATM   26  O   UNK N   1      30.140  21.587  -4.574  0.00  0.00    -0.383 OA
HETATM   27  H   UNK N   1      29.891  20.934  -5.247  0.00  0.00     0.210 HD
ENDBRANCH  22  26
ENDBRANCH  20  22
ENDBRANCH  19  20
ENDBRANCH  18  19
ENDBRANCH  17  18
ENDBRANCH  16  17
ENDBRANCH  15  16
ENDBRANCH   1  15
TORSDOF 21
ENDMDL
MODEL 6
REMARK VINA RESULT:      -4.6      1.452      2.813
REMARK  21 active torsions:
REMARK  status: ('A' for Active; 'I' for Inactive)
REMARK    1  A    between atoms: C_3  and  C_2 
REMARK    2  A    between atoms: C_4  and  C_3 
REMARK    3  A    between atoms: C_5  and  C_4 
REMARK    4  A    between atoms: C_6  and  C_5 
REMARK    5  A    between atoms: C_7  and  C_6 
REMARK    6  A    between atoms: C_8  and  C_7 
REMARK    7  A    between atoms: C_9  and  C_8 
REMARK    8  A    between atoms: C_11  and  C_10 
REMARK    9  A    between atoms: C_12  and  C_11 
REMARK   10  A    between atoms: C_13  and  C_12 
REMARK   11  A    between atoms: C_14  and  C_13 
REMARK   12  A    between atoms: C_15  and  C_14 
REMARK   13  A    between atoms: C_16  and  C_15 
REMARK   14  A    between atoms: C_17  and  C_16 
REMARK   15  A    between atoms: C_18  and  C_17 
REMARK   16  A    between atoms: O_25  and  C_18 
REMARK   17  A    between atoms: C_20  and  C_19 
REMARK   18  A    between atoms: O_22  and  C_19 
REMARK   19  A    between atoms: C_21  and  C_20 
REMARK   20  A    between atoms: C_20  and  O_23 
REMARK   21  A    between atoms: O_25  and  C_21 
ROOT
HETATM    1  C   UNK N   1      30.191  27.225  -5.996  0.00  0.00     0.000 C 
ENDROOT
BRANCH   1   2
HETATM    2  C   UNK N   1      29.890  28.690  -6.268  0.00  0.00     0.000 C 
BRANCH   2   3
HETATM    3  C   UNK N   1      28.419  28.915  -6.562  0.00  0.00     0.004 C 
BRANCH   3   4
HETATM    4  C   UNK N   1      27.837  30.000  -5.668  0.00  0.00     0.027 C 
BRANCH   4   5
HETATM    5  C   UNK N   1      28.317  29.820  -4.261  0.00  0.00    -0.031 C 
HETATM    6  C   UNK N   1      27.531  29.323  -3.293  0.00  0.00    -0.031 C 
BRANCH   6   7
HETATM    7  C   UNK N   1      26.116  28.899  -3.560  0.00  0.00     0.027 C 
BRANCH   7   8
HETATM    8  C   UNK N   1      25.927  27.401  -3.357  0.00  0.00     0.004 C 
BRANCH   8   9
HETATM    9  C   UNK N   1      26.428  26.588  -4.540  0.00  0.00     0.000 C 
BRANCH   9  10
HETATM   10  C   UNK N   1      25.433  26.686  -5.681  0.00  0.00     0.000 C 
BRANCH  10  11
HETATM   11  C   UNK N   1      25.747  25.662  -6.760  0.00  0.00     0.000 C 
BRANCH  11  12
HETATM   12  C   UNK N   1      26.303  24.383  -6.151  0.00  0.00    -0.000 C 
BRANCH  12  13
HETATM   13  C   UNK N   1      25.828  23.169  -6.926  0.00  0.00    -0.005 C 
HETATM   14  C   UNK N   1      27.025  22.349  -7.363  0.00  0.00     0.005 C 
ENDBRANCH  12  13
ENDBRANCH  11  12
ENDBRANCH  10  11
ENDBRANCH   9  10
ENDBRANCH   8   9
ENDBRANCH   7   8
ENDBRANCH   6   7
ENDBRANCH   4   5
ENDBRANCH   3   4
ENDBRANCH   2   3
ENDBRANCH   1   2
BRANCH   1  15
HETATM   15  C   UNK N   1      30.806  27.083  -4.612  0.00  0.00     0.000 C 
BRANCH  15  16
HETATM   16  C   UNK N   1      30.055  26.084  -3.740  0.00  0.00     0.002 C 
BRANCH  16  17
HETATM   17  C   UNK N   1      29.697  24.806  -4.491  0.00  0.00     0.027 C 
BRANCH  17  18
HETATM   18  C   UNK N   1      28.909  23.872  -3.584  0.00  0.00     0.178 C 
BRANCH  18  19
HETATM   19  O   UNK N   1      29.633  22.717  -3.412  0.00  0.00    -0.319 OA
BRANCH  19  20
HETATM   20  C   UNK N   1      30.678  22.627  -2.555  0.00  0.00     0.289 C 
HETATM   21  O   UNK N   1      30.562  22.963  -1.385  0.00  0.00    -0.262 OA
BRANCH  20  22
HETATM   22  C   UNK N   1      31.969  22.058  -3.049  0.00  0.00     0.241 C 
BRANCH  22  23
HETATM   23  C   UNK N   1      31.698  21.102  -4.200  0.00  0.00     0.206 C 
BRANCH  23  24
HETATM   24  O   UNK N   1      30.774  20.130  -3.814  0.00  0.00    -0.398 OA
HETATM   25  H   UNK N   1      30.953  19.357  -3.256  0.00  0.00     0.209 HD
ENDBRANCH  23  24
ENDBRANCH  22  23
BRANCH  22  26
HETATM   26  O   UNK N   1      32.582  21.367  -2.002  0.00  0.00    -0.383 OA
HETATM   27  H   UNK N   1      32.317  20.849  -1.226  0.00  0.00     0.210 HD
ENDBRANCH  22  26
ENDBRANCH  20  22
ENDBRANCH  19  20
ENDBRANCH  18  19
ENDBRANCH  17  18
ENDBRANCH  16  17
ENDBRANCH  15  16
ENDBRANCH   1  15
TORSDOF 21
ENDMDL
MODEL 7
REMARK VINA RESULT:      -4.6      1.320      2.535
REMARK  21 active torsions:
REMARK  status: ('A' for Active; 'I' for Inactive)
REMARK    1  A    between atoms: C_3  and  C_2 
REMARK    2  A    between atoms: C_4  and  C_3 
REMARK    3  A    between atoms: C_5  and  C_4 
REMARK    4  A    between atoms: C_6  and  C_5 
REMARK    5  A    between atoms: C_7  and  C_6 
REMARK    6  A    between atoms: C_8  and  C_7 
REMARK    7  A    between atoms: C_9  and  C_8 
REMARK    8  A    between atoms: C_11  and  C_10 
REMARK    9  A    between atoms: C_12  and  C_11 
REMARK   10  A    between atoms: C_13  and  C_12 
REMARK   11  A    between atoms: C_14  and  C_13 
REMARK   12  A    between atoms: C_15  and  C_14 
REMARK   13  A    between atoms: C_16  and  C_15 
REMARK   14  A    between atoms: C_17  and  C_16 
REMARK   15  A    between atoms: C_18  and  C_17 
REMARK   16  A    between atoms: O_25  and  C_18 
REMARK   17  A    between atoms: C_20  and  C_19 
REMARK   18  A    between atoms: O_22  and  C_19 
REMARK   19  A    between atoms: C_21  and  C_20 
REMARK   20  A    between atoms: C_20  and  O_23 
REMARK   21  A    between atoms: O_25  and  C_21 
ROOT
HETATM    1  C   UNK N   1      29.639  27.650  -4.704  0.00  0.00     0.000 C 
ENDROOT
BRANCH   1   2
HETATM    2  C   UNK N   1      29.157  28.700  -3.717  0.00  0.00     0.000 C 
BRANCH   2   3
HETATM    3  C   UNK N   1      28.299  29.753  -4.393  0.00  0.00     0.004 C 
BRANCH   3   4
HETATM    4  C   UNK N   1      27.061  29.134  -5.025  0.00  0.00     0.027 C 
BRANCH   4   5
HETATM    5  C   UNK N   1      26.193  28.525  -3.967  0.00  0.00    -0.031 C 
HETATM    6  C   UNK N   1      25.186  27.689  -4.261  0.00  0.00    -0.031 C 
BRANCH   6   7
HETATM    7  C   UNK N   1      24.869  27.292  -5.674  0.00  0.00     0.027 C 
BRANCH   7   8
HETATM    8  C   UNK N   1      25.451  25.929  -6.022  0.00  0.00     0.004 C 
BRANCH   8   9
HETATM    9  C   UNK N   1      26.267  25.956  -7.304  0.00  0.00     0.000 C 
BRANCH   9  10
HETATM   10  C   UNK N   1      25.972  24.711  -8.120  0.00  0.00     0.000 C 
BRANCH  10  11
HETATM   11  C   UNK N   1      25.668  23.531  -7.211  0.00  0.00     0.000 C 
BRANCH  11  12
HETATM   12  C   UNK N   1      26.861  22.590  -7.123  0.00  0.00    -0.000 C 
BRANCH  12  13
HETATM   13  C   UNK N   1      26.847  21.597  -8.269  0.00  0.00    -0.005 C 
HETATM   14  C   UNK N   1      25.623  20.711  -8.155  0.00  0.00     0.005 C 
ENDBRANCH  12  13
ENDBRANCH  11  12
ENDBRANCH  10  11
ENDBRANCH   9  10
ENDBRANCH   8   9
ENDBRANCH   7   8
ENDBRANCH   6   7
ENDBRANCH   4   5
ENDBRANCH   3   4
ENDBRANCH   2   3
ENDBRANCH   1   2
BRANCH   1  15
HETATM   15  C   UNK N   1      29.823  26.323  -3.983  0.00  0.00     0.000 C 
BRANCH  15  16
HETATM   16  C   UNK N   1      29.052  25.188  -4.646  0.00  0.00     0.002 C 
BRANCH  16  17
HETATM   17  C   UNK N   1      27.869  24.716  -3.806  0.00  0.00     0.027 C 
BRANCH  17  18
HETATM   18  C   UNK N   1      28.319  23.634  -2.835  0.00  0.00     0.178 C 
BRANCH  18  19
HETATM   19  O   UNK N   1      29.469  23.061  -3.322  0.00  0.00    -0.319 OA
BRANCH  19  20
HETATM   20  C   UNK N   1      30.500  22.696  -2.523  0.00  0.00     0.289 C 
HETATM   21  O   UNK N   1      30.507  22.981  -1.335  0.00  0.00    -0.262 OA
BRANCH  20  22
HETATM   22  C   UNK N   1      31.613  21.885  -3.108  0.00  0.00     0.241 C 
BRANCH  22  23
HETATM   23  C   UNK N   1      31.035  20.742  -3.927  0.00  0.00     0.206 C 
BRANCH  23  24
HETATM   24  O   UNK N   1      31.970  20.293  -4.860  0.00  0.00    -0.398 OA
HETATM   25  H   UNK N   1      32.906  20.544  -4.902  0.00  0.00     0.209 HD
ENDBRANCH  23  24
ENDBRANCH  22  23
BRANCH  22  26
HETATM   26  O   UNK N   1      32.385  21.370  -2.065  0.00  0.00    -0.383 OA
HETATM   27  H   UNK N   1      33.078  20.702  -1.941  0.00  0.00     0.210 HD
ENDBRANCH  22  26
ENDBRANCH  20  22
ENDBRANCH  19  20
ENDBRANCH  18  19
ENDBRANCH  17  18
ENDBRANCH  16  17
ENDBRANCH  15  16
ENDBRANCH   1  15
TORSDOF 21
ENDMDL
MODEL 8
REMARK VINA RESULT:      -4.5     11.237     14.624
REMARK  21 active torsions:
REMARK  status: ('A' for Active; 'I' for Inactive)
REMARK    1  A    between atoms: C_3  and  C_2 
REMARK    2  A    between atoms: C_4  and  C_3 
REMARK    3  A    between atoms: C_5  and  C_4 
REMARK    4  A    between atoms: C_6  and  C_5 
REMARK    5  A    between atoms: C_7  and  C_6 
REMARK    6  A    between atoms: C_8  and  C_7 
REMARK    7  A    between atoms: C_9  and  C_8 
REMARK    8  A    between atoms: C_11  and  C_10 
REMARK    9  A    between atoms: C_12  and  C_11 
REMARK   10  A    between atoms: C_13  and  C_12 
REMARK   11  A    between atoms: C_14  and  C_13 
REMARK   12  A    between atoms: C_15  and  C_14 
REMARK   13  A    between atoms: C_16  and  C_15 
REMARK   14  A    between atoms: C_17  and  C_16 
REMARK   15  A    between atoms: C_18  and  C_17 
REMARK   16  A    between atoms: O_25  and  C_18 
REMARK   17  A    between atoms: C_20  and  C_19 
REMARK   18  A    between atoms: O_22  and  C_19 
REMARK   19  A    between atoms: C_21  and  C_20 
REMARK   20  A    between atoms: C_20  and  O_23 
REMARK   21  A    between atoms: O_25  and  C_21 
ROOT
HETATM    1  C   UNK N   1      22.326  16.064   5.770  0.00  0.00     0.000 C 
ENDROOT
BRANCH   1   2
HETATM    2  C   UNK N   1      23.668  15.570   6.286  0.00  0.00     0.000 C 
BRANCH   2   3
HETATM    3  C   UNK N   1      24.425  14.793   5.226  0.00  0.00     0.004 C 
BRANCH   3   4
HETATM    4  C   UNK N   1      24.444  15.541   3.901  0.00  0.00     0.027 C 
BRANCH   4   5
HETATM    5  C   UNK N   1      25.833  16.011   3.596  0.00  0.00    -0.031 C 
HETATM    6  C   UNK N   1      26.137  17.311   3.464  0.00  0.00    -0.031 C 
BRANCH   6   7
HETATM    7  C   UNK N   1      25.104  18.389   3.628  0.00  0.00     0.027 C 
BRANCH   7   8
HETATM    8  C   UNK N   1      25.350  19.220   4.880  0.00  0.00     0.004 C 
BRANCH   8   9
HETATM    9  C   UNK N   1      26.164  20.472   4.595  0.00  0.00     0.000 C 
BRANCH   9  10
HETATM   10  C   UNK N   1      27.563  20.306   5.158  0.00  0.00     0.000 C 
BRANCH  10  11
HETATM   11  C   UNK N   1      27.563  19.332   6.325  0.00  0.00     0.000 C 
BRANCH  11  12
HETATM   12  C   UNK N   1      28.668  18.296   6.170  0.00  0.00    -0.000 C 
BRANCH  12  13
HETATM   13  C   UNK N   1      28.935  17.596   7.487  0.00  0.00    -0.005 C 
HETATM   14  C   UNK N   1      28.809  18.591   8.623  0.00  0.00     0.005 C 
ENDBRANCH  12  13
ENDBRANCH  11  12
ENDBRANCH  10  11
ENDBRANCH   9  10
ENDBRANCH   8   9
ENDBRANCH   7   8
ENDBRANCH   6   7
ENDBRANCH   4   5
ENDBRANCH   3   4
ENDBRANCH   2   3
ENDBRANCH   1   2
BRANCH   1  15
HETATM   15  C   UNK N   1      22.235  17.571   5.956  0.00  0.00     0.000 C 
BRANCH  15  16
HETATM   16  C   UNK N   1      21.465  18.251   4.830  0.00  0.00     0.002 C 
BRANCH  16  17
HETATM   17  C   UNK N   1      21.441  17.419   3.552  0.00  0.00     0.027 C 
BRANCH  17  18
HETATM   18  C   UNK N   1      20.013  17.284   3.045  0.00  0.00     0.178 C 
BRANCH  18  19
HETATM   19  O   UNK N   1      19.713  18.390   2.286  0.00  0.00    -0.319 OA
BRANCH  19  20
HETATM   20  C   UNK N   1      20.388  18.708   1.156  0.00  0.00     0.289 C 
HETATM   21  O   UNK N   1      20.430  17.934   0.210  0.00  0.00    -0.262 OA
BRANCH  20  22
HETATM   22  C   UNK N   1      21.040  20.050   1.058  0.00  0.00     0.241 C 
BRANCH  22  23
HETATM   23  C   UNK N   1      20.701  20.873   2.292  0.00  0.00     0.206 C 
BRANCH  23  24
HETATM   24  O   UNK N   1      21.782  21.679   2.649  0.00  0.00    -0.398 OA
HETATM   25  H   UNK N   1      21.849  22.230   3.444  0.00  0.00     0.209 HD
ENDBRANCH  23  24
ENDBRANCH  22  23
BRANCH  22  26
HETATM   26  O   UNK N   1      20.560  20.698  -0.082  0.00  0.00    -0.383 OA
HETATM   27  H   UNK N   1      20.568  20.568  -1.043  0.00  0.00     0.210 HD
ENDBRANCH  22  26
ENDBRANCH  20  22
ENDBRANCH  19  20
ENDBRANCH  18  19
ENDBRANCH  17  18
ENDBRANCH  16  17
ENDBRANCH  15  16
ENDBRANCH   1  15
TORSDOF 21
ENDMDL
MODEL 9
REMARK VINA RESULT:      -4.5     12.049     15.132
REMARK  21 active torsions:
REMARK  status: ('A' for Active; 'I' for Inactive)
REMARK    1  A    between atoms: C_3  and  C_2 
REMARK    2  A    between atoms: C_4  and  C_3 
REMARK    3  A    between atoms: C_5  and  C_4 
REMARK    4  A    between atoms: C_6  and  C_5 
REMARK    5  A    between atoms: C_7  and  C_6 
REMARK    6  A    between atoms: C_8  and  C_7 
REMARK    7  A    between atoms: C_9  and  C_8 
REMARK    8  A    between atoms: C_11  and  C_10 
REMARK    9  A    between atoms: C_12  and  C_11 
REMARK   10  A    between atoms: C_13  and  C_12 
REMARK   11  A    between atoms: C_14  and  C_13 
REMARK   12  A    between atoms: C_15  and  C_14 
REMARK   13  A    between atoms: C_16  and  C_15 
REMARK   14  A    between atoms: C_17  and  C_16 
REMARK   15  A    between atoms: C_18  and  C_17 
REMARK   16  A    between atoms: O_25  and  C_18 
REMARK   17  A    between atoms: C_20  and  C_19 
REMARK   18  A    between atoms: O_22  and  C_19 
REMARK   19  A    between atoms: C_21  and  C_20 
REMARK   20  A    between atoms: C_20  and  O_23 
REMARK   21  A    between atoms: O_25  and  C_21 
ROOT
HETATM    1  C   UNK N   1      29.617  18.066   9.821  0.00  0.00     0.000 C 
ENDROOT
BRANCH   1   2
HETATM    2  C   UNK N   1      28.258  17.963   9.148  0.00  0.00     0.000 C 
BRANCH   2   3
HETATM    3  C   UNK N   1      28.195  18.795   7.881  0.00  0.00     0.004 C 
BRANCH   3   4
HETATM    4  C   UNK N   1      27.866  17.932   6.671  0.00  0.00     0.027 C 
BRANCH   4   5
HETATM    5  C   UNK N   1      28.844  18.198   5.569  0.00  0.00    -0.031 C 
HETATM    6  C   UNK N   1      29.166  17.269   4.656  0.00  0.00    -0.031 C 
BRANCH   6   7
HETATM    7  C   UNK N   1      28.554  15.898   4.669  0.00  0.00     0.027 C 
BRANCH   7   8
HETATM    8  C   UNK N   1      27.781  15.612   3.389  0.00  0.00     0.004 C 
BRANCH   8   9
HETATM    9  C   UNK N   1      26.277  15.702   3.587  0.00  0.00     0.000 C 
BRANCH   9  10
HETATM   10  C   UNK N   1      25.807  17.111   3.273  0.00  0.00     0.000 C 
BRANCH  10  11
HETATM   11  C   UNK N   1      24.915  17.642   4.383  0.00  0.00     0.000 C 
BRANCH  11  12
HETATM   12  C   UNK N   1      25.208  19.110   4.662  0.00  0.00    -0.000 C 
BRANCH  12  13
HETATM   13  C   UNK N   1      25.978  19.730   3.512  0.00  0.00    -0.005 C 
HETATM   14  C   UNK N   1      25.036  20.562   2.664  0.00  0.00     0.005 C 
ENDBRANCH  12  13
ENDBRANCH  11  12
ENDBRANCH  10  11
ENDBRANCH   9  10
ENDBRANCH   8   9
ENDBRANCH   7   8
ENDBRANCH   6   7
ENDBRANCH   4   5
ENDBRANCH   3   4
ENDBRANCH   2   3
ENDBRANCH   1   2
BRANCH   1  15
HETATM   15  C   UNK N   1      30.638  18.590   8.823  0.00  0.00     0.000 C 
BRANCH  15  16
HETATM   16  C   UNK N   1      31.614  17.512   8.368  0.00  0.00     0.002 C 
BRANCH  16  17
HETATM   17  C   UNK N   1      33.065  17.979   8.412  0.00  0.00     0.027 C 
BRANCH  17  18
HETATM   18  C   UNK N   1      33.939  17.046   7.587  0.00  0.00     0.178 C 
BRANCH  18  19
HETATM   19  O   UNK N   1      34.799  16.391   8.435  0.00  0.00    -0.319 OA
BRANCH  19  20
HETATM   20  C   UNK N   1      34.396  15.401   9.267  0.00  0.00     0.289 C 
HETATM   21  O   UNK N   1      33.939  14.356   8.827  0.00  0.00    -0.262 OA
BRANCH  20  22
HETATM   22  C   UNK N   1      34.568  15.584  10.742  0.00  0.00     0.241 C 
BRANCH  22  23
HETATM   23  C   UNK N   1      35.973  15.167  11.146  0.00  0.00     0.206 C 
BRANCH  23  24
HETATM   24  O   UNK N   1      36.887  16.171  10.827  0.00  0.00    -0.398 OA
HETATM   25  H   UNK N   1      37.828  16.189  11.064  0.00  0.00     0.209 HD
ENDBRANCH  23  24
ENDBRANCH  22  23
BRANCH  22  26
HETATM   26  O   UNK N   1      33.634  14.784  11.402  0.00  0.00    -0.383 OA
HETATM   27  H   UNK N   1      33.096  14.818  12.209  0.00  0.00     0.210 HD
ENDBRANCH  22  26
ENDBRANCH  20  22
ENDBRANCH  19  20
ENDBRANCH  18  19
ENDBRANCH  17  18
ENDBRANCH  16  17
ENDBRANCH  15  16
ENDBRANCH   1  15
TORSDOF 21
ENDMDL
