MODEL 1
REMARK VINA RESULT:      -6.9      0.000      0.000
REMARK  5 active torsions:
REMARK  status: ('A' for Active; 'I' for Inactive)
REMARK    1  A    between atoms: C_10  and  C_6 
REMARK    2  A    between atoms: C_6  and  O_20 
REMARK    3  A    between atoms: C_8  and  O_21 
REMARK    4  A    between atoms: C_9  and  O_22 
REMARK    5  A    between atoms: C_12  and  N_19 
ROOT
HETATM    1  C   UNK N   1      34.931  16.347  10.746  0.00  0.00     0.182 C 
HETATM    2  C   UNK N   1      36.124  15.783  11.475  0.00  0.00     0.198 C 
HETATM    3  C   UNK N   1      34.352  15.112  10.082  0.00  0.00     0.183 C 
HETATM    4  C   UNK N   1      35.737  14.298  11.632  0.00  0.00     0.262 C 
HETATM    5  O   UNK N   1      34.443  14.115  11.076  0.00  0.00    -0.353 OA
ENDROOT
BRANCH   4   6
HETATM    6  N   UNK N   1      35.815  13.808  13.012  0.00  0.00    -0.297 N 
HETATM    7  C   UNK N   1      36.448  14.410  14.055  0.00  0.00     0.188 A 
HETATM    8  N   UNK N   1      36.236  13.735  15.221  0.00  0.00    -0.347 N 
HETATM    9  C   UNK N   1      35.458  12.694  14.869  0.00  0.00     0.100 A 
ATOM     10  HN  UNK N   1      36.587  13.967  16.150  1.00  0.00     0.167 HD
HETATM   11  C   UNK N   1      34.927  11.674  15.644  0.00  0.00     0.037 A 
HETATM   12  C   UNK N   1      35.206  12.741  13.546  0.00  0.00     0.140 A 
HETATM   13  C   UNK N   1      35.158  11.606  17.113  0.00  0.00     0.070 C 
HETATM   14  N   UNK N   1      34.172  10.723  15.016  0.00  0.00    -0.354 N 
HETATM   15  C   UNK N   1      33.936  10.785  13.663  0.00  0.00     0.182 A 
ATOM     16  HN  UNK N   1      33.776   9.956  15.559  1.00  0.00     0.166 HD
HETATM   17  N   UNK N   1      34.448  11.811  12.916  0.00  0.00    -0.336 N 
ATOM     18  HN  UNK N   1      34.265  11.873  11.914  1.00  0.00     0.168 HD
ENDBRANCH   4   6
BRANCH   2  19
HETATM   19  O   UNK N   1      37.279  15.870  10.688  0.00  0.00    -0.388 OA
HETATM   20  H   UNK N   1      38.162  15.477  10.613  0.00  0.00     0.210 HD
ENDBRANCH   2  19
BRANCH   1  21
HETATM   21  O   UNK N   1      35.261  17.371   9.852  0.00  0.00    -0.390 OA
HETATM   22  H   UNK N   1      34.568  17.957   9.508  0.00  0.00     0.210 HD
ENDBRANCH   1  21
BRANCH   3  23
HETATM   23  C   UNK N   1      32.896  15.317   9.627  0.00  0.00     0.145 C 
HETATM   24  C   UNK N   1      32.523  14.338   8.524  0.00  0.00     0.042 C 
BRANCH  23  25
HETATM   25  O   UNK N   1      32.033  15.120  10.705  0.00  0.00    -0.393 OA
HETATM   26  H   UNK N   1      31.298  14.493  10.794  0.00  0.00     0.210 HD
ENDBRANCH  23  25
ENDBRANCH   3  23
TORSDOF 5
ENDMDL
MODEL 2
REMARK VINA RESULT:      -6.7      7.435     10.189
REMARK  5 active torsions:
REMARK  status: ('A' for Active; 'I' for Inactive)
REMARK    1  A    between atoms: C_10  and  C_6 
REMARK    2  A    between atoms: C_6  and  O_20 
REMARK    3  A    between atoms: C_8  and  O_21 
REMARK    4  A    between atoms: C_9  and  O_22 
REMARK    5  A    between atoms: C_12  and  N_19 
ROOT
HETATM    1  C   UNK N   1      32.439  17.657   8.279  0.00  0.00     0.182 C 
HETATM    2  C   UNK N   1      31.017  17.508   8.758  0.00  0.00     0.198 C 
HETATM    3  C   UNK N   1      32.452  16.772   7.048  0.00  0.00     0.183 C 
HETATM    4  C   UNK N   1      30.284  17.083   7.469  0.00  0.00     0.262 C 
HETATM    5  O   UNK N   1      31.227  17.056   6.409  0.00  0.00    -0.353 OA
ENDROOT
BRANCH   4   6
HETATM    6  N   UNK N   1      29.120  17.916   7.147  0.00  0.00    -0.297 N 
HETATM    7  C   UNK N   1      28.516  18.821   7.963  0.00  0.00     0.188 A 
HETATM    8  N   UNK N   1      27.526  19.495   7.310  0.00  0.00    -0.347 N 
HETATM    9  C   UNK N   1      27.531  18.977   6.068  0.00  0.00     0.100 A 
ATOM     10  HN  UNK N   1      26.919  20.227   7.681  1.00  0.00     0.167 HD
HETATM   11  C   UNK N   1      26.739  19.281   4.971  0.00  0.00     0.037 A 
HETATM   12  C   UNK N   1      28.487  18.033   5.972  0.00  0.00     0.140 A 
HETATM   13  C   UNK N   1      25.693  20.339   5.029  0.00  0.00     0.070 C 
HETATM   14  N   UNK N   1      26.951  18.579   3.817  0.00  0.00    -0.354 N 
HETATM   15  C   UNK N   1      27.926  17.613   3.745  0.00  0.00     0.182 A 
ATOM     16  HN  UNK N   1      26.378  18.776   2.996  1.00  0.00     0.166 HD
HETATM   17  N   UNK N   1      28.714  17.340   4.830  0.00  0.00    -0.336 N 
ATOM     18  HN  UNK N   1      29.451  16.635   4.780  1.00  0.00     0.168 HD
ENDBRANCH   4   6
BRANCH   2  19
HETATM   19  O   UNK N   1      30.910  16.479   9.701  0.00  0.00    -0.388 OA
HETATM   20  H   UNK N   1      30.268  15.830  10.029  0.00  0.00     0.210 HD
ENDBRANCH   2  19
BRANCH   1  21
HETATM   21  O   UNK N   1      33.388  17.303   9.244  0.00  0.00    -0.390 OA
HETATM   22  H   UNK N   1      33.880  17.992   9.717  0.00  0.00     0.210 HD
ENDBRANCH   1  21
BRANCH   3  23
HETATM   23  C   UNK N   1      33.647  17.070   6.123  0.00  0.00     0.145 C 
HETATM   24  C   UNK N   1      33.179  17.535   4.753  0.00  0.00     0.042 C 
BRANCH  23  25
HETATM   25  O   UNK N   1      34.440  18.072   6.685  0.00  0.00    -0.393 OA
HETATM   26  H   UNK N   1      34.182  18.795   7.277  0.00  0.00     0.210 HD
ENDBRANCH  23  25
ENDBRANCH   3  23
TORSDOF 5
ENDMDL
MODEL 3
REMARK VINA RESULT:      -6.4      3.133      6.537
REMARK  5 active torsions:
REMARK  status: ('A' for Active; 'I' for Inactive)
REMARK    1  A    between atoms: C_10  and  C_6 
REMARK    2  A    between atoms: C_6  and  O_20 
REMARK    3  A    between atoms: C_8  and  O_21 
REMARK    4  A    between atoms: C_9  and  O_22 
REMARK    5  A    between atoms: C_12  and  N_19 
ROOT
HETATM    1  C   UNK N   1      36.789  13.477  11.542  0.00  0.00     0.182 C 
HETATM    2  C   UNK N   1      36.543  14.599  10.566  0.00  0.00     0.198 C 
HETATM    3  C   UNK N   1      36.177  14.028  12.816  0.00  0.00     0.183 C 
HETATM    4  C   UNK N   1      35.348  15.334  11.208  0.00  0.00     0.262 C 
HETATM    5  O   UNK N   1      34.978  14.634  12.386  0.00  0.00    -0.353 OA
ENDROOT
BRANCH   4   6
HETATM    6  N   UNK N   1      34.211  15.521  10.301  0.00  0.00    -0.297 N 
HETATM    7  C   UNK N   1      33.080  14.768  10.246  0.00  0.00     0.188 A 
HETATM    8  N   UNK N   1      32.183  15.282   9.356  0.00  0.00    -0.347 N 
HETATM    9  C   UNK N   1      32.794  16.373   8.857  0.00  0.00     0.100 A 
ATOM     10  HN  UNK N   1      31.258  14.921   9.123  1.00  0.00     0.167 HD
HETATM   11  C   UNK N   1      32.354  17.289   7.914  0.00  0.00     0.037 A 
HETATM   12  C   UNK N   1      34.008  16.515   9.425  0.00  0.00     0.140 A 
HETATM   13  C   UNK N   1      31.008  17.183   7.287  0.00  0.00     0.070 C 
HETATM   14  N   UNK N   1      33.198  18.310   7.575  0.00  0.00    -0.354 N 
HETATM   15  C   UNK N   1      34.436  18.430   8.159  0.00  0.00     0.182 A 
ATOM     16  HN  UNK N   1      32.905  18.994   6.878  1.00  0.00     0.166 HD
HETATM   17  N   UNK N   1      34.847  17.530   9.105  0.00  0.00    -0.336 N 
ATOM     18  HN  UNK N   1      35.758  17.620   9.556  1.00  0.00     0.168 HD
ENDBRANCH   4   6
BRANCH   2  19
HETATM   19  O   UNK N   1      37.638  15.470  10.516  0.00  0.00    -0.388 OA
HETATM   20  H   UNK N   1      37.875  16.354  10.195  0.00  0.00     0.210 HD
ENDBRANCH   2  19
BRANCH   1  21
HETATM   21  O   UNK N   1      38.139  13.133  11.663  0.00  0.00    -0.390 OA
HETATM   22  H   UNK N   1      38.566  13.142  12.534  0.00  0.00     0.210 HD
ENDBRANCH   1  21
BRANCH   3  23
HETATM   23  C   UNK N   1      35.905  12.929  13.860  0.00  0.00     0.145 C 
HETATM   24  C   UNK N   1      36.889  13.016  15.017  0.00  0.00     0.042 C 
BRANCH  23  25
HETATM   25  O   UNK N   1      34.613  13.069  14.366  0.00  0.00    -0.393 OA
HETATM   26  H   UNK N   1      33.772  13.132  13.887  0.00  0.00     0.210 HD
ENDBRANCH  23  25
ENDBRANCH   3  23
TORSDOF 5
ENDMDL
MODEL 4
REMARK VINA RESULT:      -6.4     14.906     17.150
REMARK  5 active torsions:
REMARK  status: ('A' for Active; 'I' for Inactive)
REMARK    1  A    between atoms: C_10  and  C_6 
REMARK    2  A    between atoms: C_6  and  O_20 
REMARK    3  A    between atoms: C_8  and  O_21 
REMARK    4  A    between atoms: C_9  and  O_22 
REMARK    5  A    between atoms: C_12  and  N_19 
ROOT
HETATM    1  C   UNK N   1      22.349  20.589   2.642  0.00  0.00     0.182 C 
HETATM    2  C   UNK N   1      21.038  19.882   2.872  0.00  0.00     0.198 C 
HETATM    3  C   UNK N   1      23.272  19.867   3.605  0.00  0.00     0.183 C 
HETATM    4  C   UNK N   1      21.498  18.524   3.443  0.00  0.00     0.262 C 
HETATM    5  O   UNK N   1      22.917  18.509   3.466  0.00  0.00    -0.353 OA
ENDROOT
BRANCH   4   6
HETATM    6  N   UNK N   1      20.948  17.366   2.730  0.00  0.00    -0.297 N 
HETATM    7  C   UNK N   1      19.904  17.365   1.860  0.00  0.00     0.188 A 
HETATM    8  N   UNK N   1      19.723  16.134   1.301  0.00  0.00    -0.347 N 
HETATM    9  C   UNK N   1      20.683  15.371   1.855  0.00  0.00     0.100 A 
ATOM     10  HN  UNK N   1      19.019  15.856   0.617  1.00  0.00     0.167 HD
HETATM   11  C   UNK N   1      20.982  14.031   1.659  0.00  0.00     0.037 A 
HETATM   12  C   UNK N   1      21.417  16.110   2.709  0.00  0.00     0.140 A 
HETATM   13  C   UNK N   1      20.214  13.189   0.701  0.00  0.00     0.070 C 
HETATM   14  N   UNK N   1      22.019  13.497   2.375  0.00  0.00    -0.354 N 
HETATM   15  C   UNK N   1      22.747  14.268   3.249  0.00  0.00     0.182 A 
ATOM     16  HN  UNK N   1      22.255  12.512   2.257  1.00  0.00     0.166 HD
HETATM   17  N   UNK N   1      22.454  15.595   3.414  0.00  0.00    -0.336 N 
ATOM     18  HN  UNK N   1      22.999  16.178   4.049  1.00  0.00     0.168 HD
ENDBRANCH   4   6
BRANCH   2  19
HETATM   19  O   UNK N   1      20.273  20.545   3.839  0.00  0.00    -0.388 OA
HETATM   20  H   UNK N   1      20.213  21.405   4.283  0.00  0.00     0.210 HD
ENDBRANCH   2  19
BRANCH   1  21
HETATM   21  O   UNK N   1      22.277  21.971   2.851  0.00  0.00    -0.390 OA
HETATM   22  H   UNK N   1      22.778  22.574   2.280  0.00  0.00     0.210 HD
ENDBRANCH   1  21
BRANCH   3  23
HETATM   23  C   UNK N   1      24.759  20.094   3.276  0.00  0.00     0.145 C 
HETATM   24  C   UNK N   1      25.527  18.782   3.276  0.00  0.00     0.042 C 
BRANCH  23  25
HETATM   25  O   UNK N   1      24.878  20.678   2.014  0.00  0.00    -0.393 OA
HETATM   26  H   UNK N   1      25.068  20.257   1.161  0.00  0.00     0.210 HD
ENDBRANCH  23  25
ENDBRANCH   3  23
TORSDOF 5
ENDMDL
MODEL 5
REMARK VINA RESULT:      -6.4      2.813      5.682
REMARK  5 active torsions:
REMARK  status: ('A' for Active; 'I' for Inactive)
REMARK    1  A    between atoms: C_10  and  C_6 
REMARK    2  A    between atoms: C_6  and  O_20 
REMARK    3  A    between atoms: C_8  and  O_21 
REMARK    4  A    between atoms: C_9  and  O_22 
REMARK    5  A    between atoms: C_12  and  N_19 
ROOT
HETATM    1  C   UNK N   1      36.216  11.712  11.315  0.00  0.00     0.182 C 
HETATM    2  C   UNK N   1      36.744  13.113  11.142  0.00  0.00     0.198 C 
HETATM    3  C   UNK N   1      35.403  11.834  12.589  0.00  0.00     0.183 C 
HETATM    4  C   UNK N   1      35.722  13.946  11.944  0.00  0.00     0.262 C 
HETATM    5  O   UNK N   1      34.729  13.066  12.449  0.00  0.00    -0.353 OA
ENDROOT
BRANCH   4   6
HETATM    6  N   UNK N   1      35.135  15.055  11.183  0.00  0.00    -0.297 N 
HETATM    7  C   UNK N   1      35.523  16.358  11.213  0.00  0.00     0.188 A 
HETATM    8  N   UNK N   1      34.830  17.104  10.306  0.00  0.00    -0.347 N 
HETATM    9  C   UNK N   1      33.997  16.226   9.716  0.00  0.00     0.100 A 
ATOM     10  HN  UNK N   1      34.922  18.102  10.117  1.00  0.00     0.167 HD
HETATM   11  C   UNK N   1      33.058  16.420   8.714  0.00  0.00     0.037 A 
HETATM   12  C   UNK N   1      34.183  14.999  10.242  0.00  0.00     0.140 A 
HETATM   13  C   UNK N   1      32.846  17.754   8.088  0.00  0.00     0.070 C 
HETATM   14  N   UNK N   1      32.327  15.338   8.307  0.00  0.00    -0.354 N 
HETATM   15  C   UNK N   1      32.526  14.098   8.865  0.00  0.00     0.182 A 
ATOM     16  HN  UNK N   1      31.624  15.453   7.578  1.00  0.00     0.166 HD
HETATM   17  N   UNK N   1      33.472  13.918   9.837  0.00  0.00    -0.336 N 
ATOM     18  HN  UNK N   1      33.638  12.998  10.245  1.00  0.00     0.168 HD
ENDBRANCH   4   6
BRANCH   2  19
HETATM   19  O   UNK N   1      38.005  13.251  11.735  0.00  0.00    -0.388 OA
HETATM   20  H   UNK N   1      38.466  13.796  12.391  0.00  0.00     0.210 HD
ENDBRANCH   2  19
BRANCH   1  21
HETATM   21  O   UNK N   1      37.224  10.744  11.374  0.00  0.00    -0.390 OA
HETATM   22  H   UNK N   1      37.319  10.097  10.658  0.00  0.00     0.210 HD
ENDBRANCH   1  21
BRANCH   3  23
HETATM   23  C   UNK N   1      34.411  10.671  12.768  0.00  0.00     0.145 C 
HETATM   24  C   UNK N   1      33.692  10.762  14.105  0.00  0.00     0.042 C 
BRANCH  23  25
HETATM   25  O   UNK N   1      33.459  10.703  11.749  0.00  0.00    -0.393 OA
HETATM   26  H   UNK N   1      33.031  11.469  11.335  0.00  0.00     0.210 HD
ENDBRANCH  23  25
ENDBRANCH   3  23
TORSDOF 5
ENDMDL
MODEL 6
REMARK VINA RESULT:      -6.3     18.620     21.111
REMARK  5 active torsions:
REMARK  status: ('A' for Active; 'I' for Inactive)
REMARK    1  A    between atoms: C_10  and  C_6 
REMARK    2  A    between atoms: C_6  and  O_20 
REMARK    3  A    between atoms: C_8  and  O_21 
REMARK    4  A    between atoms: C_9  and  O_22 
REMARK    5  A    between atoms: C_12  and  N_19 
ROOT
HETATM    1  C   UNK N   1      31.609  22.101  -3.141  0.00  0.00     0.182 C 
HETATM    2  C   UNK N   1      30.729  23.206  -2.616  0.00  0.00     0.198 C 
HETATM    3  C   UNK N   1      30.607  21.206  -3.844  0.00  0.00     0.183 C 
HETATM    4  C   UNK N   1      29.511  23.129  -3.560  0.00  0.00     0.262 C 
HETATM    5  O   UNK N   1      29.754  22.107  -4.516  0.00  0.00    -0.353 OA
ENDROOT
BRANCH   4   6
HETATM    6  N   UNK N   1      29.173  24.406  -4.197  0.00  0.00    -0.297 N 
HETATM    7  C   UNK N   1      29.903  25.553  -4.161  0.00  0.00     0.188 A 
HETATM    8  N   UNK N   1      29.348  26.521  -4.944  0.00  0.00    -0.347 N 
HETATM    9  C   UNK N   1      28.248  25.942  -5.463  0.00  0.00     0.100 A 
ATOM     10  HN  UNK N   1      29.689  27.469  -5.102  1.00  0.00     0.167 HD
HETATM   11  C   UNK N   1      27.297  26.452  -6.334  0.00  0.00     0.037 A 
HETATM   12  C   UNK N   1      28.146  24.675  -5.016  0.00  0.00     0.140 A 
HETATM   13  C   UNK N   1      27.392  27.836  -6.874  0.00  0.00     0.070 C 
HETATM   14  N   UNK N   1      26.259  25.637  -6.692  0.00  0.00    -0.354 N 
HETATM   15  C   UNK N   1      26.169  24.352  -6.215  0.00  0.00     0.182 A 
ATOM     16  HN  UNK N   1      25.540  25.989  -7.325  1.00  0.00     0.166 HD
HETATM   17  N   UNK N   1      27.129  23.856  -5.374  0.00  0.00    -0.336 N 
ATOM     18  HN  UNK N   1      27.078  22.897  -5.028  1.00  0.00     0.168 HD
ENDBRANCH   4   6
BRANCH   2  19
HETATM   19  O   UNK N   1      30.307  22.934  -1.309  0.00  0.00    -0.388 OA
HETATM   20  H   UNK N   1      29.630  22.428  -0.832  0.00  0.00     0.210 HD
ENDBRANCH   2  19
BRANCH   1  21
HETATM   21  O   UNK N   1      32.344  21.455  -2.141  0.00  0.00    -0.390 OA
HETATM   22  H   UNK N   1      33.306  21.568  -2.097  0.00  0.00     0.210 HD
ENDBRANCH   1  21
BRANCH   3  23
HETATM   23  C   UNK N   1      31.279  20.232  -4.830  0.00  0.00     0.145 C 
HETATM   24  C   UNK N   1      32.063  20.983  -5.895  0.00  0.00     0.042 C 
BRANCH  23  25
HETATM   25  O   UNK N   1      32.157  19.395  -4.140  0.00  0.00    -0.393 OA
HETATM   26  H   UNK N   1      32.025  18.481  -3.844  0.00  0.00     0.210 HD
ENDBRANCH  23  25
ENDBRANCH   3  23
TORSDOF 5
ENDMDL
MODEL 7
REMARK VINA RESULT:      -6.2      5.452      7.468
REMARK  5 active torsions:
REMARK  status: ('A' for Active; 'I' for Inactive)
REMARK    1  A    between atoms: C_10  and  C_6 
REMARK    2  A    between atoms: C_6  and  O_20 
REMARK    3  A    between atoms: C_8  and  O_21 
REMARK    4  A    between atoms: C_9  and  O_22 
REMARK    5  A    between atoms: C_12  and  N_19 
ROOT
HETATM    1  C   UNK N   1      28.389  17.522   8.553  0.00  0.00     0.182 C 
HETATM    2  C   UNK N   1      29.731  17.347   9.216  0.00  0.00     0.198 C 
HETATM    3  C   UNK N   1      28.753  18.298   7.302  0.00  0.00     0.183 C 
HETATM    4  C   UNK N   1      30.702  17.490   8.026  0.00  0.00     0.262 C 
HETATM    5  O   UNK N   1      29.935  17.678   6.846  0.00  0.00    -0.353 OA
ENDROOT
BRANCH   4   6
HETATM    6  N   UNK N   1      31.646  16.374   7.894  0.00  0.00    -0.297 N 
HETATM    7  C   UNK N   1      31.509  15.281   7.098  0.00  0.00     0.188 A 
HETATM    8  N   UNK N   1      32.620  14.491   7.142  0.00  0.00    -0.347 N 
HETATM    9  C   UNK N   1      33.448  15.125   7.993  0.00  0.00     0.100 A 
ATOM     10  HN  UNK N   1      32.786  13.618   6.641  1.00  0.00     0.167 HD
HETATM   11  C   UNK N   1      34.722  14.783   8.419  0.00  0.00     0.037 A 
HETATM   12  C   UNK N   1      32.863  16.253   8.441  0.00  0.00     0.140 A 
HETATM   13  C   UNK N   1      35.412  13.561   7.923  0.00  0.00     0.070 C 
HETATM   14  N   UNK N   1      35.339  15.613   9.314  0.00  0.00    -0.354 N 
HETATM   15  C   UNK N   1      34.720  16.754   9.766  0.00  0.00     0.182 A 
ATOM     16  HN  UNK N   1      36.274  15.383   9.651  1.00  0.00     0.166 HD
HETATM   17  N   UNK N   1      33.471  17.089   9.319  0.00  0.00    -0.336 N 
ATOM     18  HN  UNK N   1      33.010  17.942   9.637  1.00  0.00     0.168 HD
ENDBRANCH   4   6
BRANCH   2  19
HETATM   19  O   UNK N   1      29.978  18.378  10.130  0.00  0.00    -0.388 OA
HETATM   20  H   UNK N   1      30.333  18.517  11.022  0.00  0.00     0.210 HD
ENDBRANCH   2  19
BRANCH   1  21
HETATM   21  O   UNK N   1      27.449  18.164   9.367  0.00  0.00    -0.390 OA
HETATM   22  H   UNK N   1      27.615  19.067   9.680  0.00  0.00     0.210 HD
ENDBRANCH   1  21
BRANCH   3  23
HETATM   23  C   UNK N   1      27.645  18.244   6.234  0.00  0.00     0.145 C 
HETATM   24  C   UNK N   1      28.227  17.995   4.851  0.00  0.00     0.042 C 
BRANCH  23  25
HETATM   25  O   UNK N   1      26.753  17.213   6.532  0.00  0.00    -0.393 OA
HETATM   26  H   UNK N   1      25.958  16.935   6.052  0.00  0.00     0.210 HD
ENDBRANCH  23  25
ENDBRANCH   3  23
TORSDOF 5
ENDMDL
MODEL 8
REMARK VINA RESULT:      -6.0      2.354      3.260
REMARK  5 active torsions:
REMARK  status: ('A' for Active; 'I' for Inactive)
REMARK    1  A    between atoms: C_10  and  C_6 
REMARK    2  A    between atoms: C_6  and  O_20 
REMARK    3  A    between atoms: C_8  and  O_21 
REMARK    4  A    between atoms: C_9  and  O_22 
REMARK    5  A    between atoms: C_12  and  N_19 
ROOT
HETATM    1  C   UNK N   1      35.233  15.640   7.226  0.00  0.00     0.182 C 
HETATM    2  C   UNK N   1      35.609  14.497   8.134  0.00  0.00     0.198 C 
HETATM    3  C   UNK N   1      33.803  15.920   7.646  0.00  0.00     0.183 C 
HETATM    4  C   UNK N   1      34.622  14.675   9.306  0.00  0.00     0.262 C 
HETATM    5  O   UNK N   1      33.835  15.829   9.053  0.00  0.00    -0.353 OA
ENDROOT
BRANCH   4   6
HETATM    6  N   UNK N   1      35.268  14.729  10.622  0.00  0.00    -0.297 N 
HETATM    7  C   UNK N   1      35.971  15.770  11.141  0.00  0.00     0.188 A 
HETATM    8  N   UNK N   1      36.347  15.523  12.429  0.00  0.00    -0.347 N 
HETATM    9  C   UNK N   1      35.861  14.295  12.690  0.00  0.00     0.100 A 
ATOM     10  HN  UNK N   1      36.877  16.132  13.053  1.00  0.00     0.167 HD
HETATM   11  C   UNK N   1      35.937  13.531  13.845  0.00  0.00     0.037 A 
HETATM   12  C   UNK N   1      35.214  13.822  11.607  0.00  0.00     0.140 A 
HETATM   13  C   UNK N   1      36.617  14.032  15.071  0.00  0.00     0.070 C 
HETATM   14  N   UNK N   1      35.359  12.292  13.830  0.00  0.00    -0.354 N 
HETATM   15  C   UNK N   1      34.713  11.826  12.710  0.00  0.00     0.182 A 
ATOM     16  HN  UNK N   1      35.407  11.706  14.662  1.00  0.00     0.166 HD
HETATM   17  N   UNK N   1      34.626  12.601  11.585  0.00  0.00    -0.336 N 
ATOM     18  HN  UNK N   1      34.135  12.269  10.755  1.00  0.00     0.168 HD
ENDBRANCH   4   6
BRANCH   2  19
HETATM   19  O   UNK N   1      35.363  13.265   7.517  0.00  0.00    -0.388 OA
HETATM   20  H   UNK N   1      34.661  12.794   7.042  0.00  0.00     0.210 HD
ENDBRANCH   2  19
BRANCH   1  21
HETATM   21  O   UNK N   1      35.378  15.339   5.867  0.00  0.00    -0.390 OA
HETATM   22  H   UNK N   1      35.552  14.427   5.588  0.00  0.00     0.210 HD
ENDBRANCH   1  21
BRANCH   3  23
HETATM   23  C   UNK N   1      33.316  17.307   7.186  0.00  0.00     0.145 C 
HETATM   24  C   UNK N   1      32.630  18.052   8.320  0.00  0.00     0.042 C 
BRANCH  23  25
HETATM   25  O   UNK N   1      34.403  18.067   6.750  0.00  0.00    -0.393 OA
HETATM   26  H   UNK N   1      35.314  18.076   7.081  0.00  0.00     0.210 HD
ENDBRANCH  23  25
ENDBRANCH   3  23
TORSDOF 5
ENDMDL
MODEL 9
REMARK VINA RESULT:      -6.0      4.906      7.868
REMARK  5 active torsions:
REMARK  status: ('A' for Active; 'I' for Inactive)
REMARK    1  A    between atoms: C_10  and  C_6 
REMARK    2  A    between atoms: C_6  and  O_20 
REMARK    3  A    between atoms: C_8  and  O_21 
REMARK    4  A    between atoms: C_9  and  O_22 
REMARK    5  A    between atoms: C_12  and  N_19 
ROOT
HETATM    1  C   UNK N   1      34.677  14.596   8.166  0.00  0.00     0.182 C 
HETATM    2  C   UNK N   1      34.244  15.434   6.990  0.00  0.00     0.198 C 
HETATM    3  C   UNK N   1      34.680  15.611   9.293  0.00  0.00     0.183 C 
HETATM    4  C   UNK N   1      33.502  16.599   7.677  0.00  0.00     0.262 C 
HETATM    5  O   UNK N   1      33.509  16.366   9.077  0.00  0.00    -0.353 OA
ENDROOT
BRANCH   4   6
HETATM    6  N   UNK N   1      32.145  16.820   7.164  0.00  0.00    -0.297 N 
HETATM    7  C   UNK N   1      31.638  16.377   5.983  0.00  0.00     0.188 A 
HETATM    8  N   UNK N   1      30.312  16.675   5.868  0.00  0.00    -0.347 N 
HETATM    9  C   UNK N   1      30.014  17.321   7.011  0.00  0.00     0.100 A 
ATOM     10  HN  UNK N   1      29.688  16.457   5.091  1.00  0.00     0.167 HD
HETATM   11  C   UNK N   1      28.810  17.856   7.446  0.00  0.00     0.037 A 
HETATM   12  C   UNK N   1      31.112  17.405   7.787  0.00  0.00     0.140 A 
HETATM   13  C   UNK N   1      27.569  17.755   6.631  0.00  0.00     0.070 C 
HETATM   14  N   UNK N   1      28.793  18.481   8.662  0.00  0.00    -0.354 N 
HETATM   15  C   UNK N   1      29.929  18.565   9.432  0.00  0.00     0.182 A 
ATOM     16  HN  UNK N   1      27.924  18.891   9.004  1.00  0.00     0.166 HD
HETATM   17  N   UNK N   1      31.103  18.012   8.998  0.00  0.00    -0.336 N 
ATOM     18  HN  UNK N   1      31.947  18.056   9.571  1.00  0.00     0.168 HD
ENDBRANCH   4   6
BRANCH   2  19
HETATM   19  O   UNK N   1      35.352  15.944   6.303  0.00  0.00    -0.388 OA
HETATM   20  H   UNK N   1      35.573  16.605   5.628  0.00  0.00     0.210 HD
ENDBRANCH   2  19
BRANCH   1  21
HETATM   21  O   UNK N   1      35.908  13.960   7.970  0.00  0.00    -0.390 OA
HETATM   22  H   UNK N   1      36.727  14.388   8.263  0.00  0.00     0.210 HD
ENDBRANCH   1  21
BRANCH   3  23
HETATM   23  C   UNK N   1      34.670  14.946  10.682  0.00  0.00     0.145 C 
HETATM   24  C   UNK N   1      35.602  15.668  11.643  0.00  0.00     0.042 C 
BRANCH  23  25
HETATM   25  O   UNK N   1      33.378  14.978  11.210  0.00  0.00    -0.393 OA
HETATM   26  H   UNK N   1      33.080  14.773  12.109  0.00  0.00     0.210 HD
ENDBRANCH  23  25
ENDBRANCH   3  23
TORSDOF 5
ENDMDL
