MODEL 1
REMARK VINA RESULT:      -6.6      0.000      0.000
REMARK  16 active torsions:
REMARK  status: ('A' for Active; 'I' for Inactive)
REMARK    1  A    between atoms: C_5  and  C_4 
REMARK    2  A    between atoms: C_22  and  C_5 
REMARK    3  A    between atoms: C_7  and  C_6 
REMARK    4  A    between atoms: C_8  and  C_6 
REMARK    5  A    between atoms: C_9  and  C_7 
REMARK    6  A    between atoms: C_10  and  C_8 
REMARK    7  A    between atoms: C_11  and  C_9 
REMARK    8  A    between atoms: C_12  and  C_10 
REMARK    9  A    between atoms: C_13  and  C_11 
REMARK   10  A    between atoms: C_14  and  C_12 
REMARK   11  A    between atoms: C_15  and  C_13 
REMARK   12  A    between atoms: C_25  and  C_14 
REMARK   13  A    between atoms: C_32  and  C_15 
REMARK   14  A    between atoms: N_35  and  C_22 
REMARK   15  A    between atoms: O_36  and  C_27 
REMARK   16  A    between atoms: C_31  and  O_37 
REMARK       I    between atoms: N_35  and  C_32 
ROOT
HETATM    1  C   UNK N   1      28.409  23.371  -8.805  0.00  0.00     0.018 C 
HETATM    2  C   UNK N   1      25.088  27.431  -5.247  0.00  0.00     0.037 A 
HETATM    3  C   UNK N   1      25.315  26.210  -5.891  0.00  0.00     0.011 A 
HETATM    4  C   UNK N   1      29.658  21.862  -6.634  0.00  0.00     0.008 C 
HETATM    5  C   UNK N   1      29.656  20.875  -7.821  0.00  0.00     0.033 C 
HETATM    6  C   UNK N   1      25.841  23.789  -7.348  0.00  0.00     0.010 C 
HETATM    7  C   UNK N   1      26.218  22.459  -8.013  0.00  0.00     0.013 C 
HETATM    8  C   UNK N   1      27.374  24.371  -3.311  0.00  0.00     0.044 C 
HETATM    9  C   UNK N   1      26.358  26.663  -3.334  0.00  0.00     0.044 A 
HETATM   10  C   UNK N   1      28.329  23.622  -4.266  0.00  0.00    -0.005 C 
HETATM   11  C   UNK N   1      26.577  25.442  -3.974  0.00  0.00    -0.048 A 
HETATM   12  C   UNK N   1      25.606  27.656  -3.967  0.00  0.00     0.066 A 
HETATM   13  C   UNK N   1      26.049  25.201  -5.249  0.00  0.00    -0.047 A 
HETATM   14  C   UNK N   1      26.347  23.864  -5.892  0.00  0.00     0.024 C 
HETATM   15  C   UNK N   1      28.210  22.300  -6.502  0.00  0.00     0.001 C 
HETATM   16  C   UNK N   1      28.231  20.898  -8.371  0.00  0.00     0.126 C 
HETATM   17  C   UNK N   1      27.887  23.633  -5.782  0.00  0.00     0.003 C 
HETATM   18  C   UNK N   1      27.732  22.277  -7.954  0.00  0.00    -0.014 C 
ENDROOT
BRANCH  10  19
HETATM   19  C   UNK N   1      29.724  24.220  -4.055  0.00  0.00     0.005 C 
BRANCH  19  20
HETATM   20  C   UNK N   1      30.563  23.506  -3.011  0.00  0.00     0.000 C 
BRANCH  20  21
HETATM   21  C   UNK N   1      30.182  22.033  -2.940  0.00  0.00     0.000 C 
BRANCH  21  22
HETATM   22  C   UNK N   1      31.303  21.143  -3.458  0.00  0.00     0.000 C 
BRANCH  22  23
HETATM   23  C   UNK N   1      32.633  21.455  -2.784  0.00  0.00     0.000 C 
BRANCH  23  24
HETATM   24  C   UNK N   1      33.817  20.961  -3.594  0.00  0.00     0.000 C 
BRANCH  24  25
HETATM   25  C   UNK N   1      33.655  21.351  -5.054  0.00  0.00     0.000 C 
BRANCH  25  26
HETATM   26  C   UNK N   1      33.952  22.828  -5.215  0.00  0.00     0.000 C 
BRANCH  26  27
HETATM   27  C   UNK N   1      32.825  23.517  -5.950  0.00  0.00     0.009 C 
BRANCH  27  28
HETATM   28  C   UNK N   1      32.940  25.032  -5.868  0.00  0.00     0.103 C 
BRANCH  28  29
HETATM   29  C   UNK N   1      31.897  25.615  -6.767  0.00  0.00     0.219 C 
HETATM   30  N   UNK N   1      31.169  26.704  -6.384  0.00  0.00    -0.356 N 
HETATM   31  C   UNK N   1      31.357  27.289  -5.074  0.00  0.00     0.152 C 
HETATM   32  O   UNK N   1      31.736  25.118  -7.870  0.00  0.00    -0.273 OA
BRANCH  30  33
HETATM   33  C   UNK N   1      30.277  27.337  -7.341  0.00  0.00     0.125 C 
BRANCH  33  34
HETATM   34  C   UNK N   1      28.815  26.984  -7.118  0.00  0.00     0.019 C 
BRANCH  34  35
HETATM   35  C   UNK N   1      27.949  28.197  -7.371  0.00  0.00    -0.003 C 
HETATM   36  C   UNK N   1      28.202  29.218  -6.285  0.00  0.00     0.005 C 
ENDBRANCH  34  35
ENDBRANCH  33  34
ENDBRANCH  30  33
ENDBRANCH  28  29
ENDBRANCH  27  28
ENDBRANCH  26  27
ENDBRANCH  25  26
ENDBRANCH  24  25
ENDBRANCH  23  24
ENDBRANCH  22  23
ENDBRANCH  21  22
ENDBRANCH  20  21
ENDBRANCH  19  20
ENDBRANCH  10  19
BRANCH  12  37
HETATM   37  O   UNK N   1      25.381  28.824  -3.346  0.00  0.00    -0.361 OA
HETATM   38  H   UNK N   1      24.513  29.165  -3.256  0.00  0.00     0.217 HD
ENDBRANCH  12  37
BRANCH  16  39
HETATM   39  O   UNK N   1      28.198  20.696  -9.752  0.00  0.00    -0.395 OA
HETATM   40  H   UNK N   1      28.351  19.843 -10.187  0.00  0.00     0.210 HD
ENDBRANCH  16  39
TORSDOF 16
ENDMDL
MODEL 2
REMARK VINA RESULT:      -6.4      2.329      6.904
REMARK  16 active torsions:
REMARK  status: ('A' for Active; 'I' for Inactive)
REMARK    1  A    between atoms: C_5  and  C_4 
REMARK    2  A    between atoms: C_22  and  C_5 
REMARK    3  A    between atoms: C_7  and  C_6 
REMARK    4  A    between atoms: C_8  and  C_6 
REMARK    5  A    between atoms: C_9  and  C_7 
REMARK    6  A    between atoms: C_10  and  C_8 
REMARK    7  A    between atoms: C_11  and  C_9 
REMARK    8  A    between atoms: C_12  and  C_10 
REMARK    9  A    between atoms: C_13  and  C_11 
REMARK   10  A    between atoms: C_14  and  C_12 
REMARK   11  A    between atoms: C_15  and  C_13 
REMARK   12  A    between atoms: C_25  and  C_14 
REMARK   13  A    between atoms: C_32  and  C_15 
REMARK   14  A    between atoms: N_35  and  C_22 
REMARK   15  A    between atoms: O_36  and  C_27 
REMARK   16  A    between atoms: C_31  and  O_37 
REMARK       I    between atoms: N_35  and  C_32 
ROOT
HETATM    1  C   UNK N   1      28.029  28.434  -3.559  0.00  0.00     0.018 C 
HETATM    2  C   UNK N   1      25.817  23.065  -6.099  0.00  0.00     0.037 A 
HETATM    3  C   UNK N   1      25.711  24.383  -5.643  0.00  0.00     0.011 A 
HETATM    4  C   UNK N   1      28.515  29.888  -6.049  0.00  0.00     0.008 C 
HETATM    5  C   UNK N   1      28.321  31.001  -4.999  0.00  0.00     0.033 C 
HETATM    6  C   UNK N   1      25.591  27.047  -4.572  0.00  0.00     0.010 C 
HETATM    7  C   UNK N   1      25.595  28.516  -4.129  0.00  0.00     0.013 C 
HETATM    8  C   UNK N   1      26.816  26.325  -8.691  0.00  0.00     0.044 C 
HETATM    9  C   UNK N   1      26.581  23.867  -8.252  0.00  0.00     0.044 A 
HETATM   10  C   UNK N   1      27.577  27.464  -7.978  0.00  0.00    -0.005 C 
HETATM   11  C   UNK N   1      26.468  25.182  -7.799  0.00  0.00    -0.048 A 
HETATM   12  C   UNK N   1      26.248  22.808  -7.405  0.00  0.00     0.066 A 
HETATM   13  C   UNK N   1      26.022  25.451  -6.498  0.00  0.00    -0.047 A 
HETATM   14  C   UNK N   1      25.946  26.900  -6.067  0.00  0.00     0.024 C 
HETATM   15  C   UNK N   1      27.273  29.023  -5.919  0.00  0.00     0.001 C 
HETATM   16  C   UNK N   1      27.039  30.641  -4.251  0.00  0.00     0.126 C 
HETATM   17  C   UNK N   1      27.315  27.559  -6.424  0.00  0.00     0.003 C 
HETATM   18  C   UNK N   1      26.960  29.129  -4.427  0.00  0.00    -0.014 C 
ENDROOT
BRANCH  10  19
HETATM   19  C   UNK N   1      29.061  27.283  -8.316  0.00  0.00     0.005 C 
BRANCH  19  20
HETATM   20  C   UNK N   1      29.901  26.736  -7.177  0.00  0.00     0.000 C 
BRANCH  20  21
HETATM   21  C   UNK N   1      30.068  25.228  -7.316  0.00  0.00     0.000 C 
BRANCH  21  22
HETATM   22  C   UNK N   1      29.692  24.505  -6.031  0.00  0.00     0.000 C 
BRANCH  22  23
HETATM   23  C   UNK N   1      29.615  25.459  -4.845  0.00  0.00     0.000 C 
BRANCH  23  24
HETATM   24  C   UNK N   1      28.641  24.978  -3.785  0.00  0.00     0.000 C 
BRANCH  24  25
HETATM   25  C   UNK N   1      28.669  23.462  -3.693  0.00  0.00     0.000 C 
BRANCH  25  26
HETATM   26  C   UNK N   1      29.119  23.050  -2.307  0.00  0.00     0.000 C 
BRANCH  26  27
HETATM   27  C   UNK N   1      30.607  22.784  -2.290  0.00  0.00     0.009 C 
BRANCH  27  28
HETATM   28  C   UNK N   1      31.067  22.062  -3.549  0.00  0.00     0.103 C 
BRANCH  28  29
HETATM   29  C   UNK N   1      32.354  21.372  -3.230  0.00  0.00     0.219 C 
HETATM   30  N   UNK N   1      33.098  20.785  -4.213  0.00  0.00    -0.356 N 
HETATM   31  C   UNK N   1      32.628  20.774  -5.582  0.00  0.00     0.152 C 
HETATM   32  O   UNK N   1      32.747  21.378  -2.075  0.00  0.00    -0.273 OA
BRANCH  30  33
HETATM   33  C   UNK N   1      34.415  20.261  -3.893  0.00  0.00     0.125 C 
BRANCH  33  34
HETATM   34  C   UNK N   1      35.427  20.468  -5.008  0.00  0.00     0.019 C 
BRANCH  34  35
HETATM   35  C   UNK N   1      36.035  21.848  -4.900  0.00  0.00    -0.003 C 
HETATM   36  C   UNK N   1      37.001  21.871  -3.736  0.00  0.00     0.005 C 
ENDBRANCH  34  35
ENDBRANCH  33  34
ENDBRANCH  30  33
ENDBRANCH  28  29
ENDBRANCH  27  28
ENDBRANCH  26  27
ENDBRANCH  25  26
ENDBRANCH  24  25
ENDBRANCH  23  24
ENDBRANCH  22  23
ENDBRANCH  21  22
ENDBRANCH  20  21
ENDBRANCH  19  20
ENDBRANCH  10  19
BRANCH  12  37
HETATM   37  O   UNK N   1      26.342  21.543  -7.846  0.00  0.00    -0.361 OA
HETATM   38  H   UNK N   1      25.679  20.911  -7.647  0.00  0.00     0.217 HD
ENDBRANCH  12  37
BRANCH  16  39
HETATM   39  O   UNK N   1      27.082  31.038  -2.912  0.00  0.00    -0.395 OA
HETATM   40  H   UNK N   1      27.225  31.949  -2.614  0.00  0.00     0.210 HD
ENDBRANCH  16  39
TORSDOF 16
ENDMDL
MODEL 3
REMARK VINA RESULT:      -6.3      2.098      6.490
REMARK  16 active torsions:
REMARK  status: ('A' for Active; 'I' for Inactive)
REMARK    1  A    between atoms: C_5  and  C_4 
REMARK    2  A    between atoms: C_22  and  C_5 
REMARK    3  A    between atoms: C_7  and  C_6 
REMARK    4  A    between atoms: C_8  and  C_6 
REMARK    5  A    between atoms: C_9  and  C_7 
REMARK    6  A    between atoms: C_10  and  C_8 
REMARK    7  A    between atoms: C_11  and  C_9 
REMARK    8  A    between atoms: C_12  and  C_10 
REMARK    9  A    between atoms: C_13  and  C_11 
REMARK   10  A    between atoms: C_14  and  C_12 
REMARK   11  A    between atoms: C_15  and  C_13 
REMARK   12  A    between atoms: C_25  and  C_14 
REMARK   13  A    between atoms: C_32  and  C_15 
REMARK   14  A    between atoms: N_35  and  C_22 
REMARK   15  A    between atoms: O_36  and  C_27 
REMARK   16  A    between atoms: C_31  and  O_37 
REMARK       I    between atoms: N_35  and  C_32 
ROOT
HETATM    1  C   UNK N   1      28.124  27.762  -4.010  0.00  0.00     0.018 C 
HETATM    2  C   UNK N   1      25.618  22.546  -6.593  0.00  0.00     0.037 A 
HETATM    3  C   UNK N   1      25.569  23.833  -6.049  0.00  0.00     0.011 A 
HETATM    4  C   UNK N   1      28.320  29.365  -6.448  0.00  0.00     0.008 C 
HETATM    5  C   UNK N   1      28.252  30.413  -5.317  0.00  0.00     0.033 C 
HETATM    6  C   UNK N   1      25.581  26.428  -4.813  0.00  0.00     0.010 C 
HETATM    7  C   UNK N   1      25.641  27.867  -4.287  0.00  0.00     0.013 C 
HETATM    8  C   UNK N   1      26.316  25.959  -9.083  0.00  0.00     0.044 C 
HETATM    9  C   UNK N   1      26.128  23.479  -8.769  0.00  0.00     0.044 A 
HETATM   10  C   UNK N   1      27.158  27.057  -8.397  0.00  0.00    -0.005 C 
HETATM   11  C   UNK N   1      26.071  24.764  -8.227  0.00  0.00    -0.048 A 
HETATM   12  C   UNK N   1      25.893  22.369  -7.953  0.00  0.00     0.066 A 
HETATM   13  C   UNK N   1      25.781  24.952  -6.869  0.00  0.00    -0.047 A 
HETATM   14  C   UNK N   1      25.759  26.372  -6.346  0.00  0.00     0.024 C 
HETATM   15  C   UNK N   1      27.099  28.489  -6.227  0.00  0.00     0.001 C 
HETATM   16  C   UNK N   1      27.066  30.003  -4.448  0.00  0.00     0.126 C 
HETATM   17  C   UNK N   1      27.079  27.057  -6.820  0.00  0.00     0.003 C 
HETATM   18  C   UNK N   1      26.963  28.503  -4.704  0.00  0.00    -0.014 C 
ENDROOT
BRANCH  10  19
HETATM   19  C   UNK N   1      28.591  26.903  -8.915  0.00  0.00     0.005 C 
BRANCH  19  20
HETATM   20  C   UNK N   1      29.537  26.211  -7.951  0.00  0.00     0.000 C 
BRANCH  20  21
HETATM   21  C   UNK N   1      29.746  24.759  -8.361  0.00  0.00     0.000 C 
BRANCH  21  22
HETATM   22  C   UNK N   1      30.298  23.929  -7.211  0.00  0.00     0.000 C 
BRANCH  22  23
HETATM   23  C   UNK N   1      29.206  23.521  -6.230  0.00  0.00     0.000 C 
BRANCH  23  24
HETATM   24  C   UNK N   1      29.068  24.506  -5.084  0.00  0.00     0.000 C 
BRANCH  24  25
HETATM   25  C   UNK N   1      28.510  23.809  -3.855  0.00  0.00     0.000 C 
BRANCH  25  26
HETATM   26  C   UNK N   1      29.429  24.055  -2.676  0.00  0.00     0.000 C 
BRANCH  26  27
HETATM   27  C   UNK N   1      30.145  22.782  -2.288  0.00  0.00     0.009 C 
BRANCH  27  28
HETATM   28  C   UNK N   1      31.455  22.615  -3.046  0.00  0.00     0.103 C 
BRANCH  28  29
HETATM   29  C   UNK N   1      31.294  21.459  -3.980  0.00  0.00     0.219 C 
HETATM   30  N   UNK N   1      32.112  21.313  -5.063  0.00  0.00    -0.356 N 
HETATM   31  C   UNK N   1      33.122  22.307  -5.359  0.00  0.00     0.152 C 
HETATM   32  O   UNK N   1      30.439  20.625  -3.731  0.00  0.00    -0.273 OA
BRANCH  30  33
HETATM   33  C   UNK N   1      32.030  20.101  -5.859  0.00  0.00     0.125 C 
BRANCH  33  34
HETATM   34  C   UNK N   1      31.324  20.306  -7.189  0.00  0.00     0.019 C 
BRANCH  34  35
HETATM   35  C   UNK N   1      29.879  19.875  -7.075  0.00  0.00    -0.003 C 
HETATM   36  C   UNK N   1      29.567  18.899  -8.187  0.00  0.00     0.005 C 
ENDBRANCH  34  35
ENDBRANCH  33  34
ENDBRANCH  30  33
ENDBRANCH  28  29
ENDBRANCH  27  28
ENDBRANCH  26  27
ENDBRANCH  25  26
ENDBRANCH  24  25
ENDBRANCH  23  24
ENDBRANCH  22  23
ENDBRANCH  21  22
ENDBRANCH  20  21
ENDBRANCH  19  20
ENDBRANCH  10  19
BRANCH  12  37
HETATM   37  O   UNK N   1      25.931  21.133  -8.477  0.00  0.00    -0.361 OA
HETATM   38  H   UNK N   1      26.470  20.938  -9.219  0.00  0.00     0.217 HD
ENDBRANCH  12  37
BRANCH  16  39
HETATM   39  O   UNK N   1      27.266  30.319  -3.103  0.00  0.00    -0.395 OA
HETATM   40  H   UNK N   1      27.964  29.939  -2.547  0.00  0.00     0.210 HD
ENDBRANCH  16  39
TORSDOF 16
ENDMDL
MODEL 4
REMARK VINA RESULT:      -6.3      1.730      3.252
REMARK  16 active torsions:
REMARK  status: ('A' for Active; 'I' for Inactive)
REMARK    1  A    between atoms: C_5  and  C_4 
REMARK    2  A    between atoms: C_22  and  C_5 
REMARK    3  A    between atoms: C_7  and  C_6 
REMARK    4  A    between atoms: C_8  and  C_6 
REMARK    5  A    between atoms: C_9  and  C_7 
REMARK    6  A    between atoms: C_10  and  C_8 
REMARK    7  A    between atoms: C_11  and  C_9 
REMARK    8  A    between atoms: C_12  and  C_10 
REMARK    9  A    between atoms: C_13  and  C_11 
REMARK   10  A    between atoms: C_14  and  C_12 
REMARK   11  A    between atoms: C_15  and  C_13 
REMARK   12  A    between atoms: C_25  and  C_14 
REMARK   13  A    between atoms: C_32  and  C_15 
REMARK   14  A    between atoms: N_35  and  C_22 
REMARK   15  A    between atoms: O_36  and  C_27 
REMARK   16  A    between atoms: C_31  and  O_37 
REMARK       I    between atoms: N_35  and  C_32 
ROOT
HETATM    1  C   UNK N   1      27.626  23.841  -8.310  0.00  0.00     0.018 C 
HETATM    2  C   UNK N   1      28.649  29.745  -6.246  0.00  0.00     0.037 A 
HETATM    3  C   UNK N   1      27.923  28.745  -6.901  0.00  0.00     0.011 A 
HETATM    4  C   UNK N   1      25.891  22.948  -6.132  0.00  0.00     0.008 C 
HETATM    5  C   UNK N   1      25.503  22.037  -7.316  0.00  0.00     0.033 C 
HETATM    6  C   UNK N   1      26.579  26.633  -8.311  0.00  0.00     0.010 C 
HETATM    7  C   UNK N   1      25.816  25.453  -8.927  0.00  0.00     0.013 C 
HETATM    8  C   UNK N   1      26.010  27.204  -4.029  0.00  0.00     0.044 C 
HETATM    9  C   UNK N   1      27.660  29.090  -4.135  0.00  0.00     0.044 A 
HETATM   10  C   UNK N   1      26.049  25.730  -4.487  0.00  0.00    -0.005 C 
HETATM   11  C   UNK N   1      26.929  28.097  -4.791  0.00  0.00    -0.048 A 
HETATM   12  C   UNK N   1      28.514  29.920  -4.864  0.00  0.00     0.066 A 
HETATM   13  C   UNK N   1      27.045  27.924  -6.176  0.00  0.00    -0.047 A 
HETATM   14  C   UNK N   1      26.241  26.812  -6.815  0.00  0.00     0.024 C 
HETATM   15  C   UNK N   1      25.742  24.359  -6.675  0.00  0.00     0.001 C 
HETATM   16  C   UNK N   1      25.270  22.976  -8.498  0.00  0.00     0.126 C 
HETATM   17  C   UNK N   1      26.504  25.518  -5.984  0.00  0.00     0.003 C 
HETATM   18  C   UNK N   1      26.132  24.183  -8.143  0.00  0.00    -0.014 C 
ENDROOT
BRANCH  10  19
HETATM   19  C   UNK N   1      26.939  24.981  -3.489  0.00  0.00     0.005 C 
BRANCH  19  20
HETATM   20  C   UNK N   1      28.342  24.695  -3.991  0.00  0.00     0.000 C 
BRANCH  20  21
HETATM   21  C   UNK N   1      29.051  23.719  -3.061  0.00  0.00     0.000 C 
BRANCH  21  22
HETATM   22  C   UNK N   1      30.563  23.803  -3.214  0.00  0.00     0.000 C 
BRANCH  22  23
HETATM   23  C   UNK N   1      31.234  22.457  -2.972  0.00  0.00     0.000 C 
BRANCH  23  24
HETATM   24  C   UNK N   1      30.384  21.297  -3.458  0.00  0.00     0.000 C 
BRANCH  24  25
HETATM   25  C   UNK N   1      30.819  20.872  -4.850  0.00  0.00     0.000 C 
BRANCH  25  26
HETATM   26  C   UNK N   1      29.816  21.377  -5.866  0.00  0.00     0.000 C 
BRANCH  26  27
HETATM   27  C   UNK N   1      30.525  21.911  -7.089  0.00  0.00     0.009 C 
BRANCH  27  28
HETATM   28  C   UNK N   1      31.904  22.458  -6.750  0.00  0.00     0.103 C 
BRANCH  28  29
HETATM   29  C   UNK N   1      31.810  23.950  -6.737  0.00  0.00     0.219 C 
HETATM   30  N   UNK N   1      32.712  24.704  -6.043  0.00  0.00    -0.356 N 
HETATM   31  C   UNK N   1      33.751  24.070  -5.260  0.00  0.00     0.152 C 
HETATM   32  O   UNK N   1      30.931  24.483  -7.394  0.00  0.00    -0.273 OA
BRANCH  30  33
HETATM   33  C   UNK N   1      32.684  26.150  -6.178  0.00  0.00     0.125 C 
BRANCH  33  34
HETATM   34  C   UNK N   1      32.504  26.871  -4.852  0.00  0.00     0.019 C 
BRANCH  34  35
HETATM   35  C   UNK N   1      31.044  27.202  -4.641  0.00  0.00    -0.003 C 
HETATM   36  C   UNK N   1      30.811  27.491  -3.175  0.00  0.00     0.005 C 
ENDBRANCH  34  35
ENDBRANCH  33  34
ENDBRANCH  30  33
ENDBRANCH  28  29
ENDBRANCH  27  28
ENDBRANCH  26  27
ENDBRANCH  25  26
ENDBRANCH  24  25
ENDBRANCH  23  24
ENDBRANCH  22  23
ENDBRANCH  21  22
ENDBRANCH  20  21
ENDBRANCH  19  20
ENDBRANCH  10  19
BRANCH  12  37
HETATM   37  O   UNK N   1      29.205  30.886  -4.238  0.00  0.00    -0.361 OA
HETATM   38  H   UNK N   1      29.979  31.253  -4.619  0.00  0.00     0.217 HD
ENDBRANCH  12  37
BRANCH  16  39
HETATM   39  O   UNK N   1      25.623  22.388  -9.714  0.00  0.00    -0.395 OA
HETATM   40  H   UNK N   1      25.570  22.831 -10.575  0.00  0.00     0.210 HD
ENDBRANCH  16  39
TORSDOF 16
ENDMDL
MODEL 5
REMARK VINA RESULT:      -6.1      1.960      6.093
REMARK  16 active torsions:
REMARK  status: ('A' for Active; 'I' for Inactive)
REMARK    1  A    between atoms: C_5  and  C_4 
REMARK    2  A    between atoms: C_22  and  C_5 
REMARK    3  A    between atoms: C_7  and  C_6 
REMARK    4  A    between atoms: C_8  and  C_6 
REMARK    5  A    between atoms: C_9  and  C_7 
REMARK    6  A    between atoms: C_10  and  C_8 
REMARK    7  A    between atoms: C_11  and  C_9 
REMARK    8  A    between atoms: C_12  and  C_10 
REMARK    9  A    between atoms: C_13  and  C_11 
REMARK   10  A    between atoms: C_14  and  C_12 
REMARK   11  A    between atoms: C_15  and  C_13 
REMARK   12  A    between atoms: C_25  and  C_14 
REMARK   13  A    between atoms: C_32  and  C_15 
REMARK   14  A    between atoms: N_35  and  C_22 
REMARK   15  A    between atoms: O_36  and  C_27 
REMARK   16  A    between atoms: C_31  and  O_37 
REMARK       I    between atoms: N_35  and  C_32 
ROOT
HETATM    1  C   UNK N   1      28.261  27.276  -4.512  0.00  0.00     0.018 C 
HETATM    2  C   UNK N   1      25.217  22.162  -6.689  0.00  0.00     0.037 A 
HETATM    3  C   UNK N   1      25.299  23.475  -6.216  0.00  0.00     0.011 A 
HETATM    4  C   UNK N   1      28.472  28.727  -7.042  0.00  0.00     0.008 C 
HETATM    5  C   UNK N   1      28.544  29.835  -5.969  0.00  0.00     0.033 C 
HETATM    6  C   UNK N   1      25.582  26.120  -5.129  0.00  0.00     0.010 C 
HETATM    7  C   UNK N   1      25.784  27.576  -4.687  0.00  0.00     0.013 C 
HETATM    8  C   UNK N   1      26.073  25.370  -9.393  0.00  0.00     0.044 C 
HETATM    9  C   UNK N   1      25.698  22.934  -8.933  0.00  0.00     0.044 A 
HETATM   10  C   UNK N   1      27.033  26.427  -8.806  0.00  0.00    -0.005 C 
HETATM   11  C   UNK N   1      25.772  24.245  -8.462  0.00  0.00    -0.048 A 
HETATM   12  C   UNK N   1      25.412  21.892  -8.048  0.00  0.00     0.066 A 
HETATM   13  C   UNK N   1      25.563  24.528  -7.106  0.00  0.00    -0.047 A 
HETATM   14  C   UNK N   1      25.683  25.970  -6.663  0.00  0.00     0.024 C 
HETATM   15  C   UNK N   1      27.195  27.970  -6.719  0.00  0.00     0.001 C 
HETATM   16  C   UNK N   1      27.370  29.572  -5.028  0.00  0.00     0.126 C 
HETATM   17  C   UNK N   1      27.030  26.516  -7.230  0.00  0.00     0.003 C 
HETATM   18  C   UNK N   1      27.133  28.075  -5.196  0.00  0.00    -0.014 C 
ENDROOT
BRANCH  10  19
HETATM   19  C   UNK N   1      28.424  26.126  -9.376  0.00  0.00     0.005 C 
BRANCH  19  20
HETATM   20  C   UNK N   1      29.434  25.652  -8.348  0.00  0.00     0.000 C 
BRANCH  20  21
HETATM   21  C   UNK N   1      29.365  24.138  -8.193  0.00  0.00     0.000 C 
BRANCH  21  22
HETATM   22  C   UNK N   1      29.257  23.733  -6.730  0.00  0.00     0.000 C 
BRANCH  22  23
HETATM   23  C   UNK N   1      28.816  22.284  -6.573  0.00  0.00     0.000 C 
BRANCH  23  24
HETATM   24  C   UNK N   1      28.997  21.488  -7.853  0.00  0.00     0.000 C 
BRANCH  24  25
HETATM   25  C   UNK N   1      28.925  19.998  -7.561  0.00  0.00     0.000 C 
BRANCH  25  26
HETATM   26  C   UNK N   1      30.193  19.329  -8.046  0.00  0.00     0.000 C 
BRANCH  26  27
HETATM   27  C   UNK N   1      31.288  20.351  -8.245  0.00  0.00     0.009 C 
BRANCH  27  28
HETATM   28  C   UNK N   1      32.374  20.231  -7.186  0.00  0.00     0.103 C 
BRANCH  28  29
HETATM   29  C   UNK N   1      32.339  21.475  -6.358  0.00  0.00     0.219 C 
HETATM   30  N   UNK N   1      31.973  21.433  -5.043  0.00  0.00    -0.356 N 
HETATM   31  C   UNK N   1      31.561  20.186  -4.435  0.00  0.00     0.152 C 
HETATM   32  O   UNK N   1      32.682  22.527  -6.873  0.00  0.00    -0.273 OA
BRANCH  30  33
HETATM   33  C   UNK N   1      32.100  22.631  -4.230  0.00  0.00     0.125 C 
BRANCH  33  34
HETATM   34  C   UNK N   1      31.190  22.625  -3.012  0.00  0.00     0.019 C 
BRANCH  34  35
HETATM   35  C   UNK N   1      30.386  23.904  -2.964  0.00  0.00    -0.003 C 
HETATM   36  C   UNK N   1      28.914  23.564  -3.028  0.00  0.00     0.005 C 
ENDBRANCH  34  35
ENDBRANCH  33  34
ENDBRANCH  30  33
ENDBRANCH  28  29
ENDBRANCH  27  28
ENDBRANCH  26  27
ENDBRANCH  25  26
ENDBRANCH  24  25
ENDBRANCH  23  24
ENDBRANCH  22  23
ENDBRANCH  21  22
ENDBRANCH  20  21
ENDBRANCH  19  20
ENDBRANCH  10  19
BRANCH  12  37
HETATM   37  O   UNK N   1      25.324  20.632  -8.502  0.00  0.00    -0.361 OA
HETATM   38  H   UNK N   1      26.094  20.125  -8.676  0.00  0.00     0.217 HD
ENDBRANCH  12  37
BRANCH  16  39
HETATM   39  O   UNK N   1      27.659  29.940  -3.713  0.00  0.00    -0.395 OA
HETATM   40  H   UNK N   1      28.464  30.402  -3.435  0.00  0.00     0.210 HD
ENDBRANCH  16  39
TORSDOF 16
ENDMDL
MODEL 6
REMARK VINA RESULT:      -6.0      1.738      4.456
REMARK  16 active torsions:
REMARK  status: ('A' for Active; 'I' for Inactive)
REMARK    1  A    between atoms: C_5  and  C_4 
REMARK    2  A    between atoms: C_22  and  C_5 
REMARK    3  A    between atoms: C_7  and  C_6 
REMARK    4  A    between atoms: C_8  and  C_6 
REMARK    5  A    between atoms: C_9  and  C_7 
REMARK    6  A    between atoms: C_10  and  C_8 
REMARK    7  A    between atoms: C_11  and  C_9 
REMARK    8  A    between atoms: C_12  and  C_10 
REMARK    9  A    between atoms: C_13  and  C_11 
REMARK   10  A    between atoms: C_14  and  C_12 
REMARK   11  A    between atoms: C_15  and  C_13 
REMARK   12  A    between atoms: C_25  and  C_14 
REMARK   13  A    between atoms: C_32  and  C_15 
REMARK   14  A    between atoms: N_35  and  C_22 
REMARK   15  A    between atoms: O_36  and  C_27 
REMARK   16  A    between atoms: C_31  and  O_37 
REMARK       I    between atoms: N_35  and  C_32 
ROOT
HETATM    1  C   UNK N   1      28.422  23.563  -8.127  0.00  0.00     0.018 C 
HETATM    2  C   UNK N   1      28.575  29.607  -6.227  0.00  0.00     0.037 A 
HETATM    3  C   UNK N   1      28.202  28.560  -7.076  0.00  0.00     0.011 A 
HETATM    4  C   UNK N   1      25.843  22.837  -6.956  0.00  0.00     0.008 C 
HETATM    5  C   UNK N   1      26.018  21.839  -8.120  0.00  0.00     0.033 C 
HETATM    6  C   UNK N   1      27.595  26.346  -8.805  0.00  0.00     0.010 C 
HETATM    7  C   UNK N   1      27.165  25.123  -9.624  0.00  0.00     0.013 C 
HETATM    8  C   UNK N   1      25.119  27.242  -5.333  0.00  0.00     0.044 C 
HETATM    9  C   UNK N   1      26.694  29.114  -4.784  0.00  0.00     0.044 A 
HETATM   10  C   UNK N   1      25.315  25.737  -5.619  0.00  0.00    -0.005 C 
HETATM   11  C   UNK N   1      26.318  28.074  -5.636  0.00  0.00    -0.048 A 
HETATM   12  C   UNK N   1      27.818  29.886  -5.083  0.00  0.00     0.066 A 
HETATM   13  C   UNK N   1      27.059  27.796  -6.791  0.00  0.00    -0.047 A 
HETATM   14  C   UNK N   1      26.606  26.639  -7.655  0.00  0.00     0.024 C 
HETATM   15  C   UNK N   1      26.013  24.203  -7.599  0.00  0.00     0.001 C 
HETATM   16  C   UNK N   1      26.396  22.685  -9.333  0.00  0.00     0.126 C 
HETATM   17  C   UNK N   1      26.406  25.412  -6.712  0.00  0.00     0.003 C 
HETATM   18  C   UNK N   1      27.034  23.916  -8.700  0.00  0.00    -0.014 C 
ENDROOT
BRANCH  10  19
HETATM   19  C   UNK N   1      25.611  25.066  -4.273  0.00  0.00     0.005 C 
BRANCH  19  20
HETATM   20  C   UNK N   1      26.983  25.377  -3.705  0.00  0.00     0.000 C 
BRANCH  20  21
HETATM   21  C   UNK N   1      27.776  24.093  -3.499  0.00  0.00     0.000 C 
BRANCH  21  22
HETATM   22  C   UNK N   1      29.082  24.113  -4.281  0.00  0.00     0.000 C 
BRANCH  22  23
HETATM   23  C   UNK N   1      29.674  25.514  -4.361  0.00  0.00     0.000 C 
BRANCH  23  24
HETATM   24  C   UNK N   1      30.104  25.876  -5.771  0.00  0.00     0.000 C 
BRANCH  24  25
HETATM   25  C   UNK N   1      31.552  26.335  -5.778  0.00  0.00     0.000 C 
BRANCH  25  26
HETATM   26  C   UNK N   1      32.336  25.542  -4.753  0.00  0.00     0.000 C 
BRANCH  26  27
HETATM   27  C   UNK N   1      33.202  24.507  -5.435  0.00  0.00     0.009 C 
BRANCH  27  28
HETATM   28  C   UNK N   1      32.926  23.105  -4.910  0.00  0.00     0.103 C 
BRANCH  28  29
HETATM   29  C   UNK N   1      31.882  22.491  -5.786  0.00  0.00     0.219 C 
HETATM   30  N   UNK N   1      31.105  21.462  -5.337  0.00  0.00    -0.356 N 
HETATM   31  C   UNK N   1      31.313  20.909  -4.015  0.00  0.00     0.152 C 
HETATM   32  O   UNK N   1      31.711  22.955  -6.902  0.00  0.00    -0.273 OA
BRANCH  30  33
HETATM   33  C   UNK N   1      29.999  20.994  -6.155  0.00  0.00     0.125 C 
BRANCH  33  34
HETATM   34  C   UNK N   1      30.300  19.691  -6.876  0.00  0.00     0.019 C 
BRANCH  34  35
HETATM   35  C   UNK N   1      29.169  19.353  -7.821  0.00  0.00    -0.003 C 
HETATM   36  C   UNK N   1      29.629  19.586  -9.243  0.00  0.00     0.005 C 
ENDBRANCH  34  35
ENDBRANCH  33  34
ENDBRANCH  30  33
ENDBRANCH  28  29
ENDBRANCH  27  28
ENDBRANCH  26  27
ENDBRANCH  25  26
ENDBRANCH  24  25
ENDBRANCH  23  24
ENDBRANCH  22  23
ENDBRANCH  21  22
ENDBRANCH  20  21
ENDBRANCH  19  20
ENDBRANCH  10  19
BRANCH  12  37
HETATM   37  O   UNK N   1      28.172  30.897  -4.274  0.00  0.00    -0.361 OA
HETATM   38  H   UNK N   1      27.684  31.698  -4.257  0.00  0.00     0.217 HD
ENDBRANCH  12  37
BRANCH  16  39
HETATM   39  O   UNK N   1      27.253  22.006 -10.202  0.00  0.00    -0.395 OA
HETATM   40  H   UNK N   1      27.338  21.042 -10.247  0.00  0.00     0.210 HD
ENDBRANCH  16  39
TORSDOF 16
ENDMDL
MODEL 7
REMARK VINA RESULT:      -5.9      2.473      6.348
REMARK  16 active torsions:
REMARK  status: ('A' for Active; 'I' for Inactive)
REMARK    1  A    between atoms: C_5  and  C_4 
REMARK    2  A    between atoms: C_22  and  C_5 
REMARK    3  A    between atoms: C_7  and  C_6 
REMARK    4  A    between atoms: C_8  and  C_6 
REMARK    5  A    between atoms: C_9  and  C_7 
REMARK    6  A    between atoms: C_10  and  C_8 
REMARK    7  A    between atoms: C_11  and  C_9 
REMARK    8  A    between atoms: C_12  and  C_10 
REMARK    9  A    between atoms: C_13  and  C_11 
REMARK   10  A    between atoms: C_14  and  C_12 
REMARK   11  A    between atoms: C_15  and  C_13 
REMARK   12  A    between atoms: C_25  and  C_14 
REMARK   13  A    between atoms: C_32  and  C_15 
REMARK   14  A    between atoms: N_35  and  C_22 
REMARK   15  A    between atoms: O_36  and  C_27 
REMARK   16  A    between atoms: C_31  and  O_37 
REMARK       I    between atoms: N_35  and  C_32 
ROOT
HETATM    1  C   UNK N   1      32.817  19.302  -4.537  0.00  0.00     0.018 C 
HETATM    2  C   UNK N   1      28.405  23.104  -2.040  0.00  0.00     0.037 A 
HETATM    3  C   UNK N   1      29.711  22.641  -2.230  0.00  0.00     0.011 A 
HETATM    4  C   UNK N   1      33.681  21.059  -6.709  0.00  0.00     0.008 C 
HETATM    5  C   UNK N   1      34.902  20.149  -6.458  0.00  0.00     0.033 C 
HETATM    6  C   UNK N   1      32.333  21.529  -2.615  0.00  0.00     0.010 C 
HETATM    7  C   UNK N   1      33.735  21.009  -2.956  0.00  0.00     0.013 C 
HETATM    8  C   UNK N   1      30.727  24.519  -5.348  0.00  0.00     0.044 C 
HETATM    9  C   UNK N   1      28.604  24.493  -4.014  0.00  0.00     0.044 A 
HETATM   10  C   UNK N   1      31.574  23.416  -6.019  0.00  0.00    -0.005 C 
HETATM   11  C   UNK N   1      29.910  24.036  -4.198  0.00  0.00    -0.048 A 
HETATM   12  C   UNK N   1      27.853  24.033  -2.929  0.00  0.00     0.066 A 
HETATM   13  C   UNK N   1      30.477  23.118  -3.305  0.00  0.00    -0.047 A 
HETATM   14  C   UNK N   1      31.889  22.649  -3.582  0.00  0.00     0.024 C 
HETATM   15  C   UNK N   1      33.365  21.654  -5.348  0.00  0.00     0.001 C 
HETATM   16  C   UNK N   1      35.137  20.186  -4.949  0.00  0.00     0.126 C 
HETATM   17  C   UNK N   1      31.942  22.204  -5.076  0.00  0.00     0.003 C 
HETATM   18  C   UNK N   1      33.754  20.519  -4.401  0.00  0.00    -0.014 C 
ENDROOT
BRANCH  10  19
HETATM   19  C   UNK N   1      30.814  22.977  -7.275  0.00  0.00     0.005 C 
BRANCH  19  20
HETATM   20  C   UNK N   1      30.076  21.658  -7.132  0.00  0.00     0.000 C 
BRANCH  20  21
HETATM   21  C   UNK N   1      28.613  21.903  -6.789  0.00  0.00     0.000 C 
BRANCH  21  22
HETATM   22  C   UNK N   1      27.903  22.676  -7.891  0.00  0.00     0.000 C 
BRANCH  22  23
HETATM   23  C   UNK N   1      27.303  23.978  -7.376  0.00  0.00     0.000 C 
BRANCH  23  24
HETATM   24  C   UNK N   1      25.871  23.801  -6.903  0.00  0.00     0.000 C 
BRANCH  24  25
HETATM   25  C   UNK N   1      25.501  24.901  -5.923  0.00  0.00     0.000 C 
BRANCH  25  26
HETATM   26  C   UNK N   1      25.537  26.239  -6.632  0.00  0.00     0.000 C 
BRANCH  26  27
HETATM   27  C   UNK N   1      26.296  27.254  -5.809  0.00  0.00     0.009 C 
BRANCH  27  28
HETATM   28  C   UNK N   1      25.410  27.904  -4.755  0.00  0.00     0.103 C 
BRANCH  28  29
HETATM   29  C   UNK N   1      26.256  28.161  -3.549  0.00  0.00     0.219 C 
HETATM   30  N   UNK N   1      27.028  29.283  -3.459  0.00  0.00    -0.356 N 
HETATM   31  C   UNK N   1      27.084  30.225  -4.556  0.00  0.00     0.152 C 
HETATM   32  O   UNK N   1      26.211  27.363  -2.627  0.00  0.00    -0.273 OA
BRANCH  30  33
HETATM   33  C   UNK N   1      27.714  29.577  -2.213  0.00  0.00     0.125 C 
BRANCH  33  34
HETATM   34  C   UNK N   1      29.170  29.968  -2.410  0.00  0.00     0.019 C 
BRANCH  34  35
HETATM   35  C   UNK N   1      30.018  28.727  -2.572  0.00  0.00    -0.003 C 
HETATM   36  C   UNK N   1      30.429  28.598  -4.022  0.00  0.00     0.005 C 
ENDBRANCH  34  35
ENDBRANCH  33  34
ENDBRANCH  30  33
ENDBRANCH  28  29
ENDBRANCH  27  28
ENDBRANCH  26  27
ENDBRANCH  25  26
ENDBRANCH  24  25
ENDBRANCH  23  24
ENDBRANCH  22  23
ENDBRANCH  21  22
ENDBRANCH  20  21
ENDBRANCH  19  20
ENDBRANCH  10  19
BRANCH  12  37
HETATM   37  O   UNK N   1      26.603  24.483  -2.741  0.00  0.00    -0.361 OA
HETATM   38  H   UNK N   1      26.000  24.552  -3.455  0.00  0.00     0.217 HD
ENDBRANCH  12  37
BRANCH  16  39
HETATM   39  O   UNK N   1      35.643  18.977  -4.467  0.00  0.00    -0.395 OA
HETATM   40  H   UNK N   1      36.167  18.352  -4.991  0.00  0.00     0.210 HD
ENDBRANCH  16  39
TORSDOF 16
ENDMDL
MODEL 8
REMARK VINA RESULT:      -5.8     13.747     16.424
REMARK  16 active torsions:
REMARK  status: ('A' for Active; 'I' for Inactive)
REMARK    1  A    between atoms: C_5  and  C_4 
REMARK    2  A    between atoms: C_22  and  C_5 
REMARK    3  A    between atoms: C_7  and  C_6 
REMARK    4  A    between atoms: C_8  and  C_6 
REMARK    5  A    between atoms: C_9  and  C_7 
REMARK    6  A    between atoms: C_10  and  C_8 
REMARK    7  A    between atoms: C_11  and  C_9 
REMARK    8  A    between atoms: C_12  and  C_10 
REMARK    9  A    between atoms: C_13  and  C_11 
REMARK   10  A    between atoms: C_14  and  C_12 
REMARK   11  A    between atoms: C_15  and  C_13 
REMARK   12  A    between atoms: C_25  and  C_14 
REMARK   13  A    between atoms: C_32  and  C_15 
REMARK   14  A    between atoms: N_35  and  C_22 
REMARK   15  A    between atoms: O_36  and  C_27 
REMARK   16  A    between atoms: C_31  and  O_37 
REMARK       I    between atoms: N_35  and  C_32 
ROOT
HETATM    1  C   UNK N   1      21.076  17.076   6.585  0.00  0.00     0.018 C 
HETATM    2  C   UNK N   1      22.573  12.690  10.908  0.00  0.00     0.037 A 
HETATM    3  C   UNK N   1      22.047  13.135   9.691  0.00  0.00     0.011 A 
HETATM    4  C   UNK N   1      23.414  16.755   4.858  0.00  0.00     0.008 C 
HETATM    5  C   UNK N   1      22.335  17.336   3.920  0.00  0.00     0.033 C 
HETATM    6  C   UNK N   1      20.897  14.180   7.273  0.00  0.00     0.010 C 
HETATM    7  C   UNK N   1      20.426  14.751   5.930  0.00  0.00     0.013 C 
HETATM    8  C   UNK N   1      25.140  13.221   7.521  0.00  0.00     0.044 C 
HETATM    9  C   UNK N   1      24.783  12.594   9.922  0.00  0.00     0.044 A 
HETATM   10  C   UNK N   1      24.807  14.480   6.691  0.00  0.00    -0.005 C 
HETATM   11  C   UNK N   1      24.256  13.030   8.706  0.00  0.00    -0.048 A 
HETATM   12  C   UNK N   1      23.941  12.416  11.022  0.00  0.00     0.066 A 
HETATM   13  C   UNK N   1      22.886  13.292   8.576  0.00  0.00    -0.047 A 
HETATM   14  C   UNK N   1      22.389  13.784   7.234  0.00  0.00     0.024 C 
HETATM   15  C   UNK N   1      22.764  15.526   5.470  0.00  0.00     0.001 C 
HETATM   16  C   UNK N   1      21.093  16.476   4.141  0.00  0.00     0.126 C 
HETATM   17  C   UNK N   1      23.311  14.969   6.808  0.00  0.00     0.003 C 
HETATM   18  C   UNK N   1      21.297  15.948   5.557  0.00  0.00    -0.014 C 
ENDROOT
BRANCH  10  19
HETATM   19  C   UNK N   1      25.814  15.560   7.101  0.00  0.00     0.005 C 
BRANCH  19  20
HETATM   20  C   UNK N   1      27.107  15.547   6.307  0.00  0.00     0.000 C 
BRANCH  20  21
HETATM   21  C   UNK N   1      27.018  16.509   5.130  0.00  0.00     0.000 C 
BRANCH  21  22
HETATM   22  C   UNK N   1      28.004  17.660   5.276  0.00  0.00     0.000 C 
BRANCH  22  23
HETATM   23  C   UNK N   1      27.503  18.716   6.254  0.00  0.00     0.000 C 
BRANCH  23  24
HETATM   24  C   UNK N   1      28.475  18.947   7.396  0.00  0.00     0.000 C 
BRANCH  24  25
HETATM   25  C   UNK N   1      27.989  18.242   8.651  0.00  0.00     0.000 C 
BRANCH  25  26
HETATM   26  C   UNK N   1      29.181  17.735   9.437  0.00  0.00     0.000 C 
BRANCH  26  27
HETATM   27  C   UNK N   1      30.471  18.146   8.765  0.00  0.00     0.009 C 
BRANCH  27  28
HETATM   28  C   UNK N   1      31.461  16.992   8.686  0.00  0.00     0.103 C 
BRANCH  28  29
HETATM   29  C   UNK N   1      31.667  16.670   7.241  0.00  0.00     0.219 C 
HETATM   30  N   UNK N   1      32.822  17.019   6.602  0.00  0.00    -0.356 N 
HETATM   31  C   UNK N   1      33.853  17.757   7.300  0.00  0.00     0.152 C 
HETATM   32  O   UNK N   1      30.795  16.052   6.653  0.00  0.00    -0.273 OA
BRANCH  30  33
HETATM   33  C   UNK N   1      33.054  16.554   5.245  0.00  0.00     0.125 C 
BRANCH  33  34
HETATM   34  C   UNK N   1      32.747  17.608   4.193  0.00  0.00     0.019 C 
BRANCH  34  35
HETATM   35  C   UNK N   1      32.267  16.941   2.923  0.00  0.00    -0.003 C 
HETATM   36  C   UNK N   1      30.834  16.496   3.111  0.00  0.00     0.005 C 
ENDBRANCH  34  35
ENDBRANCH  33  34
ENDBRANCH  30  33
ENDBRANCH  28  29
ENDBRANCH  27  28
ENDBRANCH  26  27
ENDBRANCH  25  26
ENDBRANCH  24  25
ENDBRANCH  23  24
ENDBRANCH  22  23
ENDBRANCH  21  22
ENDBRANCH  20  21
ENDBRANCH  19  20
ENDBRANCH  10  19
BRANCH  12  37
HETATM   37  O   UNK N   1      24.444  11.981  12.188  0.00  0.00    -0.361 OA
HETATM   38  H   UNK N   1      24.205  12.386  13.000  0.00  0.00     0.217 HD
ENDBRANCH  12  37
BRANCH  16  39
HETATM   39  O   UNK N   1      19.913  17.207   3.991  0.00  0.00    -0.395 OA
HETATM   40  H   UNK N   1      19.277  17.083   3.270  0.00  0.00     0.210 HD
ENDBRANCH  16  39
TORSDOF 16
ENDMDL
MODEL 9
REMARK VINA RESULT:      -5.8     13.825     16.586
REMARK  16 active torsions:
REMARK  status: ('A' for Active; 'I' for Inactive)
REMARK    1  A    between atoms: C_5  and  C_4 
REMARK    2  A    between atoms: C_22  and  C_5 
REMARK    3  A    between atoms: C_7  and  C_6 
REMARK    4  A    between atoms: C_8  and  C_6 
REMARK    5  A    between atoms: C_9  and  C_7 
REMARK    6  A    between atoms: C_10  and  C_8 
REMARK    7  A    between atoms: C_11  and  C_9 
REMARK    8  A    between atoms: C_12  and  C_10 
REMARK    9  A    between atoms: C_13  and  C_11 
REMARK   10  A    between atoms: C_14  and  C_12 
REMARK   11  A    between atoms: C_15  and  C_13 
REMARK   12  A    between atoms: C_25  and  C_14 
REMARK   13  A    between atoms: C_32  and  C_15 
REMARK   14  A    between atoms: N_35  and  C_22 
REMARK   15  A    between atoms: O_36  and  C_27 
REMARK   16  A    between atoms: C_31  and  O_37 
REMARK       I    between atoms: N_35  and  C_32 
ROOT
HETATM    1  C   UNK N   1      24.756  12.349   4.518  0.00  0.00     0.018 C 
HETATM    2  C   UNK N   1      22.825  11.827  10.531  0.00  0.00     0.037 A 
HETATM    3  C   UNK N   1      23.596  12.364   9.495  0.00  0.00     0.011 A 
HETATM    4  C   UNK N   1      23.089  14.627   3.755  0.00  0.00     0.008 C 
HETATM    5  C   UNK N   1      24.280  14.693   2.777  0.00  0.00     0.033 C 
HETATM    6  C   UNK N   1      25.200  13.309   7.306  0.00  0.00     0.010 C 
HETATM    7  C   UNK N   1      25.933  13.895   6.092  0.00  0.00     0.013 C 
HETATM    8  C   UNK N   1      21.274  15.013   8.127  0.00  0.00     0.044 C 
HETATM    9  C   UNK N   1      21.032  13.365  10.001  0.00  0.00     0.044 A 
HETATM   10  C   UNK N   1      21.621  14.876   6.628  0.00  0.00    -0.005 C 
HETATM   11  C   UNK N   1      21.805  13.906   8.973  0.00  0.00    -0.048 A 
HETATM   12  C   UNK N   1      21.545  12.330  10.786  0.00  0.00     0.066 A 
HETATM   13  C   UNK N   1      23.094  13.420   8.719  0.00  0.00    -0.047 A 
HETATM   14  C   UNK N   1      23.865  14.038   7.572  0.00  0.00     0.024 C 
HETATM   15  C   UNK N   1      23.729  14.598   5.132  0.00  0.00     0.001 C 
HETATM   16  C   UNK N   1      25.531  14.579   3.646  0.00  0.00     0.126 C 
HETATM   17  C   UNK N   1      22.923  14.034   6.329  0.00  0.00     0.003 C 
HETATM   18  C   UNK N   1      25.023  13.827   4.870  0.00  0.00    -0.014 C 
ENDROOT
BRANCH  10  19
HETATM   19  C   UNK N   1      20.378  14.304   5.938  0.00  0.00     0.005 C 
BRANCH  19  20
HETATM   20  C   UNK N   1      19.395  15.351   5.447  0.00  0.00     0.000 C 
BRANCH  20  21
HETATM   21  C   UNK N   1      19.697  15.729   4.003  0.00  0.00     0.000 C 
BRANCH  21  22
HETATM   22  C   UNK N   1      19.820  17.237   3.837  0.00  0.00     0.000 C 
BRANCH  22  23
HETATM   23  C   UNK N   1      21.275  17.685   3.782  0.00  0.00     0.000 C 
BRANCH  23  24
HETATM   24  C   UNK N   1      21.754  18.244   5.110  0.00  0.00     0.000 C 
BRANCH  24  25
HETATM   25  C   UNK N   1      23.265  18.126   5.217  0.00  0.00     0.000 C 
BRANCH  25  26
HETATM   26  C   UNK N   1      23.885  18.368   3.856  0.00  0.00     0.000 C 
BRANCH  26  27
HETATM   27  C   UNK N   1      24.643  19.676   3.846  0.00  0.00     0.009 C 
BRANCH  27  28
HETATM   28  C   UNK N   1      26.142  19.461   3.703  0.00  0.00     0.103 C 
BRANCH  28  29
HETATM   29  C   UNK N   1      26.778  19.822   5.007  0.00  0.00     0.219 C 
HETATM   30  N   UNK N   1      27.235  18.855   5.856  0.00  0.00    -0.356 N 
HETATM   31  C   UNK N   1      27.067  17.454   5.533  0.00  0.00     0.152 C 
HETATM   32  O   UNK N   1      26.916  21.003   5.280  0.00  0.00    -0.273 OA
BRANCH  30  33
HETATM   33  C   UNK N   1      27.985  19.243   7.039  0.00  0.00     0.125 C 
BRANCH  33  34
HETATM   34  C   UNK N   1      28.188  18.099   8.019  0.00  0.00     0.019 C 
BRANCH  34  35
HETATM   35  C   UNK N   1      29.654  17.976   8.370  0.00  0.00    -0.003 C 
HETATM   36  C   UNK N   1      30.380  17.307   7.224  0.00  0.00     0.005 C 
ENDBRANCH  34  35
ENDBRANCH  33  34
ENDBRANCH  30  33
ENDBRANCH  28  29
ENDBRANCH  27  28
ENDBRANCH  26  27
ENDBRANCH  25  26
ENDBRANCH  24  25
ENDBRANCH  23  24
ENDBRANCH  22  23
ENDBRANCH  21  22
ENDBRANCH  20  21
ENDBRANCH  19  20
ENDBRANCH  10  19
BRANCH  12  37
HETATM   37  O   UNK N   1      20.809  11.820  11.786  0.00  0.00    -0.361 OA
HETATM   38  H   UNK N   1      20.094  11.239  11.614  0.00  0.00     0.217 HD
ENDBRANCH  12  37
BRANCH  16  39
HETATM   39  O   UNK N   1      26.570  13.918   2.987  0.00  0.00    -0.395 OA
HETATM   40  H   UNK N   1      27.009  13.119   3.315  0.00  0.00     0.210 HD
ENDBRANCH  16  39
TORSDOF 16
ENDMDL
