MODEL 1
REMARK VINA RESULT:      -3.8      0.000      0.000
REMARK  4 active torsions:
REMARK  status: ('A' for Active; 'I' for Inactive)
REMARK    1  A    between atoms: C_2  and  O_3 
REMARK    2  A    between atoms: O_3  and  P_4 
REMARK    3  A    between atoms: P_4  and  O_5 
REMARK    4  A    between atoms: P_4  and  O_6 
ROOT
HETATM    1  P   UNK N   1      34.068  17.776   8.452  0.00  0.00     0.390 P 
HETATM    2  O   UNK N   1      34.786  16.446   8.091  0.00  0.00    -0.632 OA
ENDROOT
BRANCH   1   3
HETATM    3  O   UNK N   1      34.539  18.044   6.796  0.00  0.00    -0.297 OA
BRANCH   3   4
HETATM    4  C   UNK N   1      33.977  16.984   6.074  0.00  0.00     0.176 C 
HETATM    5  C   UNK N   1      33.126  17.530   4.942  0.00  0.00     0.034 C 
ENDBRANCH   3   4
ENDBRANCH   1   3
BRANCH   1   6
HETATM    6  O   UNK N   1      35.275  17.617   9.688  0.00  0.00    -0.307 OA
HETATM    7  H   UNK N   1      35.124  17.849  10.618  0.00  0.00     0.222 HD
ENDBRANCH   1   6
BRANCH   1   8
HETATM    8  O   UNK N   1      35.194  19.097   8.375  0.00  0.00    -0.307 OA
HETATM    9  H   UNK N   1      35.449  19.618   7.598  0.00  0.00     0.222 HD
ENDBRANCH   1   8
TORSDOF 4
ENDMDL
MODEL 2
REMARK VINA RESULT:      -3.6      2.626      3.759
REMARK  4 active torsions:
REMARK  status: ('A' for Active; 'I' for Inactive)
REMARK    1  A    between atoms: C_2  and  O_3 
REMARK    2  A    between atoms: O_3  and  P_4 
REMARK    3  A    between atoms: P_4  and  O_5 
REMARK    4  A    between atoms: P_4  and  O_6 
ROOT
HETATM    1  P   UNK N   1      34.037  17.957   8.344  0.00  0.00     0.390 P 
HETATM    2  O   UNK N   1      35.029  19.151   8.272  0.00  0.00    -0.632 OA
ENDROOT
BRANCH   1   3
HETATM    3  O   UNK N   1      35.189  17.559   9.588  0.00  0.00    -0.297 OA
BRANCH   3   4
HETATM    4  C   UNK N   1      34.830  16.280  10.031  0.00  0.00     0.176 C 
HETATM    5  C   UNK N   1      35.520  15.982  11.350  0.00  0.00     0.034 C 
ENDBRANCH   3   4
ENDBRANCH   1   3
BRANCH   1   6
HETATM    6  O   UNK N   1      34.524  17.981   6.679  0.00  0.00    -0.307 OA
HETATM    7  H   UNK N   1      35.424  17.774   6.379  0.00  0.00     0.222 HD
ENDBRANCH   1   6
BRANCH   1   8
HETATM    8  O   UNK N   1      34.854  16.481   7.928  0.00  0.00    -0.307 OA
HETATM    9  H   UNK N   1      34.491  15.710   7.464  0.00  0.00     0.222 HD
ENDBRANCH   1   8
TORSDOF 4
ENDMDL
MODEL 3
REMARK VINA RESULT:      -3.5     11.391     12.191
REMARK  4 active torsions:
REMARK  status: ('A' for Active; 'I' for Inactive)
REMARK    1  A    between atoms: C_2  and  O_3 
REMARK    2  A    between atoms: O_3  and  P_4 
REMARK    3  A    between atoms: P_4  and  O_5 
REMARK    4  A    between atoms: P_4  and  O_6 
ROOT
HETATM    1  P   UNK N   1      31.456  22.322  -3.144  0.00  0.00     0.390 P 
HETATM    2  O   UNK N   1      30.974  22.762  -1.734  0.00  0.00    -0.632 OA
ENDROOT
BRANCH   1   3
HETATM    3  O   UNK N   1      29.730  22.110  -3.257  0.00  0.00    -0.297 OA
BRANCH   3   4
HETATM    4  C   UNK N   1      29.178  23.153  -2.504  0.00  0.00     0.176 C 
HETATM    5  C   UNK N   1      28.151  23.899  -3.338  0.00  0.00     0.034 C 
ENDBRANCH   3   4
ENDBRANCH   1   3
BRANCH   1   6
HETATM    6  O   UNK N   1      32.388  21.331  -2.067  0.00  0.00    -0.307 OA
HETATM    7  H   UNK N   1      32.007  20.847  -1.317  0.00  0.00     0.222 HD
ENDBRANCH   1   6
BRANCH   1   8
HETATM    8  O   UNK N   1      31.093  20.642  -3.397  0.00  0.00    -0.307 OA
HETATM    9  H   UNK N   1      31.206  19.908  -2.773  0.00  0.00     0.222 HD
ENDBRANCH   1   8
TORSDOF 4
ENDMDL
MODEL 4
REMARK VINA RESULT:      -3.5     14.562     15.061
REMARK  4 active torsions:
REMARK  status: ('A' for Active; 'I' for Inactive)
REMARK    1  A    between atoms: C_2  and  O_3 
REMARK    2  A    between atoms: O_3  and  P_4 
REMARK    3  A    between atoms: P_4  and  O_5 
REMARK    4  A    between atoms: P_4  and  O_6 
ROOT
HETATM    1  P   UNK N   1      21.304  19.978   2.721  0.00  0.00     0.390 P 
HETATM    2  O   UNK N   1      20.932  20.417   1.277  0.00  0.00    -0.632 OA
ENDROOT
BRANCH   1   3
HETATM    3  O   UNK N   1      19.665  19.407   2.568  0.00  0.00    -0.297 OA
BRANCH   3   4
HETATM    4  C   UNK N   1      19.772  18.040   2.289  0.00  0.00     0.176 C 
HETATM    5  C   UNK N   1      19.834  17.256   3.588  0.00  0.00     0.034 C 
ENDBRANCH   3   4
ENDBRANCH   1   3
BRANCH   1   6
HETATM    6  O   UNK N   1      21.640  21.680   2.714  0.00  0.00    -0.307 OA
HETATM    7  H   UNK N   1      21.224  22.312   3.323  0.00  0.00     0.222 HD
ENDBRANCH   1   6
BRANCH   1   8
HETATM    8  O   UNK N   1      20.294  20.801   3.870  0.00  0.00    -0.307 OA
HETATM    9  H   UNK N   1      20.120  21.753   3.936  0.00  0.00     0.222 HD
ENDBRANCH   1   8
TORSDOF 4
ENDMDL
MODEL 5
REMARK VINA RESULT:      -3.4     12.139     12.510
REMARK  4 active torsions:
REMARK  status: ('A' for Active; 'I' for Inactive)
REMARK    1  A    between atoms: C_2  and  O_3 
REMARK    2  A    between atoms: O_3  and  P_4 
REMARK    3  A    between atoms: P_4  and  O_5 
REMARK    4  A    between atoms: P_4  and  O_6 
ROOT
HETATM    1  P   UNK N   1      24.236  12.230  10.197  0.00  0.00     0.390 P 
HETATM    2  O   UNK N   1      25.126  13.445   9.815  0.00  0.00    -0.632 OA
ENDROOT
BRANCH   1   3
HETATM    3  O   UNK N   1      23.054  13.466   9.863  0.00  0.00    -0.297 OA
BRANCH   3   4
HETATM    4  C   UNK N   1      21.830  12.930  10.282  0.00  0.00     0.176 C 
HETATM    5  C   UNK N   1      20.696  13.834   9.833  0.00  0.00     0.034 C 
ENDBRANCH   3   4
ENDBRANCH   1   3
BRANCH   1   6
HETATM    6  O   UNK N   1      25.309  12.390  11.551  0.00  0.00    -0.307 OA
HETATM    7  H   UNK N   1      25.304  11.790  12.313  0.00  0.00     0.222 HD
ENDBRANCH   1   6
BRANCH   1   8
HETATM    8  O   UNK N   1      23.341  12.581  11.643  0.00  0.00    -0.307 OA
HETATM    9  H   UNK N   1      22.544  12.139  11.973  0.00  0.00     0.222 HD
ENDBRANCH   1   8
TORSDOF 4
ENDMDL
MODEL 6
REMARK VINA RESULT:      -3.3     12.536     12.925
REMARK  4 active torsions:
REMARK  status: ('A' for Active; 'I' for Inactive)
REMARK    1  A    between atoms: C_2  and  O_3 
REMARK    2  A    between atoms: O_3  and  P_4 
REMARK    3  A    between atoms: P_4  and  O_5 
REMARK    4  A    between atoms: P_4  and  O_6 
ROOT
HETATM    1  P   UNK N   1      43.932  23.054   3.407  0.00  0.00     0.390 P 
HETATM    2  O   UNK N   1      45.442  22.725   3.568  0.00  0.00    -0.632 OA
ENDROOT
BRANCH   1   3
HETATM    3  O   UNK N   1      44.682  24.601   3.123  0.00  0.00    -0.297 OA
BRANCH   3   4
HETATM    4  C   UNK N   1      45.525  24.407   2.022  0.00  0.00     0.176 C 
HETATM    5  C   UNK N   1      46.504  25.563   1.917  0.00  0.00     0.034 C 
ENDBRANCH   3   4
ENDBRANCH   1   3
BRANCH   1   6
HETATM    6  O   UNK N   1      44.022  22.315   4.974  0.00  0.00    -0.307 OA
HETATM    7  H   UNK N   1      43.953  21.358   5.120  0.00  0.00     0.222 HD
ENDBRANCH   1   6
BRANCH   1   8
HETATM    8  O   UNK N   1      43.434  24.175   4.637  0.00  0.00    -0.307 OA
HETATM    9  H   UNK N   1      43.787  24.269   5.536  0.00  0.00     0.222 HD
ENDBRANCH   1   8
TORSDOF 4
ENDMDL
MODEL 7
REMARK VINA RESULT:      -3.3      1.423      2.079
REMARK  4 active torsions:
REMARK  status: ('A' for Active; 'I' for Inactive)
REMARK    1  A    between atoms: C_2  and  O_3 
REMARK    2  A    between atoms: O_3  and  P_4 
REMARK    3  A    between atoms: P_4  and  O_5 
REMARK    4  A    between atoms: P_4  and  O_6 
ROOT
HETATM    1  P   UNK N   1      33.670  18.051   8.220  0.00  0.00     0.390 P 
HETATM    2  O   UNK N   1      34.512  17.479   9.394  0.00  0.00    -0.632 OA
ENDROOT
BRANCH   1   3
HETATM    3  O   UNK N   1      33.898  16.392   7.741  0.00  0.00    -0.297 OA
BRANCH   3   4
HETATM    4  C   UNK N   1      32.759  16.062   6.996  0.00  0.00     0.176 C 
HETATM    5  C   UNK N   1      31.514  16.517   7.736  0.00  0.00     0.034 C 
ENDBRANCH   3   4
ENDBRANCH   1   3
BRANCH   1   6
HETATM    6  O   UNK N   1      35.028  19.128   8.310  0.00  0.00    -0.307 OA
HETATM    7  H   UNK N   1      35.623  19.306   7.564  0.00  0.00     0.222 HD
ENDBRANCH   1   6
BRANCH   1   8
HETATM    8  O   UNK N   1      34.591  17.993   6.747  0.00  0.00    -0.307 OA
HETATM    9  H   UNK N   1      35.095  17.246   6.389  0.00  0.00     0.222 HD
ENDBRANCH   1   8
TORSDOF 4
ENDMDL
MODEL 8
REMARK VINA RESULT:      -3.3     19.168     19.376
REMARK  4 active torsions:
REMARK  status: ('A' for Active; 'I' for Inactive)
REMARK    1  A    between atoms: C_2  and  O_3 
REMARK    2  A    between atoms: O_3  and  P_4 
REMARK    3  A    between atoms: P_4  and  O_5 
REMARK    4  A    between atoms: P_4  and  O_6 
ROOT
HETATM    1  P   UNK N   1      49.222  19.108  20.633  0.00  0.00     0.390 P 
HETATM    2  O   UNK N   1      49.656  19.457  19.182  0.00  0.00    -0.632 OA
ENDROOT
BRANCH   1   3
HETATM    3  O   UNK N   1      48.584  17.767  19.722  0.00  0.00    -0.297 OA
BRANCH   3   4
HETATM    4  C   UNK N   1      48.997  16.621  20.411  0.00  0.00     0.176 C 
HETATM    5  C   UNK N   1      49.826  15.741  19.492  0.00  0.00     0.034 C 
ENDBRANCH   3   4
ENDBRANCH   1   3
BRANCH   1   6
HETATM    6  O   UNK N   1      48.591  20.707  20.391  0.00  0.00    -0.307 OA
HETATM    7  H   UNK N   1      49.104  21.434  20.005  0.00  0.00     0.222 HD
ENDBRANCH   1   6
BRANCH   1   8
HETATM    8  O   UNK N   1      47.489  19.101  20.747  0.00  0.00    -0.307 OA
HETATM    9  H   UNK N   1      46.898  18.333  20.803  0.00  0.00     0.222 HD
ENDBRANCH   1   8
TORSDOF 4
ENDMDL
MODEL 9
REMARK VINA RESULT:      -3.3     12.876     13.607
REMARK  4 active torsions:
REMARK  status: ('A' for Active; 'I' for Inactive)
REMARK    1  A    between atoms: C_2  and  O_3 
REMARK    2  A    between atoms: O_3  and  P_4 
REMARK    3  A    between atoms: P_4  and  O_5 
REMARK    4  A    between atoms: P_4  and  O_6 
ROOT
HETATM    1  P   UNK N   1      21.304  20.089   2.651  0.00  0.00     0.390 P 
HETATM    2  O   UNK N   1      20.318  20.607   3.735  0.00  0.00    -0.632 OA
ENDROOT
BRANCH   1   3
HETATM    3  O   UNK N   1      22.128  19.679   4.130  0.00  0.00    -0.297 OA
BRANCH   3   4
HETATM    4  C   UNK N   1      22.637  18.391   3.926  0.00  0.00     0.176 C 
HETATM    5  C   UNK N   1      23.890  18.198   4.762  0.00  0.00     0.034 C 
ENDBRANCH   3   4
ENDBRANCH   1   3
BRANCH   1   6
HETATM    6  O   UNK N   1      21.060  21.752   2.219  0.00  0.00    -0.307 OA
HETATM    7  H   UNK N   1      21.533  22.490   2.636  0.00  0.00     0.222 HD
ENDBRANCH   1   6
BRANCH   1   8
HETATM    8  O   UNK N   1      22.800  20.966   2.743  0.00  0.00    -0.307 OA
HETATM    9  H   UNK N   1      23.011  21.729   3.304  0.00  0.00     0.222 HD
ENDBRANCH   1   8
TORSDOF 4
ENDMDL
