MODEL 1
REMARK VINA RESULT:      -5.3      0.000      0.000
REMARK  5 active torsions:
REMARK  status: ('A' for Active; 'I' for Inactive)
REMARK    1  A    between atoms: C_5  and  C_3 
REMARK    2  A    between atoms: O_6  and  C_3 
REMARK    3  A    between atoms: C_4  and  O_7 
REMARK    4  A    between atoms: P_15  and  O_8 
REMARK    5  A    between atoms: P_16  and  O_10 
ROOT
HETATM    1  C   UNK N   1      34.603  14.203  11.498  0.00  0.00     0.052 C 
HETATM    2  C   UNK N   1      35.018  16.918  10.170  0.00  0.00     0.215 C 
HETATM    3  C   UNK N   1      36.051  15.790  10.111  0.00  0.00     0.179 C 
HETATM    4  C   UNK N   1      35.382  14.388  10.182  0.00  0.00     0.117 C 
HETATM    5  O   UNK N   1      32.506  17.762   8.451  0.00  0.00    -0.631 OA
HETATM    6  O   UNK N   1      32.114  14.359   7.903  0.00  0.00    -0.631 OA
HETATM    7  O   UNK N   1      35.123  17.756   9.058  0.00  0.00    -0.294 OA
HETATM    8  O   UNK N   1      34.591  14.146   9.021  0.00  0.00    -0.281 OA
HETATM    9  O   UNK N   1      33.812  15.504   7.723  0.00  0.00    -0.195 OA
HETATM   10  P   UNK N   1      33.881  17.238   7.949  0.00  0.00     0.401 P 
HETATM   11  P   UNK N   1      32.976  14.837   9.102  0.00  0.00     0.402 P 
ENDROOT
BRANCH   4  12
HETATM   12  C   UNK N   1      36.458  13.294  10.151  0.00  0.00     0.205 C 
BRANCH  12  13
HETATM   13  O   UNK N   1      37.218  13.254  11.322  0.00  0.00    -0.398 OA
HETATM   14  H   UNK N   1      37.334  13.995  11.938  0.00  0.00     0.209 HD
ENDBRANCH  12  13
ENDBRANCH   4  12
BRANCH   3  15
HETATM   15  O   UNK N   1      36.945  15.974  11.168  0.00  0.00    -0.390 OA
HETATM   16  H   UNK N   1      37.737  15.432  11.303  0.00  0.00     0.210 HD
ENDBRANCH   3  15
BRANCH  11  17
HETATM   17  O   UNK N   1      32.888  13.114   9.309  0.00  0.00    -0.307 OA
HETATM   18  H   UNK N   1      32.388  12.726  10.045  0.00  0.00     0.222 HD
ENDBRANCH  11  17
BRANCH  10  19
HETATM   19  O   UNK N   1      34.141  18.001   6.412  0.00  0.00    -0.307 OA
HETATM   20  H   UNK N   1      34.851  18.027   5.752  0.00  0.00     0.222 HD
ENDBRANCH  10  19
TORSDOF 5
ENDMDL
MODEL 2
REMARK VINA RESULT:      -5.3      3.742      5.551
REMARK  5 active torsions:
REMARK  status: ('A' for Active; 'I' for Inactive)
REMARK    1  A    between atoms: C_5  and  C_3 
REMARK    2  A    between atoms: O_6  and  C_3 
REMARK    3  A    between atoms: C_4  and  O_7 
REMARK    4  A    between atoms: P_15  and  O_8 
REMARK    5  A    between atoms: P_16  and  O_10 
ROOT
HETATM    1  C   UNK N   1      31.086  15.060   5.836  0.00  0.00     0.052 C 
HETATM    2  C   UNK N   1      33.953  15.902   6.456  0.00  0.00     0.215 C 
HETATM    3  C   UNK N   1      33.192  16.372   5.215  0.00  0.00     0.179 C 
HETATM    4  C   UNK N   1      31.658  16.443   5.468  0.00  0.00     0.117 C 
HETATM    5  O   UNK N   1      34.245  16.911   9.435  0.00  0.00    -0.631 OA
HETATM    6  O   UNK N   1      30.975  18.011   9.066  0.00  0.00    -0.631 OA
HETATM    7  O   UNK N   1      34.921  16.833   6.836  0.00  0.00    -0.294 OA
HETATM    8  O   UNK N   1      31.349  17.454   6.424  0.00  0.00    -0.281 OA
HETATM    9  O   UNK N   1      32.577  18.293   7.810  0.00  0.00    -0.195 OA
HETATM   10  P   UNK N   1      34.213  17.759   8.133  0.00  0.00     0.401 P 
HETATM   11  P   UNK N   1      31.525  16.932   8.094  0.00  0.00     0.402 P 
ENDROOT
BRANCH   4  12
HETATM   12  C   UNK N   1      30.938  16.888   4.188  0.00  0.00     0.205 C 
BRANCH  12  13
HETATM   13  O   UNK N   1      31.727  17.716   3.387  0.00  0.00    -0.398 OA
HETATM   14  H   UNK N   1      31.447  18.111   2.545  0.00  0.00     0.209 HD
ENDBRANCH  12  13
ENDBRANCH   4  12
BRANCH   3  15
HETATM   15  O   UNK N   1      33.489  15.493   4.172  0.00  0.00    -0.390 OA
HETATM   16  H   UNK N   1      32.982  15.445   3.347  0.00  0.00     0.210 HD
ENDBRANCH   3  15
BRANCH  11  17
HETATM   17  O   UNK N   1      29.838  17.044   7.689  0.00  0.00    -0.307 OA
HETATM   18  H   UNK N   1      29.239  17.611   8.200  0.00  0.00     0.222 HD
ENDBRANCH  11  17
BRANCH  10  19
HETATM   19  O   UNK N   1      35.210  19.144   8.451  0.00  0.00    -0.307 OA
HETATM   20  H   UNK N   1      35.774  19.737   7.930  0.00  0.00     0.222 HD
ENDBRANCH  10  19
TORSDOF 5
ENDMDL
MODEL 3
REMARK VINA RESULT:      -5.2      2.685      3.789
REMARK  5 active torsions:
REMARK  status: ('A' for Active; 'I' for Inactive)
REMARK    1  A    between atoms: C_5  and  C_3 
REMARK    2  A    between atoms: O_6  and  C_3 
REMARK    3  A    between atoms: C_4  and  O_7 
REMARK    4  A    between atoms: P_15  and  O_8 
REMARK    5  A    between atoms: P_16  and  O_10 
ROOT
HETATM    1  C   UNK N   1      33.681  13.804   6.114  0.00  0.00     0.052 C 
HETATM    2  C   UNK N   1      34.235  15.572   8.538  0.00  0.00     0.215 C 
HETATM    3  C   UNK N   1      35.336  14.845   7.762  0.00  0.00     0.179 C 
HETATM    4  C   UNK N   1      34.959  14.652   6.265  0.00  0.00     0.117 C 
HETATM    5  O   UNK N   1      32.776  18.363   8.293  0.00  0.00    -0.631 OA
HETATM    6  O   UNK N   1      33.267  17.982   4.881  0.00  0.00    -0.631 OA
HETATM    7  O   UNK N   1      34.728  16.727   9.149  0.00  0.00    -0.294 OA
HETATM    8  O   UNK N   1      34.885  15.908   5.596  0.00  0.00    -0.281 OA
HETATM    9  O   UNK N   1      34.622  17.754   6.409  0.00  0.00    -0.195 OA
HETATM   10  P   UNK N   1      34.286  18.049   8.101  0.00  0.00     0.401 P 
HETATM   11  P   UNK N   1      33.345  16.734   5.800  0.00  0.00     0.402 P 
ENDROOT
BRANCH   4  12
HETATM   12  C   UNK N   1      36.077  13.893   5.538  0.00  0.00     0.205 C 
BRANCH  12  13
HETATM   13  O   UNK N   1      37.345  14.188   6.045  0.00  0.00    -0.398 OA
HETATM   14  H   UNK N   1      37.629  14.038   6.962  0.00  0.00     0.209 HD
ENDBRANCH  12  13
ENDBRANCH   4  12
BRANCH   3  15
HETATM   15  O   UNK N   1      35.560  13.617   8.387  0.00  0.00    -0.390 OA
HETATM   16  H   UNK N   1      36.420  13.342   8.741  0.00  0.00     0.210 HD
ENDBRANCH   3  15
BRANCH  11  17
HETATM   17  O   UNK N   1      33.452  16.080   4.192  0.00  0.00    -0.307 OA
HETATM   18  H   UNK N   1      34.293  16.085   3.708  0.00  0.00     0.222 HD
ENDBRANCH  11  17
BRANCH  10  19
HETATM   19  O   UNK N   1      35.131  19.479   8.606  0.00  0.00    -0.307 OA
HETATM   20  H   UNK N   1      36.056  19.740   8.734  0.00  0.00     0.222 HD
ENDBRANCH  10  19
TORSDOF 5
ENDMDL
MODEL 4
REMARK VINA RESULT:      -5.2     13.950     15.722
REMARK  5 active torsions:
REMARK  status: ('A' for Active; 'I' for Inactive)
REMARK    1  A    between atoms: C_5  and  C_3 
REMARK    2  A    between atoms: O_6  and  C_3 
REMARK    3  A    between atoms: C_4  and  O_7 
REMARK    4  A    between atoms: P_15  and  O_8 
REMARK    5  A    between atoms: P_16  and  O_10 
ROOT
HETATM    1  C   UNK N   1      21.541  16.430   3.192  0.00  0.00     0.052 C 
HETATM    2  C   UNK N   1      21.608  16.873   6.209  0.00  0.00     0.215 C 
HETATM    3  C   UNK N   1      21.154  17.944   5.216  0.00  0.00     0.179 C 
HETATM    4  C   UNK N   1      20.527  17.320   3.937  0.00  0.00     0.117 C 
HETATM    5  O   UNK N   1      20.208  14.503   7.760  0.00  0.00    -0.631 OA
HETATM    6  O   UNK N   1      18.167  14.278   4.964  0.00  0.00    -0.631 OA
HETATM    7  O   UNK N   1      21.002  17.051   7.454  0.00  0.00    -0.294 OA
HETATM    8  O   UNK N   1      19.309  16.648   4.247  0.00  0.00    -0.281 OA
HETATM    9  O   UNK N   1      18.683  15.946   6.050  0.00  0.00    -0.195 OA
HETATM   10  P   UNK N   1      19.663  15.935   7.500  0.00  0.00     0.401 P 
HETATM   11  P   UNK N   1      19.531  15.010   4.847  0.00  0.00     0.402 P 
ENDROOT
BRANCH   4  12
HETATM   12  C   UNK N   1      20.118  18.430   2.960  0.00  0.00     0.205 C 
BRANCH  12  13
HETATM   13  O   UNK N   1      18.949  18.124   2.258  0.00  0.00    -0.398 OA
HETATM   14  H   UNK N   1      18.498  18.720   1.638  0.00  0.00     0.209 HD
ENDBRANCH  12  13
ENDBRANCH   4  12
BRANCH   3  15
HETATM   15  O   UNK N   1      22.263  18.730   4.899  0.00  0.00    -0.390 OA
HETATM   16  H   UNK N   1      22.339  19.670   5.125  0.00  0.00     0.210 HD
ENDBRANCH   3  15
BRANCH  11  17
HETATM   17  O   UNK N   1      18.940  14.961   3.214  0.00  0.00    -0.307 OA
HETATM   18  H   UNK N   1      19.408  15.424   2.500  0.00  0.00     0.222 HD
ENDBRANCH  11  17
BRANCH  10  19
HETATM   19  O   UNK N   1      18.659  16.309   8.866  0.00  0.00    -0.307 OA
HETATM   20  H   UNK N   1      18.414  15.874   9.697  0.00  0.00     0.222 HD
ENDBRANCH  10  19
TORSDOF 5
ENDMDL
MODEL 5
REMARK VINA RESULT:      -5.1      5.466      7.572
REMARK  5 active torsions:
REMARK  status: ('A' for Active; 'I' for Inactive)
REMARK    1  A    between atoms: C_5  and  C_3 
REMARK    2  A    between atoms: O_6  and  C_3 
REMARK    3  A    between atoms: C_4  and  O_7 
REMARK    4  A    between atoms: P_15  and  O_8 
REMARK    5  A    between atoms: P_16  and  O_10 
ROOT
HETATM    1  C   UNK N   1      27.228  16.977   6.689  0.00  0.00     0.052 C 
HETATM    2  C   UNK N   1      30.224  16.586   6.260  0.00  0.00     0.215 C 
HETATM    3  C   UNK N   1      29.425  17.717   5.608  0.00  0.00     0.179 C 
HETATM    4  C   UNK N   1      28.211  18.146   6.480  0.00  0.00     0.117 C 
HETATM    5  O   UNK N   1      31.744  16.193   9.001  0.00  0.00    -0.631 OA
HETATM    6  O   UNK N   1      29.309  18.290  10.307  0.00  0.00    -0.631 OA
HETATM    7  O   UNK N   1      31.562  16.946   6.429  0.00  0.00    -0.294 OA
HETATM    8  O   UNK N   1      28.649  18.738   7.701  0.00  0.00    -0.281 OA
HETATM    9  O   UNK N   1      30.453  18.542   8.618  0.00  0.00    -0.195 OA
HETATM   10  P   UNK N   1      31.717  17.453   8.090  0.00  0.00     0.401 P 
HETATM   11  P   UNK N   1      29.043  17.572   8.957  0.00  0.00     0.402 P 
ENDROOT
BRANCH   4  12
HETATM   12  C   UNK N   1      27.425  19.257   5.772  0.00  0.00     0.205 C 
BRANCH  12  13
HETATM   13  O   UNK N   1      26.680  20.039   6.659  0.00  0.00    -0.398 OA
HETATM   14  H   UNK N   1      26.970  20.884   7.037  0.00  0.00     0.209 HD
ENDBRANCH  12  13
ENDBRANCH   4  12
BRANCH   3  15
HETATM   15  O   UNK N   1      29.010  17.276   4.350  0.00  0.00    -0.390 OA
HETATM   16  H   UNK N   1      29.238  16.409   3.981  0.00  0.00     0.210 HD
ENDBRANCH   3  15
BRANCH  11  17
HETATM   17  O   UNK N   1      27.531  18.344   9.327  0.00  0.00    -0.307 OA
HETATM   18  H   UNK N   1      27.324  19.227   8.980  0.00  0.00     0.222 HD
ENDBRANCH  11  17
BRANCH  10  19
HETATM   19  O   UNK N   1      33.257  18.222   8.307  0.00  0.00    -0.307 OA
HETATM   20  H   UNK N   1      34.187  17.985   8.165  0.00  0.00     0.222 HD
ENDBRANCH  10  19
TORSDOF 5
ENDMDL
MODEL 6
REMARK VINA RESULT:      -5.1      2.380      4.476
REMARK  5 active torsions:
REMARK  status: ('A' for Active; 'I' for Inactive)
REMARK    1  A    between atoms: C_5  and  C_3 
REMARK    2  A    between atoms: O_6  and  C_3 
REMARK    3  A    between atoms: C_4  and  O_7 
REMARK    4  A    between atoms: P_15  and  O_8 
REMARK    5  A    between atoms: P_16  and  O_10 
ROOT
HETATM    1  C   UNK N   1      31.560  15.766   7.827  0.00  0.00     0.052 C 
HETATM    2  C   UNK N   1      33.362  14.897  10.129  0.00  0.00     0.215 C 
HETATM    3  C   UNK N   1      33.279  14.142   8.801  0.00  0.00     0.179 C 
HETATM    4  C   UNK N   1      32.929  15.090   7.618  0.00  0.00     0.117 C 
HETATM    5  O   UNK N   1      35.065  17.313  11.243  0.00  0.00    -0.631 OA
HETATM    6  O   UNK N   1      34.988  18.481   7.978  0.00  0.00    -0.631 OA
HETATM    7  O   UNK N   1      34.608  14.715  10.734  0.00  0.00    -0.294 OA
HETATM    8  O   UNK N   1      33.985  16.017   7.383  0.00  0.00    -0.281 OA
HETATM    9  O   UNK N   1      35.456  16.600   8.660  0.00  0.00    -0.195 OA
HETATM   10  P   UNK N   1      35.541  16.136  10.346  0.00  0.00     0.401 P 
HETATM   11  P   UNK N   1      33.940  17.430   8.430  0.00  0.00     0.402 P 
ENDROOT
BRANCH   4  12
HETATM   12  C   UNK N   1      32.825  14.284   6.316  0.00  0.00     0.205 C 
BRANCH  12  13
HETATM   13  O   UNK N   1      31.661  13.515   6.250  0.00  0.00    -0.398 OA
HETATM   14  H   UNK N   1      31.413  12.938   5.509  0.00  0.00     0.209 HD
ENDBRANCH  12  13
ENDBRANCH   4  12
BRANCH   3  15
HETATM   15  O   UNK N   1      32.321  13.137   8.940  0.00  0.00    -0.390 OA
HETATM   16  H   UNK N   1      31.369  13.307   9.022  0.00  0.00     0.210 HD
ENDBRANCH   3  15
BRANCH  11  17
HETATM   17  O   UNK N   1      33.430  17.870   6.827  0.00  0.00    -0.307 OA
HETATM   18  H   UNK N   1      32.492  18.022   6.627  0.00  0.00     0.222 HD
ENDBRANCH  11  17
BRANCH  10  19
HETATM   19  O   UNK N   1      37.200  15.859  10.776  0.00  0.00    -0.307 OA
HETATM   20  H   UNK N   1      37.970  15.434  10.367  0.00  0.00     0.222 HD
ENDBRANCH  10  19
TORSDOF 5
ENDMDL
MODEL 7
REMARK VINA RESULT:      -5.1      2.300      5.023
REMARK  5 active torsions:
REMARK  status: ('A' for Active; 'I' for Inactive)
REMARK    1  A    between atoms: C_5  and  C_3 
REMARK    2  A    between atoms: O_6  and  C_3 
REMARK    3  A    between atoms: C_4  and  O_7 
REMARK    4  A    between atoms: P_15  and  O_8 
REMARK    5  A    between atoms: P_16  and  O_10 
ROOT
HETATM    1  C   UNK N   1      32.507  17.065   8.356  0.00  0.00     0.052 C 
HETATM    2  C   UNK N   1      32.849  14.162   9.230  0.00  0.00     0.215 C 
HETATM    3  C   UNK N   1      33.079  14.636   7.794  0.00  0.00     0.179 C 
HETATM    4  C   UNK N   1      33.555  16.116   7.742  0.00  0.00     0.117 C 
HETATM    5  O   UNK N   1      34.617  13.938  11.838  0.00  0.00    -0.631 OA
HETATM    6  O   UNK N   1      36.241  16.750  10.615  0.00  0.00    -0.631 OA
HETATM    7  O   UNK N   1      33.616  13.031   9.516  0.00  0.00    -0.294 OA
HETATM    8  O   UNK N   1      34.849  16.252   8.325  0.00  0.00    -0.281 OA
HETATM    9  O   UNK N   1      35.776  15.004   9.635  0.00  0.00    -0.195 OA
HETATM   10  P   UNK N   1      35.021  13.608  10.374  0.00  0.00     0.401 P 
HETATM   11  P   UNK N   1      34.828  16.399  10.078  0.00  0.00     0.402 P 
ENDROOT
BRANCH   4  12
HETATM   12  C   UNK N   1      33.742  16.555   6.283  0.00  0.00     0.205 C 
BRANCH  12  13
HETATM   13  O   UNK N   1      34.324  17.819   6.172  0.00  0.00    -0.398 OA
HETATM   14  H   UNK N   1      34.757  18.167   5.375  0.00  0.00     0.209 HD
ENDBRANCH  12  13
ENDBRANCH   4  12
BRANCH   3  15
HETATM   15  O   UNK N   1      31.885  14.468   7.091  0.00  0.00    -0.390 OA
HETATM   16  H   UNK N   1      31.453  15.174   6.585  0.00  0.00     0.210 HD
ENDBRANCH   3  15
BRANCH  11  17
HETATM   17  O   UNK N   1      35.178  17.945   9.364  0.00  0.00    -0.307 OA
HETATM   18  H   UNK N   1      35.048  18.095   8.414  0.00  0.00     0.222 HD
ENDBRANCH  11  17
BRANCH  10  19
HETATM   19  O   UNK N   1      36.184  12.325  10.485  0.00  0.00    -0.307 OA
HETATM   20  H   UNK N   1      36.466  11.690  11.161  0.00  0.00     0.222 HD
ENDBRANCH  10  19
TORSDOF 5
ENDMDL
MODEL 8
REMARK VINA RESULT:      -4.8     14.659     16.298
REMARK  5 active torsions:
REMARK  status: ('A' for Active; 'I' for Inactive)
REMARK    1  A    between atoms: C_5  and  C_3 
REMARK    2  A    between atoms: O_6  and  C_3 
REMARK    3  A    between atoms: C_4  and  O_7 
REMARK    4  A    between atoms: P_15  and  O_8 
REMARK    5  A    between atoms: P_16  and  O_10 
ROOT
HETATM    1  C   UNK N   1      32.321  22.003  -5.181  0.00  0.00     0.052 C 
HETATM    2  C   UNK N   1      29.684  23.405  -5.807  0.00  0.00     0.215 C 
HETATM    3  C   UNK N   1      29.876  21.891  -5.922  0.00  0.00     0.179 C 
HETATM    4  C   UNK N   1      30.943  21.364  -4.921  0.00  0.00     0.117 C 
HETATM    5  O   UNK N   1      28.858  25.400  -3.501  0.00  0.00    -0.631 OA
HETATM    6  O   UNK N   1      30.453  23.152  -1.394  0.00  0.00    -0.631 OA
HETATM    7  O   UNK N   1      28.352  23.725  -5.540  0.00  0.00    -0.294 OA
HETATM    8  O   UNK N   1      30.495  21.519  -3.577  0.00  0.00    -0.281 OA
HETATM    9  O   UNK N   1      29.065  22.776  -2.863  0.00  0.00    -0.195 OA
HETATM   10  P   UNK N   1      28.260  24.001  -3.820  0.00  0.00     0.401 P 
HETATM   11  P   UNK N   1      30.773  23.123  -2.913  0.00  0.00     0.402 P 
ENDROOT
BRANCH   4  12
HETATM   12  C   UNK N   1      31.121  19.850  -5.097  0.00  0.00     0.205 C 
BRANCH  12  13
HETATM   13  O   UNK N   1      31.969  19.293  -4.135  0.00  0.00    -0.398 OA
HETATM   14  H   UNK N   1      32.913  19.498  -4.037  0.00  0.00     0.209 HD
ENDBRANCH  12  13
ENDBRANCH   4  12
BRANCH   3  15
HETATM   15  O   UNK N   1      30.238  21.606  -7.240  0.00  0.00    -0.390 OA
HETATM   16  H   UNK N   1      30.025  22.178  -7.993  0.00  0.00     0.210 HD
ENDBRANCH   3  15
BRANCH  11  17
HETATM   17  O   UNK N   1      31.905  21.998  -2.223  0.00  0.00    -0.307 OA
HETATM   18  H   UNK N   1      32.797  22.283  -1.966  0.00  0.00     0.222 HD
ENDBRANCH  11  17
BRANCH  10  19
HETATM   19  O   UNK N   1      26.592  24.085  -3.348  0.00  0.00    -0.307 OA
HETATM   20  H   UNK N   1      25.840  23.473  -3.314  0.00  0.00     0.222 HD
ENDBRANCH  10  19
TORSDOF 5
ENDMDL
MODEL 9
REMARK VINA RESULT:      -4.8      2.461      3.362
REMARK  5 active torsions:
REMARK  status: ('A' for Active; 'I' for Inactive)
REMARK    1  A    between atoms: C_5  and  C_3 
REMARK    2  A    between atoms: O_6  and  C_3 
REMARK    3  A    between atoms: C_4  and  O_7 
REMARK    4  A    between atoms: P_15  and  O_8 
REMARK    5  A    between atoms: P_16  and  O_10 
ROOT
HETATM    1  C   UNK N   1      34.028  13.300   9.286  0.00  0.00     0.052 C 
HETATM    2  C   UNK N   1      32.272  15.191   7.659  0.00  0.00     0.215 C 
HETATM    3  C   UNK N   1      32.823  15.543   9.042  0.00  0.00     0.179 C 
HETATM    4  C   UNK N   1      34.179  14.834   9.322  0.00  0.00     0.117 C 
HETATM    5  O   UNK N   1      33.306  15.462   4.686  0.00  0.00    -0.631 OA
HETATM    6  O   UNK N   1      36.456  14.980   6.056  0.00  0.00    -0.631 OA
HETATM    7  O   UNK N   1      32.054  16.340   6.895  0.00  0.00    -0.294 OA
HETATM    8  O   UNK N   1      35.195  15.320   8.449  0.00  0.00    -0.281 OA
HETATM    9  O   UNK N   1      34.972  16.267   6.663  0.00  0.00    -0.195 OA
HETATM   10  P   UNK N   1      33.440  16.488   5.846  0.00  0.00     0.401 P 
HETATM   11  P   UNK N   1      35.205  14.550   6.867  0.00  0.00     0.402 P 
ENDROOT
BRANCH   4  12
HETATM   12  C   UNK N   1      34.675  15.192  10.729  0.00  0.00     0.205 C 
BRANCH  12  13
HETATM   13  O   UNK N   1      34.086  14.407  11.723  0.00  0.00    -0.398 OA
HETATM   14  H   UNK N   1      33.378  13.759  11.577  0.00  0.00     0.209 HD
ENDBRANCH  12  13
ENDBRANCH   4  12
BRANCH   3  15
HETATM   15  O   UNK N   1      31.863  15.184   9.989  0.00  0.00    -0.390 OA
HETATM   16  H   UNK N   1      31.946  15.370  10.937  0.00  0.00     0.210 HD
ENDBRANCH   3  15
BRANCH  11  17
HETATM   17  O   UNK N   1      36.541  13.965   7.813  0.00  0.00    -0.307 OA
HETATM   18  H   UNK N   1      36.481  13.123   8.292  0.00  0.00     0.222 HD
ENDBRANCH  11  17
BRANCH  10  19
HETATM   19  O   UNK N   1      33.417  18.052   5.095  0.00  0.00    -0.307 OA
HETATM   20  H   UNK N   1      33.852  18.474   4.338  0.00  0.00     0.222 HD
ENDBRANCH  10  19
TORSDOF 5
ENDMDL
