MODEL 1
REMARK VINA RESULT:      -9.7      0.000      0.000
REMARK  22 active torsions:
REMARK  status: ('A' for Active; 'I' for Inactive)
REMARK    1  A    between atoms: O_1  and  C_2 
REMARK    2  A    between atoms: C_5  and  S_76 
REMARK    3  A    between atoms: C_7  and  N_8 
REMARK    4  A    between atoms: N_10  and  C_12 
REMARK    5  A    between atoms: C_13  and  O_14 
REMARK    6  A    between atoms: C_18  and  N_19 
REMARK       I    between atoms: N_19  and  C_20 
REMARK       I    between atoms: C_23  and  N_24 
REMARK    7  A    between atoms: N_24  and  C_25 
REMARK    8  A    between atoms: C_26  and  S_55 
REMARK    9  A    between atoms: C_31  and  O_32 
REMARK   10  A    between atoms: C_33  and  N_34 
REMARK   11  A    between atoms: N_36  and  C_38 
REMARK   12  A    between atoms: C_40  and  S_45 
REMARK   13  A    between atoms: C_43  and  O_44 
REMARK   14  A    between atoms: S_45  and  O_46 
REMARK   15  A    between atoms: C_49  and  S_51 
REMARK   16  A    between atoms: S_51  and  O_52 
REMARK   17  A    between atoms: S_55  and  O_56 
REMARK   18  A    between atoms: C_64  and  S_72 
REMARK   19  A    between atoms: C_67  and  S_68 
REMARK   20  A    between atoms: S_68  and  O_69 
REMARK   21  A    between atoms: S_72  and  O_73 
REMARK   22  A    between atoms: S_76  and  O_77 
ROOT
HETATM    1  N   UNK N   1      35.609  11.314   7.806  0.00  0.00    -0.190 N 
HETATM    2  C   UNK N   1      35.681  12.352   6.839  0.00  0.00     0.698 A 
HETATM    3  N   UNK N   1      34.583  12.684   6.111  0.00  0.00    -0.022 N 
ATOM      4  HN  UNK N   1      33.756  12.086   6.134  1.00  0.00     0.203 HD
HETATM    5  C   UNK N   1      34.583  13.814   5.353  0.00  0.00     0.698 A 
HETATM    6  N   UNK N   1      33.464  14.127   4.561  0.00  0.00    -0.190 N 
HETATM    7  N   UNK N   1      35.710  14.565   5.256  0.00  0.00    -0.187 N 
ATOM      8  HN  UNK N   1      35.731  15.375   4.636  1.00  0.00     0.185 HD
HETATM    9  C   UNK N   1      36.806  14.238   5.983  0.00  0.00     0.215 A 
HETATM   10  N   UNK N   1      36.778  13.155   6.798  0.00  0.00    -0.187 N 
ATOM     11  HN  UNK N   1      37.585  12.941   7.385  1.00  0.00     0.185 HD
HETATM   12  H   UNK N   1      35.436  10.375   7.561  0.00  0.00     0.184 HD
HETATM   13  H   UNK N   1      33.382  13.585   3.742  0.00  0.00     0.184 HD
ENDROOT
BRANCH   1  14
HETATM   14  C   UNK N   1      35.804  11.720   9.144  0.00  0.00     0.073 A 
HETATM   15  C   UNK N   1      35.037  12.764   9.662  0.00  0.00     0.032 A 
HETATM   16  C   UNK N   1      35.017  13.003  11.030  0.00  0.00     0.017 A 
HETATM   17  C   UNK N   1      35.684  12.143  11.907  0.00  0.00     0.011 A 
HETATM   18  C   UNK N   1      35.583  12.334  13.283  0.00  0.00     0.106 A 
HETATM   19  C   UNK N   1      36.462  11.083  11.406  0.00  0.00     0.004 A 
HETATM   20  C   UNK N   1      36.200  11.450  14.182  0.00  0.00     0.105 A 
HETATM   21  C   UNK N   1      36.912  10.329  13.692  0.00  0.00     0.104 A 
HETATM   22  C   UNK N   1      37.053  10.188  12.314  0.00  0.00     0.041 A 
HETATM   23  C   UNK N   1      36.584  10.899   9.986  0.00  0.00     0.110 A 
BRANCH  18  24
HETATM   24  O   UNK N   1      34.886  13.385  13.762  0.00  0.00    -0.357 OA
HETATM   25  H   UNK N   1      33.952  13.436  13.826  0.00  0.00     0.217 HD
ENDBRANCH  18  24
BRANCH  20  26
HETATM   26  N   UNK N   1      36.101  11.816  15.535  0.00  0.00    -0.296 N 
HETATM   27  N   UNK N   1      35.048  11.973  16.172  0.00  0.00    -0.297 N 
ATOM     28  HN  UNK N   1      34.177  12.243  15.714  1.00  0.00     0.187 HD
ATOM     29  HN  UNK N   1      36.975  11.967  16.039  1.00  0.00     0.187 HD
BRANCH  27  30
HETATM   30  C   UNK N   1      35.119  11.754  17.568  0.00  0.00     0.082 A 
HETATM   31  C   UNK N   1      34.989  10.439  18.014  0.00  0.00     0.059 A 
HETATM   32  C   UNK N   1      35.006  10.100  19.373  0.00  0.00     0.074 A 
HETATM   33  C   UNK N   1      35.179  11.135  20.302  0.00  0.00     0.028 A 
HETATM   34  C   UNK N   1      35.311  12.468  19.869  0.00  0.00     0.040 A 
HETATM   35  C   UNK N   1      35.271  12.783  18.501  0.00  0.00     0.093 A 
BRANCH  32  36
HETATM   36  S   UNK N   1      34.830   8.358  19.958  0.00  0.00     0.129 S 
HETATM   37  O   UNK N   1      33.503   8.417  19.181  0.00  0.00    -0.598 OA
HETATM   38  O   UNK N   1      34.473   9.278  21.141  0.00  0.00    -0.598 OA
BRANCH  36  39
HETATM   39  O   UNK N   1      33.835   7.446  21.021  0.00  0.00    -0.292 OA
HETATM   40  H   UNK N   1      33.091   6.877  20.769  0.00  0.00     0.232 HD
ENDBRANCH  36  39
ENDBRANCH  32  36
BRANCH  35  41
HETATM   41  O   UNK N   1      35.391  14.061  18.099  0.00  0.00    -0.358 OA
HETATM   42  H   UNK N   1      36.227  14.483  18.121  0.00  0.00     0.217 HD
ENDBRANCH  35  41
ENDBRANCH  27  30
ENDBRANCH  20  26
BRANCH  21  43
HETATM   43  S   UNK N   1      37.564   8.984  14.708  0.00  0.00     0.132 S 
HETATM   44  O   UNK N   1      37.605   9.340  16.201  0.00  0.00    -0.597 OA
HETATM   45  O   UNK N   1      39.073   8.891  14.425  0.00  0.00    -0.597 OA
BRANCH  43  46
HETATM   46  O   UNK N   1      37.072   7.342  14.622  0.00  0.00    -0.292 OA
HETATM   47  H   UNK N   1      36.742   6.818  15.369  0.00  0.00     0.232 HD
ENDBRANCH  43  46
ENDBRANCH  21  43
BRANCH  23  48
HETATM   48  S   UNK N   1      37.658   9.639   9.125  0.00  0.00     0.133 S 
HETATM   49  O   UNK N   1      36.261   9.359   8.551  0.00  0.00    -0.597 OA
HETATM   50  O   UNK N   1      38.023  11.014   8.595  0.00  0.00    -0.597 OA
BRANCH  48  51
HETATM   51  O   UNK N   1      37.968   9.420   7.453  0.00  0.00    -0.292 OA
HETATM   52  H   UNK N   1      38.827   9.089   7.143  0.00  0.00     0.232 HD
ENDBRANCH  48  51
ENDBRANCH  23  48
ENDBRANCH   1  14
BRANCH   6  53
HETATM   53  C   UNK N   1      32.427  15.093   4.737  0.00  0.00     0.073 A 
HETATM   54  C   UNK N   1      31.923  15.637   5.983  0.00  0.00     0.110 A 
HETATM   55  C   UNK N   1      30.783  16.483   5.932  0.00  0.00     0.004 A 
HETATM   56  C   UNK N   1      30.216  16.865   4.706  0.00  0.00     0.011 A 
HETATM   57  C   UNK N   1      30.187  16.943   7.118  0.00  0.00     0.041 A 
HETATM   58  C   UNK N   1      30.759  16.389   3.518  0.00  0.00     0.017 A 
HETATM   59  C   UNK N   1      29.116  17.732   4.680  0.00  0.00     0.106 A 
HETATM   60  C   UNK N   1      31.821  15.500   3.543  0.00  0.00     0.032 A 
HETATM   61  C   UNK N   1      28.531  18.189   5.896  0.00  0.00     0.105 A 
HETATM   62  C   UNK N   1      29.070  17.767   7.113  0.00  0.00     0.104 A 
BRANCH  54  63
HETATM   63  S   UNK N   1      32.592  15.400   7.664  0.00  0.00     0.133 S 
HETATM   64  O   UNK N   1      31.927  15.918   8.937  0.00  0.00    -0.597 OA
HETATM   65  O   UNK N   1      32.400  13.897   7.916  0.00  0.00    -0.597 OA
BRANCH  63  66
HETATM   66  O   UNK N   1      34.294  15.499   7.880  0.00  0.00    -0.292 OA
HETATM   67  H   UNK N   1      34.973  15.500   7.188  0.00  0.00     0.232 HD
ENDBRANCH  63  66
ENDBRANCH  54  63
BRANCH  59  68
HETATM   68  O   UNK N   1      28.632  18.134   3.488  0.00  0.00    -0.357 OA
HETATM   69  H   UNK N   1      29.197  18.405   2.792  0.00  0.00     0.217 HD
ENDBRANCH  59  68
BRANCH  61  70
HETATM   70  N   UNK N   1      27.456  19.116   5.884  0.00  0.00    -0.296 N 
HETATM   71  N   UNK N   1      26.305  18.708   5.674  0.00  0.00    -0.297 N 
ATOM     72  HN  UNK N   1      25.941  17.919   6.210  1.00  0.00     0.187 HD
ATOM     73  HN  UNK N   1      27.630  20.109   6.044  1.00  0.00     0.187 HD
BRANCH  71  74
HETATM   74  C   UNK N   1      25.504  19.325   4.708  0.00  0.00     0.082 A 
HETATM   75  C   UNK N   1      24.178  18.954   4.730  0.00  0.00     0.059 A 
HETATM   76  C   UNK N   1      23.296  19.359   3.760  0.00  0.00     0.074 A 
HETATM   77  C   UNK N   1      23.739  20.191   2.722  0.00  0.00     0.028 A 
HETATM   78  C   UNK N   1      25.089  20.597   2.689  0.00  0.00     0.040 A 
HETATM   79  C   UNK N   1      25.986  20.149   3.677  0.00  0.00     0.093 A 
BRANCH  76  80
HETATM   80  S   UNK N   1      21.635  18.730   3.900  0.00  0.00     0.129 S 
HETATM   81  O   UNK N   1      20.711  19.838   4.434  0.00  0.00    -0.598 OA
HETATM   82  O   UNK N   1      21.024  18.504   2.509  0.00  0.00    -0.598 OA
BRANCH  80  83
HETATM   83  O   UNK N   1      21.241  17.346   4.830  0.00  0.00    -0.292 OA
HETATM   84  H   UNK N   1      20.440  17.001   5.253  0.00  0.00     0.232 HD
ENDBRANCH  80  83
ENDBRANCH  76  80
BRANCH  79  85
HETATM   85  O   UNK N   1      27.281  20.506   3.626  0.00  0.00    -0.358 OA
HETATM   86  H   UNK N   1      27.954  19.862   3.729  0.00  0.00     0.217 HD
ENDBRANCH  79  85
ENDBRANCH  71  74
ENDBRANCH  61  70
BRANCH  62  87
HETATM   87  S   UNK N   1      28.326  18.209   8.685  0.00  0.00     0.132 S 
HETATM   88  O   UNK N   1      29.416  18.644   9.676  0.00  0.00    -0.597 OA
HETATM   89  O   UNK N   1      27.743  16.996   9.426  0.00  0.00    -0.597 OA
BRANCH  87  90
HETATM   90  O   UNK N   1      27.131  19.436   8.771  0.00  0.00    -0.292 OA
HETATM   91  H   UNK N   1      26.241  19.788   8.617  0.00  0.00     0.232 HD
ENDBRANCH  87  90
ENDBRANCH  62  87
ENDBRANCH   6  53
TORSDOF 22
ENDMDL
MODEL 2
REMARK VINA RESULT:      -9.3      4.358      6.373
REMARK  22 active torsions:
REMARK  status: ('A' for Active; 'I' for Inactive)
REMARK    1  A    between atoms: O_1  and  C_2 
REMARK    2  A    between atoms: C_5  and  S_76 
REMARK    3  A    between atoms: C_7  and  N_8 
REMARK    4  A    between atoms: N_10  and  C_12 
REMARK    5  A    between atoms: C_13  and  O_14 
REMARK    6  A    between atoms: C_18  and  N_19 
REMARK       I    between atoms: N_19  and  C_20 
REMARK       I    between atoms: C_23  and  N_24 
REMARK    7  A    between atoms: N_24  and  C_25 
REMARK    8  A    between atoms: C_26  and  S_55 
REMARK    9  A    between atoms: C_31  and  O_32 
REMARK   10  A    between atoms: C_33  and  N_34 
REMARK   11  A    between atoms: N_36  and  C_38 
REMARK   12  A    between atoms: C_40  and  S_45 
REMARK   13  A    between atoms: C_43  and  O_44 
REMARK   14  A    between atoms: S_45  and  O_46 
REMARK   15  A    between atoms: C_49  and  S_51 
REMARK   16  A    between atoms: S_51  and  O_52 
REMARK   17  A    between atoms: S_55  and  O_56 
REMARK   18  A    between atoms: C_64  and  S_72 
REMARK   19  A    between atoms: C_67  and  S_68 
REMARK   20  A    between atoms: S_68  and  O_69 
REMARK   21  A    between atoms: S_72  and  O_73 
REMARK   22  A    between atoms: S_76  and  O_77 
ROOT
HETATM    1  N   UNK N   1      34.110  14.628   3.839  0.00  0.00    -0.190 N 
HETATM    2  C   UNK N   1      33.224  15.733   3.721  0.00  0.00     0.698 A 
HETATM    3  N   UNK N   1      31.966  15.551   3.243  0.00  0.00    -0.022 N 
ATOM      4  HN  UNK N   1      31.708  14.663   2.812  1.00  0.00     0.203 HD
HETATM    5  C   UNK N   1      31.049  16.552   3.338  0.00  0.00     0.698 A 
HETATM    6  N   UNK N   1      29.763  16.379   2.795  0.00  0.00    -0.190 N 
HETATM    7  N   UNK N   1      31.414  17.761   3.835  0.00  0.00    -0.187 N 
ATOM      8  HN  UNK N   1      30.745  18.531   3.846  1.00  0.00     0.185 HD
HETATM    9  C   UNK N   1      32.668  17.945   4.316  0.00  0.00     0.215 A 
HETATM   10  N   UNK N   1      33.559  16.922   4.291  0.00  0.00    -0.187 N 
ATOM     11  HN  UNK N   1      34.484  17.045   4.702  1.00  0.00     0.185 HD
HETATM   12  H   UNK N   1      34.435  14.126   3.055  0.00  0.00     0.184 HD
HETATM   13  H   UNK N   1      29.724  16.446   1.813  0.00  0.00     0.184 HD
ENDROOT
BRANCH   1  14
HETATM   14  C   UNK N   1      34.492  14.297   5.157  0.00  0.00     0.073 A 
HETATM   15  C   UNK N   1      34.864  15.313   6.037  0.00  0.00     0.032 A 
HETATM   16  C   UNK N   1      34.983  15.049   7.396  0.00  0.00     0.017 A 
HETATM   17  C   UNK N   1      34.638  13.794   7.905  0.00  0.00     0.011 A 
HETATM   18  C   UNK N   1      34.672  13.565   9.278  0.00  0.00     0.106 A 
HETATM   19  C   UNK N   1      34.260  12.756   7.034  0.00  0.00     0.004 A 
HETATM   20  C   UNK N   1      34.277  12.329   9.814  0.00  0.00     0.105 A 
HETATM   21  C   UNK N   1      33.808  11.305   8.955  0.00  0.00     0.104 A 
HETATM   22  C   UNK N   1      33.840  11.531   7.581  0.00  0.00     0.041 A 
HETATM   23  C   UNK N   1      34.246  12.986   5.615  0.00  0.00     0.110 A 
BRANCH  18  24
HETATM   24  O   UNK N   1      35.092  14.541  10.108  0.00  0.00    -0.357 OA
HETATM   25  H   UNK N   1      35.937  14.946  10.089  0.00  0.00     0.217 HD
ENDBRANCH  18  24
BRANCH  20  26
HETATM   26  N   UNK N   1      34.454  12.201  11.202  0.00  0.00    -0.296 N 
HETATM   27  N   UNK N   1      35.435  11.693  11.766  0.00  0.00    -0.297 N 
ATOM     28  HN  UNK N   1      36.006  10.978  11.314  1.00  0.00     0.187 HD
ATOM     29  HN  UNK N   1      33.708  12.557  11.799  1.00  0.00     0.187 HD
BRANCH  27  30
HETATM   30  C   UNK N   1      35.720  12.160  13.071  0.00  0.00     0.082 A 
HETATM   31  C   UNK N   1      35.319  11.356  14.138  0.00  0.00     0.059 A 
HETATM   32  C   UNK N   1      35.512  11.726  15.474  0.00  0.00     0.074 A 
HETATM   33  C   UNK N   1      36.150  12.949  15.727  0.00  0.00     0.028 A 
HETATM   34  C   UNK N   1      36.560  13.773  14.662  0.00  0.00     0.040 A 
HETATM   35  C   UNK N   1      36.338  13.386  13.330  0.00  0.00     0.093 A 
BRANCH  32  36
HETATM   36  S   UNK N   1      34.977  10.659  16.883  0.00  0.00     0.129 S 
HETATM   37  O   UNK N   1      36.491  10.524  17.124  0.00  0.00    -0.598 OA
HETATM   38  O   UNK N   1      34.849   9.821  15.597  0.00  0.00    -0.598 OA
BRANCH  36  39
HETATM   39  O   UNK N   1      35.045   9.008  17.351  0.00  0.00    -0.292 OA
HETATM   40  H   UNK N   1      35.114   8.668  18.257  0.00  0.00     0.232 HD
ENDBRANCH  36  39
ENDBRANCH  32  36
BRANCH  35  41
HETATM   41  O   UNK N   1      36.727  14.186  12.322  0.00  0.00    -0.358 OA
HETATM   42  H   UNK N   1      37.548  14.634  12.369  0.00  0.00     0.217 HD
ENDBRANCH  35  41
ENDBRANCH  27  30
ENDBRANCH  20  26
BRANCH  21  43
HETATM   43  S   UNK N   1      33.055   9.754   9.497  0.00  0.00     0.132 S 
HETATM   44  O   UNK N   1      31.541   9.715   9.246  0.00  0.00    -0.597 OA
HETATM   45  O   UNK N   1      33.059   9.762  11.036  0.00  0.00    -0.597 OA
BRANCH  43  46
HETATM   46  O   UNK N   1      33.641   8.183   9.136  0.00  0.00    -0.292 OA
HETATM   47  H   UNK N   1      34.505   7.987   8.740  0.00  0.00     0.232 HD
ENDBRANCH  43  46
ENDBRANCH  21  43
BRANCH  23  48
HETATM   48  S   UNK N   1      33.894  11.715   4.295  0.00  0.00     0.133 S 
HETATM   49  O   UNK N   1      32.670  12.639   4.226  0.00  0.00    -0.597 OA
HETATM   50  O   UNK N   1      35.054  12.576   3.827  0.00  0.00    -0.597 OA
BRANCH  48  51
HETATM   51  O   UNK N   1      33.663  11.920   2.608  0.00  0.00    -0.292 OA
HETATM   52  H   UNK N   1      33.707  11.162   2.003  0.00  0.00     0.232 HD
ENDBRANCH  48  51
ENDBRANCH  23  48
ENDBRANCH   1  14
BRANCH   6  53
HETATM   53  C   UNK N   1      28.504  16.122   3.420  0.00  0.00     0.073 A 
HETATM   54  C   UNK N   1      28.045  14.883   4.015  0.00  0.00     0.110 A 
HETATM   55  C   UNK N   1      26.695  14.809   4.453  0.00  0.00     0.004 A 
HETATM   56  C   UNK N   1      25.855  15.933   4.406  0.00  0.00     0.011 A 
HETATM   57  C   UNK N   1      26.169  13.597   4.930  0.00  0.00     0.041 A 
HETATM   58  C   UNK N   1      26.337  17.133   3.897  0.00  0.00     0.017 A 
HETATM   59  C   UNK N   1      24.539  15.847   4.880  0.00  0.00     0.106 A 
HETATM   60  C   UNK N   1      27.624  17.209   3.390  0.00  0.00     0.032 A 
HETATM   61  C   UNK N   1      24.029  14.607   5.364  0.00  0.00     0.105 A 
HETATM   62  C   UNK N   1      24.855  13.482   5.363  0.00  0.00     0.104 A 
BRANCH  54  63
HETATM   63  S   UNK N   1      29.002  13.359   4.315  0.00  0.00     0.133 S 
HETATM   64  O   UNK N   1      28.386  11.968   4.459  0.00  0.00    -0.597 OA
HETATM   65  O   UNK N   1      29.739  13.132   2.986  0.00  0.00    -0.597 OA
BRANCH  63  66
HETATM   66  O   UNK N   1      30.358  13.446   5.368  0.00  0.00    -0.292 OA
HETATM   67  H   UNK N   1      31.292  13.504   5.115  0.00  0.00     0.232 HD
ENDBRANCH  63  66
ENDBRANCH  54  63
BRANCH  59  68
HETATM   68  O   UNK N   1      23.775  16.956   4.883  0.00  0.00    -0.357 OA
HETATM   69  H   UNK N   1      23.823  17.591   4.197  0.00  0.00     0.217 HD
ENDBRANCH  59  68
BRANCH  61  70
HETATM   70  N   UNK N   1      22.719  14.521   5.906  0.00  0.00    -0.296 N 
HETATM   71  N   UNK N   1      22.376  15.317   6.792  0.00  0.00    -0.297 N 
ATOM     72  HN  UNK N   1      22.521  16.318   6.660  1.00  0.00     0.187 HD
ATOM     73  HN  UNK N   1      22.068  13.812   5.569  1.00  0.00     0.187 HD
BRANCH  71  74
HETATM   74  C   UNK N   1      21.792  14.846   7.972  0.00  0.00     0.082 A 
HETATM   75  C   UNK N   1      22.612  14.064   8.754  0.00  0.00     0.059 A 
HETATM   76  C   UNK N   1      22.146  13.410   9.866  0.00  0.00     0.074 A 
HETATM   77  C   UNK N   1      20.802  13.549  10.241  0.00  0.00     0.028 A 
HETATM   78  C   UNK N   1      19.947  14.358   9.464  0.00  0.00     0.040 A 
HETATM   79  C   UNK N   1      20.437  14.999   8.311  0.00  0.00     0.093 A 
BRANCH  76  80
HETATM   80  S   UNK N   1      23.323  12.384  10.723  0.00  0.00     0.129 S 
HETATM   81  O   UNK N   1      23.124  10.917  10.303  0.00  0.00    -0.598 OA
HETATM   82  O   UNK N   1      24.743  12.634  10.195  0.00  0.00    -0.598 OA
BRANCH  80  83
HETATM   83  O   UNK N   1      23.446  12.336  12.431  0.00  0.00    -0.292 OA
HETATM   84  H   UNK N   1      23.218  11.699  13.125  0.00  0.00     0.232 HD
ENDBRANCH  80  83
ENDBRANCH  76  80
BRANCH  79  85
HETATM   85  O   UNK N   1      19.614  15.740   7.548  0.00  0.00    -0.358 OA
HETATM   86  H   UNK N   1      19.401  15.468   6.677  0.00  0.00     0.217 HD
ENDBRANCH  79  85
ENDBRANCH  71  74
ENDBRANCH  61  70
BRANCH  62  87
HETATM   87  S   UNK N   1      24.255  11.864   5.854  0.00  0.00     0.132 S 
HETATM   88  O   UNK N   1      25.037  10.769   5.111  0.00  0.00    -0.597 OA
HETATM   89  O   UNK N   1      22.832  11.582   5.347  0.00  0.00    -0.597 OA
BRANCH  87  90
HETATM   90  O   UNK N   1      24.276  11.386   7.500  0.00  0.00    -0.292 OA
HETATM   91  H   UNK N   1      23.848  11.177   8.345  0.00  0.00     0.232 HD
ENDBRANCH  87  90
ENDBRANCH  62  87
ENDBRANCH   6  53
TORSDOF 22
ENDMDL
MODEL 3
REMARK VINA RESULT:      -9.2      5.898     16.726
REMARK  22 active torsions:
REMARK  status: ('A' for Active; 'I' for Inactive)
REMARK    1  A    between atoms: O_1  and  C_2 
REMARK    2  A    between atoms: C_5  and  S_76 
REMARK    3  A    between atoms: C_7  and  N_8 
REMARK    4  A    between atoms: N_10  and  C_12 
REMARK    5  A    between atoms: C_13  and  O_14 
REMARK    6  A    between atoms: C_18  and  N_19 
REMARK       I    between atoms: N_19  and  C_20 
REMARK       I    between atoms: C_23  and  N_24 
REMARK    7  A    between atoms: N_24  and  C_25 
REMARK    8  A    between atoms: C_26  and  S_55 
REMARK    9  A    between atoms: C_31  and  O_32 
REMARK   10  A    between atoms: C_33  and  N_34 
REMARK   11  A    between atoms: N_36  and  C_38 
REMARK   12  A    between atoms: C_40  and  S_45 
REMARK   13  A    between atoms: C_43  and  O_44 
REMARK   14  A    between atoms: S_45  and  O_46 
REMARK   15  A    between atoms: C_49  and  S_51 
REMARK   16  A    between atoms: S_51  and  O_52 
REMARK   17  A    between atoms: S_55  and  O_56 
REMARK   18  A    between atoms: C_64  and  S_72 
REMARK   19  A    between atoms: C_67  and  S_68 
REMARK   20  A    between atoms: S_68  and  O_69 
REMARK   21  A    between atoms: S_72  and  O_73 
REMARK   22  A    between atoms: S_76  and  O_77 
ROOT
HETATM    1  N   UNK N   1      22.870  18.018   4.646  0.00  0.00    -0.190 N 
HETATM    2  C   UNK N   1      24.021  18.851   4.623  0.00  0.00     0.698 A 
HETATM    3  N   UNK N   1      24.898  18.832   5.660  0.00  0.00    -0.022 N 
ATOM      4  HN  UNK N   1      24.652  18.353   6.527  1.00  0.00     0.203 HD
HETATM    5  C   UNK N   1      26.105  19.451   5.544  0.00  0.00     0.698 A 
HETATM    6  N   UNK N   1      26.988  19.475   6.639  0.00  0.00    -0.190 N 
HETATM    7  N   UNK N   1      26.399  20.159   4.424  0.00  0.00    -0.187 N 
ATOM      8  HN  UNK N   1      27.276  20.677   4.364  1.00  0.00     0.185 HD
HETATM    9  C   UNK N   1      25.528  20.176   3.386  0.00  0.00     0.215 A 
HETATM   10  N   UNK N   1      24.358  19.495   3.473  0.00  0.00    -0.187 N 
ATOM     11  HN  UNK N   1      23.728  19.464   2.671  1.00  0.00     0.185 HD
HETATM   12  H   UNK N   1      22.151  18.130   5.311  0.00  0.00     0.184 HD
HETATM   13  H   UNK N   1      26.738  20.109   7.349  0.00  0.00     0.184 HD
ENDROOT
BRANCH   1  14
HETATM   14  C   UNK N   1      22.828  17.018   3.650  0.00  0.00     0.073 A 
HETATM   15  C   UNK N   1      23.908  16.147   3.507  0.00  0.00     0.032 A 
HETATM   16  C   UNK N   1      23.783  15.002   2.730  0.00  0.00     0.017 A 
HETATM   17  C   UNK N   1      22.550  14.663   2.166  0.00  0.00     0.011 A 
HETATM   18  C   UNK N   1      22.409  13.467   1.465  0.00  0.00     0.106 A 
HETATM   19  C   UNK N   1      21.448  15.527   2.299  0.00  0.00     0.004 A 
HETATM   20  C   UNK N   1      21.167  13.082   0.938  0.00  0.00     0.105 A 
HETATM   21  C   UNK N   1      20.029  13.900   1.142  0.00  0.00     0.104 A 
HETATM   22  C   UNK N   1      20.202  15.119   1.791  0.00  0.00     0.041 A 
HETATM   23  C   UNK N   1      21.599  16.771   3.003  0.00  0.00     0.110 A 
BRANCH  18  24
HETATM   24  O   UNK N   1      23.480  12.668   1.286  0.00  0.00    -0.357 OA
HETATM   25  H   UNK N   1      24.219  12.610   1.861  0.00  0.00     0.217 HD
ENDBRANCH  18  24
BRANCH  20  26
HETATM   26  N   UNK N   1      21.188  11.904   0.171  0.00  0.00    -0.296 N 
HETATM   27  N   UNK N   1      21.369  10.756   0.605  0.00  0.00    -0.297 N 
ATOM     28  HN  UNK N   1      21.903  10.581   1.456  1.00  0.00     0.187 HD
ATOM     29  HN  UNK N   1      21.042  12.003  -0.834  1.00  0.00     0.187 HD
BRANCH  27  30
HETATM   30  C   UNK N   1      20.792   9.704  -0.144  0.00  0.00     0.082 A 
HETATM   31  C   UNK N   1      21.577   9.128  -1.143  0.00  0.00     0.059 A 
HETATM   32  C   UNK N   1      21.105   8.105  -1.975  0.00  0.00     0.074 A 
HETATM   33  C   UNK N   1      19.798   7.644  -1.766  0.00  0.00     0.028 A 
HETATM   34  C   UNK N   1      18.992   8.215  -0.763  0.00  0.00     0.040 A 
HETATM   35  C   UNK N   1      19.483   9.254   0.045  0.00  0.00     0.093 A 
BRANCH  32  36
HETATM   36  S   UNK N   1      22.148   7.348  -3.297  0.00  0.00     0.129 S 
HETATM   37  O   UNK N   1      23.309   7.793  -2.391  0.00  0.00    -0.598 OA
HETATM   38  O   UNK N   1      21.683   8.724  -3.810  0.00  0.00    -0.598 OA
BRANCH  36  39
HETATM   39  O   UNK N   1      23.273   7.842  -4.498  0.00  0.00    -0.292 OA
HETATM   40  H   UNK N   1      23.376   8.737  -4.857  0.00  0.00     0.232 HD
ENDBRANCH  36  39
ENDBRANCH  32  36
BRANCH  35  41
HETATM   41  O   UNK N   1      18.701   9.796   0.995  0.00  0.00    -0.358 OA
HETATM   42  H   UNK N   1      17.782   9.903   0.842  0.00  0.00     0.217 HD
ENDBRANCH  35  41
ENDBRANCH  27  30
ENDBRANCH  20  26
BRANCH  21  43
HETATM   43  S   UNK N   1      18.330  13.442   0.730  0.00  0.00     0.132 S 
HETATM   44  O   UNK N   1      17.634  12.677   1.866  0.00  0.00    -0.597 OA
HETATM   45  O   UNK N   1      18.404  12.324  -0.323  0.00  0.00    -0.597 OA
BRANCH  43  46
HETATM   46  O   UNK N   1      17.148  14.494   0.068  0.00  0.00    -0.292 OA
HETATM   47  H   UNK N   1      16.210  14.276  -0.050  0.00  0.00     0.232 HD
ENDBRANCH  43  46
ENDBRANCH  21  43
BRANCH  23  48
HETATM   48  S   UNK N   1      20.302  18.100   3.184  0.00  0.00     0.133 S 
HETATM   49  O   UNK N   1      20.664  17.765   4.638  0.00  0.00    -0.597 OA
HETATM   50  O   UNK N   1      21.556  18.736   2.611  0.00  0.00    -0.597 OA
BRANCH  48  51
HETATM   51  O   UNK N   1      20.410  19.646   3.918  0.00  0.00    -0.292 OA
HETATM   52  H   UNK N   1      20.896  19.771   4.749  0.00  0.00     0.232 HD
ENDBRANCH  48  51
ENDBRANCH  23  48
ENDBRANCH   1  14
BRANCH   6  53
HETATM   53  C   UNK N   1      28.184  18.739   6.899  0.00  0.00     0.073 A 
HETATM   54  C   UNK N   1      28.747  17.655   6.117  0.00  0.00     0.110 A 
HETATM   55  C   UNK N   1      29.874  16.966   6.641  0.00  0.00     0.004 A 
HETATM   56  C   UNK N   1      30.490  17.382   7.832  0.00  0.00     0.011 A 
HETATM   57  C   UNK N   1      30.386  15.838   5.979  0.00  0.00     0.041 A 
HETATM   58  C   UNK N   1      29.977  18.469   8.530  0.00  0.00     0.017 A 
HETATM   59  C   UNK N   1      31.624  16.711   8.308  0.00  0.00     0.106 A 
HETATM   60  C   UNK N   1      28.832  19.108   8.082  0.00  0.00     0.032 A 
HETATM   61  C   UNK N   1      32.128  15.570   7.617  0.00  0.00     0.105 A 
HETATM   62  C   UNK N   1      31.481  15.133   6.460  0.00  0.00     0.104 A 
BRANCH  54  63
HETATM   63  S   UNK N   1      28.206  17.051   4.483  0.00  0.00     0.133 S 
HETATM   64  O   UNK N   1      28.527  15.665   3.927  0.00  0.00    -0.597 OA
HETATM   65  O   UNK N   1      26.690  16.871   4.652  0.00  0.00    -0.597 OA
BRANCH  63  66
HETATM   66  O   UNK N   1      28.206  18.159   3.168  0.00  0.00    -0.292 OA
HETATM   67  H   UNK N   1      28.056  17.955   2.232  0.00  0.00     0.232 HD
ENDBRANCH  63  66
ENDBRANCH  54  63
BRANCH  59  68
HETATM   68  O   UNK N   1      32.234  17.171   9.418  0.00  0.00    -0.357 OA
HETATM   69  H   UNK N   1      32.925  17.801   9.377  0.00  0.00     0.217 HD
ENDBRANCH  59  68
BRANCH  61  70
HETATM   70  N   UNK N   1      33.312  14.920   8.053  0.00  0.00    -0.296 N 
HETATM   71  N   UNK N   1      33.316  14.337   9.148  0.00  0.00    -0.297 N 
ATOM     72  HN  UNK N   1      32.575  13.672   9.371  1.00  0.00     0.187 HD
ATOM     73  HN  UNK N   1      34.151  14.933   7.473  1.00  0.00     0.187 HD
BRANCH  71  74
HETATM   74  C   UNK N   1      34.332  14.588  10.074  0.00  0.00     0.082 A 
HETATM   75  C   UNK N   1      34.451  13.648  11.074  0.00  0.00     0.059 A 
HETATM   76  C   UNK N   1      35.302  13.824  12.136  0.00  0.00     0.074 A 
HETATM   77  C   UNK N   1      36.094  14.978  12.209  0.00  0.00     0.028 A 
HETATM   78  C   UNK N   1      36.001  15.946  11.187  0.00  0.00     0.040 A 
HETATM   79  C   UNK N   1      35.103  15.762  10.119  0.00  0.00     0.093 A 
BRANCH  76  80
HETATM   80  S   UNK N   1      35.279  12.546  13.377  0.00  0.00     0.129 S 
HETATM   81  O   UNK N   1      34.433  13.011  14.576  0.00  0.00    -0.598 OA
HETATM   82  O   UNK N   1      34.449  11.345  12.901  0.00  0.00    -0.598 OA
BRANCH  80  83
HETATM   83  O   UNK N   1      36.705  11.900  14.074  0.00  0.00    -0.292 OA
HETATM   84  H   UNK N   1      37.000  11.680  14.970  0.00  0.00     0.232 HD
ENDBRANCH  80  83
ENDBRANCH  76  80
BRANCH  79  85
HETATM   85  O   UNK N   1      34.987  16.702   9.164  0.00  0.00    -0.358 OA
HETATM   86  H   UNK N   1      35.747  17.023   8.721  0.00  0.00     0.217 HD
ENDBRANCH  79  85
ENDBRANCH  71  74
ENDBRANCH  61  70
BRANCH  62  87
HETATM   87  S   UNK N   1      31.987  13.645   5.595  0.00  0.00     0.132 S 
HETATM   88  O   UNK N   1      30.750  12.879   5.103  0.00  0.00    -0.597 OA
HETATM   89  O   UNK N   1      32.608  12.598   6.533  0.00  0.00    -0.597 OA
BRANCH  87  90
HETATM   90  O   UNK N   1      33.025  13.736   4.233  0.00  0.00    -0.292 OA
HETATM   91  H   UNK N   1      33.757  13.420   3.682  0.00  0.00     0.232 HD
ENDBRANCH  87  90
ENDBRANCH  62  87
ENDBRANCH   6  53
TORSDOF 22
ENDMDL
MODEL 4
REMARK VINA RESULT:      -9.1      5.018     14.924
REMARK  22 active torsions:
REMARK  status: ('A' for Active; 'I' for Inactive)
REMARK    1  A    between atoms: O_1  and  C_2 
REMARK    2  A    between atoms: C_5  and  S_76 
REMARK    3  A    between atoms: C_7  and  N_8 
REMARK    4  A    between atoms: N_10  and  C_12 
REMARK    5  A    between atoms: C_13  and  O_14 
REMARK    6  A    between atoms: C_18  and  N_19 
REMARK       I    between atoms: N_19  and  C_20 
REMARK       I    between atoms: C_23  and  N_24 
REMARK    7  A    between atoms: N_24  and  C_25 
REMARK    8  A    between atoms: C_26  and  S_55 
REMARK    9  A    between atoms: C_31  and  O_32 
REMARK   10  A    between atoms: C_33  and  N_34 
REMARK   11  A    between atoms: N_36  and  C_38 
REMARK   12  A    between atoms: C_40  and  S_45 
REMARK   13  A    between atoms: C_43  and  O_44 
REMARK   14  A    between atoms: S_45  and  O_46 
REMARK   15  A    between atoms: C_49  and  S_51 
REMARK   16  A    between atoms: S_51  and  O_52 
REMARK   17  A    between atoms: S_55  and  O_56 
REMARK   18  A    between atoms: C_64  and  S_72 
REMARK   19  A    between atoms: C_67  and  S_68 
REMARK   20  A    between atoms: S_68  and  O_69 
REMARK   21  A    between atoms: S_72  and  O_73 
REMARK   22  A    between atoms: S_76  and  O_77 
ROOT
HETATM    1  N   UNK N   1      26.924  17.725   5.200  0.00  0.00    -0.190 N 
HETATM    2  C   UNK N   1      28.237  17.516   4.699  0.00  0.00     0.698 A 
HETATM    3  N   UNK N   1      29.294  17.467   5.552  0.00  0.00    -0.022 N 
ATOM      4  HN  UNK N   1      29.174  17.746   6.527  1.00  0.00     0.203 HD
HETATM    5  C   UNK N   1      30.510  17.047   5.109  0.00  0.00     0.698 A 
HETATM    6  N   UNK N   1      31.612  17.048   5.982  0.00  0.00    -0.190 N 
HETATM    7  N   UNK N   1      30.689  16.757   3.796  0.00  0.00    -0.187 N 
ATOM      8  HN  UNK N   1      31.616  16.505   3.451  1.00  0.00     0.185 HD
HETATM    9  C   UNK N   1      29.637  16.801   2.942  0.00  0.00     0.215 A 
HETATM   10  N   UNK N   1      28.408  17.146   3.401  0.00  0.00    -0.187 N 
ATOM     11  HN  UNK N   1      27.607  17.126   2.770  1.00  0.00     0.185 HD
HETATM   12  H   UNK N   1      26.657  18.562   5.646  0.00  0.00     0.184 HD
HETATM   13  H   UNK N   1      31.991  17.940   6.157  0.00  0.00     0.184 HD
ENDROOT
BRANCH   1  14
HETATM   14  C   UNK N   1      26.028  16.650   5.014  0.00  0.00     0.073 A 
HETATM   15  C   UNK N   1      26.392  15.373   5.443  0.00  0.00     0.032 A 
HETATM   16  C   UNK N   1      25.439  14.365   5.518  0.00  0.00     0.017 A 
HETATM   17  C   UNK N   1      24.094  14.643   5.258  0.00  0.00     0.011 A 
HETATM   18  C   UNK N   1      23.132  13.650   5.424  0.00  0.00     0.106 A 
HETATM   19  C   UNK N   1      23.706  15.924   4.825  0.00  0.00     0.004 A 
HETATM   20  C   UNK N   1      21.770  13.923   5.223  0.00  0.00     0.105 A 
HETATM   21  C   UNK N   1      21.358  15.232   4.873  0.00  0.00     0.104 A 
HETATM   22  C   UNK N   1      22.338  16.196   4.652  0.00  0.00     0.041 A 
HETATM   23  C   UNK N   1      24.702  16.943   4.633  0.00  0.00     0.110 A 
BRANCH  18  24
HETATM   24  O   UNK N   1      23.511  12.406   5.781  0.00  0.00    -0.357 OA
HETATM   25  H   UNK N   1      24.336  12.176   6.163  0.00  0.00     0.217 HD
ENDBRANCH  18  24
BRANCH  20  26
HETATM   26  N   UNK N   1      20.920  12.809   5.327  0.00  0.00    -0.296 N 
HETATM   27  N   UNK N   1      20.543  12.091   4.388  0.00  0.00    -0.297 N 
ATOM     28  HN  UNK N   1      20.472  12.446   3.434  1.00  0.00     0.187 HD
ATOM     29  HN  UNK N   1      20.583  12.569   6.259  1.00  0.00     0.187 HD
BRANCH  27  30
HETATM   30  C   UNK N   1      20.217  10.753   4.712  0.00  0.00     0.082 A 
HETATM   31  C   UNK N   1      21.273   9.895   5.014  0.00  0.00     0.059 A 
HETATM   32  C   UNK N   1      21.081   8.541   5.314  0.00  0.00     0.074 A 
HETATM   33  C   UNK N   1      19.767   8.054   5.323  0.00  0.00     0.028 A 
HETATM   34  C   UNK N   1      18.688   8.906   5.019  0.00  0.00     0.040 A 
HETATM   35  C   UNK N   1      18.910  10.257   4.703  0.00  0.00     0.093 A 
BRANCH  32  36
HETATM   36  S   UNK N   1      22.484   7.408   5.711  0.00  0.00     0.129 S 
HETATM   37  O   UNK N   1      21.433   6.699   6.584  0.00  0.00    -0.598 OA
HETATM   38  O   UNK N   1      22.681   8.691   6.541  0.00  0.00    -0.598 OA
BRANCH  36  39
HETATM   39  O   UNK N   1      23.466   6.990   7.057  0.00  0.00    -0.292 OA
HETATM   40  H   UNK N   1      23.156   6.721   7.936  0.00  0.00     0.232 HD
ENDBRANCH  36  39
ENDBRANCH  32  36
BRANCH  35  41
HETATM   41  O   UNK N   1      17.873  11.059   4.407  0.00  0.00    -0.358 OA
HETATM   42  H   UNK N   1      17.476  11.020   3.559  0.00  0.00     0.217 HD
ENDBRANCH  35  41
ENDBRANCH  27  30
ENDBRANCH  20  26
BRANCH  21  43
HETATM   43  S   UNK N   1      19.643  15.799   4.801  0.00  0.00     0.132 S 
HETATM   44  O   UNK N   1      19.013  15.948   6.194  0.00  0.00    -0.597 OA
HETATM   45  O   UNK N   1      18.801  14.629   4.263  0.00  0.00    -0.597 OA
BRANCH  43  46
HETATM   46  O   UNK N   1      19.070  17.123   3.872  0.00  0.00    -0.292 OA
HETATM   47  H   UNK N   1      18.327  17.696   4.117  0.00  0.00     0.232 HD
ENDBRANCH  43  46
ENDBRANCH  21  43
BRANCH  23  48
HETATM   48  S   UNK N   1      24.410  18.656   3.953  0.00  0.00     0.133 S 
HETATM   49  O   UNK N   1      25.085  18.927   5.305  0.00  0.00    -0.597 OA
HETATM   50  O   UNK N   1      25.485  17.989   3.113  0.00  0.00    -0.597 OA
BRANCH  48  51
HETATM   51  O   UNK N   1      25.536  19.895   3.579  0.00  0.00    -0.292 OA
HETATM   52  H   UNK N   1      25.859  20.499   4.266  0.00  0.00     0.232 HD
ENDBRANCH  48  51
ENDBRANCH  23  48
ENDBRANCH   1  14
BRANCH   6  53
HETATM   53  C   UNK N   1      32.277  15.980   6.660  0.00  0.00     0.073 A 
HETATM   54  C   UNK N   1      33.363  16.074   7.616  0.00  0.00     0.110 A 
HETATM   55  C   UNK N   1      33.973  14.870   8.058  0.00  0.00     0.004 A 
HETATM   56  C   UNK N   1      33.478  13.618   7.661  0.00  0.00     0.011 A 
HETATM   57  C   UNK N   1      35.101  14.912   8.894  0.00  0.00     0.041 A 
HETATM   58  C   UNK N   1      32.390  13.548   6.799  0.00  0.00     0.017 A 
HETATM   59  C   UNK N   1      34.072  12.443   8.142  0.00  0.00     0.106 A 
HETATM   60  C   UNK N   1      31.828  14.707   6.291  0.00  0.00     0.032 A 
HETATM   61  C   UNK N   1      35.214  12.510   8.993  0.00  0.00     0.105 A 
HETATM   62  C   UNK N   1      35.729  13.759   9.345  0.00  0.00     0.104 A 
BRANCH  54  63
HETATM   63  S   UNK N   1      34.060  17.578   8.378  0.00  0.00     0.133 S 
HETATM   64  O   UNK N   1      34.964  18.573   7.653  0.00  0.00    -0.597 OA
HETATM   65  O   UNK N   1      32.836  18.489   8.555  0.00  0.00    -0.597 OA
BRANCH  63  66
HETATM   66  O   UNK N   1      34.577  17.493  10.015  0.00  0.00    -0.292 OA
HETATM   67  H   UNK N   1      34.167  17.923  10.781  0.00  0.00     0.232 HD
ENDBRANCH  63  66
ENDBRANCH  54  63
BRANCH  59  68
HETATM   68  O   UNK N   1      33.537  11.255   7.797  0.00  0.00    -0.357 OA
HETATM   69  H   UNK N   1      34.057  10.480   7.732  0.00  0.00     0.217 HD
ENDBRANCH  59  68
BRANCH  61  70
HETATM   70  N   UNK N   1      35.786  11.331   9.537  0.00  0.00    -0.296 N 
HETATM   71  N   UNK N   1      35.178  10.716  10.426  0.00  0.00    -0.297 N 
ATOM     72  HN  UNK N   1      34.195  10.473  10.294  1.00  0.00     0.187 HD
ATOM     73  HN  UNK N   1      36.688  10.993   9.202  1.00  0.00     0.187 HD
BRANCH  71  74
HETATM   74  C   UNK N   1      35.835  10.354  11.606  0.00  0.00     0.082 A 
HETATM   75  C   UNK N   1      35.750  11.278  12.623  0.00  0.00     0.059 A 
HETATM   76  C   UNK N   1      36.458  11.138  13.790  0.00  0.00     0.074 A 
HETATM   77  C   UNK N   1      37.279  10.017  13.975  0.00  0.00     0.028 A 
HETATM   78  C   UNK N   1      37.368   9.049  12.953  0.00  0.00     0.040 A 
HETATM   79  C   UNK N   1      36.656   9.224  11.751  0.00  0.00     0.093 A 
BRANCH  76  80
HETATM   80  S   UNK N   1      36.289  12.461  14.972  0.00  0.00     0.129 S 
HETATM   81  O   UNK N   1      34.943  13.173  14.754  0.00  0.00    -0.598 OA
HETATM   82  O   UNK N   1      36.082  11.899  16.386  0.00  0.00    -0.598 OA
BRANCH  80  83
HETATM   83  O   UNK N   1      37.434  13.727  15.120  0.00  0.00    -0.292 OA
HETATM   84  H   UNK N   1      37.602  14.567  14.665  0.00  0.00     0.232 HD
ENDBRANCH  80  83
ENDBRANCH  76  80
BRANCH  79  85
HETATM   85  O   UNK N   1      36.769   8.320  10.761  0.00  0.00    -0.358 OA
HETATM   86  H   UNK N   1      36.277   8.420   9.970  0.00  0.00     0.217 HD
ENDBRANCH  79  85
ENDBRANCH  71  74
ENDBRANCH  61  70
BRANCH  62  87
HETATM   87  S   UNK N   1      37.225  13.926  10.321  0.00  0.00     0.132 S 
HETATM   88  O   UNK N   1      38.106  15.044   9.742  0.00  0.00    -0.597 OA
HETATM   89  O   UNK N   1      38.168  12.722  10.171  0.00  0.00    -0.597 OA
BRANCH  87  90
HETATM   90  O   UNK N   1      37.139  14.254  12.002  0.00  0.00    -0.292 OA
HETATM   91  H   UNK N   1      37.358  14.767  12.795  0.00  0.00     0.232 HD
ENDBRANCH  87  90
ENDBRANCH  62  87
ENDBRANCH   6  53
TORSDOF 22
ENDMDL
MODEL 5
REMARK VINA RESULT:      -8.9      2.853     14.499
REMARK  22 active torsions:
REMARK  status: ('A' for Active; 'I' for Inactive)
REMARK    1  A    between atoms: O_1  and  C_2 
REMARK    2  A    between atoms: C_5  and  S_76 
REMARK    3  A    between atoms: C_7  and  N_8 
REMARK    4  A    between atoms: N_10  and  C_12 
REMARK    5  A    between atoms: C_13  and  O_14 
REMARK    6  A    between atoms: C_18  and  N_19 
REMARK       I    between atoms: N_19  and  C_20 
REMARK       I    between atoms: C_23  and  N_24 
REMARK    7  A    between atoms: N_24  and  C_25 
REMARK    8  A    between atoms: C_26  and  S_55 
REMARK    9  A    between atoms: C_31  and  O_32 
REMARK   10  A    between atoms: C_33  and  N_34 
REMARK   11  A    between atoms: N_36  and  C_38 
REMARK   12  A    between atoms: C_40  and  S_45 
REMARK   13  A    between atoms: C_43  and  O_44 
REMARK   14  A    between atoms: S_45  and  O_46 
REMARK   15  A    between atoms: C_49  and  S_51 
REMARK   16  A    between atoms: S_51  and  O_52 
REMARK   17  A    between atoms: S_55  and  O_56 
REMARK   18  A    between atoms: C_64  and  S_72 
REMARK   19  A    between atoms: C_67  and  S_68 
REMARK   20  A    between atoms: S_68  and  O_69 
REMARK   21  A    between atoms: S_72  and  O_73 
REMARK   22  A    between atoms: S_76  and  O_77 
ROOT
HETATM    1  N   UNK N   1      31.447  12.718   2.054  0.00  0.00    -0.190 N 
HETATM    2  C   UNK N   1      31.678  11.609   2.912  0.00  0.00     0.698 A 
HETATM    3  N   UNK N   1      32.717  11.626   3.787  0.00  0.00    -0.022 N 
ATOM      4  HN  UNK N   1      33.430  12.354   3.716  1.00  0.00     0.203 HD
HETATM    5  C   UNK N   1      32.809  10.677   4.757  0.00  0.00     0.698 A 
HETATM    6  N   UNK N   1      33.914  10.668   5.627  0.00  0.00    -0.190 N 
HETATM    7  N   UNK N   1      31.908   9.662   4.800  0.00  0.00    -0.187 N 
ATOM      8  HN  UNK N   1      32.014   8.914   5.486  1.00  0.00     0.185 HD
HETATM    9  C   UNK N   1      30.868   9.643   3.931  0.00  0.00     0.215 A 
HETATM   10  N   UNK N   1      30.735  10.633   3.014  0.00  0.00    -0.187 N 
ATOM     11  HN  UNK N   1      29.923  10.647   2.396  1.00  0.00     0.185 HD
HETATM   12  H   UNK N   1      32.087  12.985   1.354  0.00  0.00     0.184 HD
HETATM   13  H   UNK N   1      34.745  10.327   5.224  0.00  0.00     0.184 HD
ENDROOT
BRANCH   1  14
HETATM   14  C   UNK N   1      30.238  13.411   2.275  0.00  0.00     0.073 A 
HETATM   15  C   UNK N   1      29.032  12.829   1.884  0.00  0.00     0.032 A 
HETATM   16  C   UNK N   1      27.826  13.359   2.325  0.00  0.00     0.017 A 
HETATM   17  C   UNK N   1      27.811  14.416   3.240  0.00  0.00     0.011 A 
HETATM   18  C   UNK N   1      26.601  14.881   3.749  0.00  0.00     0.106 A 
HETATM   19  C   UNK N   1      29.016  15.017   3.648  0.00  0.00     0.004 A 
HETATM   20  C   UNK N   1      26.567  15.904   4.709  0.00  0.00     0.105 A 
HETATM   21  C   UNK N   1      27.777  16.456   5.194  0.00  0.00     0.104 A 
HETATM   22  C   UNK N   1      28.974  16.022   4.630  0.00  0.00     0.041 A 
HETATM   23  C   UNK N   1      30.264  14.551   3.107  0.00  0.00     0.110 A 
BRANCH  18  24
HETATM   24  O   UNK N   1      25.444  14.345   3.312  0.00  0.00    -0.357 OA
HETATM   25  H   UNK N   1      25.351  13.506   2.904  0.00  0.00     0.217 HD
ENDBRANCH  18  24
BRANCH  20  26
HETATM   26  N   UNK N   1      25.280  16.344   5.061  0.00  0.00    -0.296 N 
HETATM   27  N   UNK N   1      24.922  17.526   5.178  0.00  0.00    -0.297 N 
ATOM     28  HN  UNK N   1      25.580  18.266   5.423  1.00  0.00     0.187 HD
ATOM     29  HN  UNK N   1      24.577  15.627   5.237  1.00  0.00     0.187 HD
BRANCH  27  30
HETATM   30  C   UNK N   1      23.551  17.792   4.951  0.00  0.00     0.082 A 
HETATM   31  C   UNK N   1      23.236  18.693   3.934  0.00  0.00     0.059 A 
HETATM   32  C   UNK N   1      21.919  19.065   3.638  0.00  0.00     0.074 A 
HETATM   33  C   UNK N   1      20.891  18.484   4.394  0.00  0.00     0.028 A 
HETATM   34  C   UNK N   1      21.191  17.574   5.425  0.00  0.00     0.040 A 
HETATM   35  C   UNK N   1      22.523  17.232   5.714  0.00  0.00     0.093 A 
BRANCH  32  36
HETATM   36  S   UNK N   1      21.508  20.261   2.293  0.00  0.00     0.129 S 
HETATM   37  O   UNK N   1      22.812  20.943   2.742  0.00  0.00    -0.598 OA
HETATM   38  O   UNK N   1      20.613  20.602   3.499  0.00  0.00    -0.598 OA
BRANCH  36  39
HETATM   39  O   UNK N   1      21.043  21.906   2.123  0.00  0.00    -0.292 OA
HETATM   40  H   UNK N   1      20.156  22.272   2.268  0.00  0.00     0.232 HD
ENDBRANCH  36  39
ENDBRANCH  32  36
BRANCH  35  41
HETATM   41  O   UNK N   1      22.797  16.367   6.706  0.00  0.00    -0.358 OA
HETATM   42  H   UNK N   1      22.134  16.141   7.328  0.00  0.00     0.217 HD
ENDBRANCH  35  41
ENDBRANCH  27  30
ENDBRANCH  20  26
BRANCH  21  43
HETATM   43  S   UNK N   1      27.914  17.607   6.581  0.00  0.00     0.132 S 
HETATM   44  O   UNK N   1      27.411  19.015   6.231  0.00  0.00    -0.597 OA
HETATM   45  O   UNK N   1      29.410  17.910   6.774  0.00  0.00    -0.597 OA
BRANCH  43  46
HETATM   46  O   UNK N   1      27.392  17.299   8.186  0.00  0.00    -0.292 OA
HETATM   47  H   UNK N   1      27.928  16.880   8.877  0.00  0.00     0.232 HD
ENDBRANCH  43  46
ENDBRANCH  21  43
BRANCH  23  48
HETATM   48  S   UNK N   1      31.948  15.289   3.424  0.00  0.00     0.133 S 
HETATM   49  O   UNK N   1      31.043  16.523   3.300  0.00  0.00    -0.597 OA
HETATM   50  O   UNK N   1      31.485  14.599   4.696  0.00  0.00    -0.597 OA
BRANCH  48  51
HETATM   51  O   UNK N   1      32.483  16.289   4.711  0.00  0.00    -0.292 OA
HETATM   52  H   UNK N   1      32.915  17.140   4.535  0.00  0.00     0.232 HD
ENDBRANCH  48  51
ENDBRANCH  23  48
ENDBRANCH   1  14
BRANCH   6  53
HETATM   53  C   UNK N   1      34.039  11.067   6.993  0.00  0.00     0.073 A 
HETATM   54  C   UNK N   1      34.337  12.389   7.508  0.00  0.00     0.110 A 
HETATM   55  C   UNK N   1      34.559  12.532   8.904  0.00  0.00     0.004 A 
HETATM   56  C   UNK N   1      34.397  11.445   9.778  0.00  0.00     0.011 A 
HETATM   57  C   UNK N   1      34.963  13.767   9.436  0.00  0.00     0.041 A 
HETATM   58  C   UNK N   1      34.041  10.200   9.272  0.00  0.00     0.017 A 
HETATM   59  C   UNK N   1      34.583  11.618  11.156  0.00  0.00     0.106 A 
HETATM   60  C   UNK N   1      33.897  10.018   7.907  0.00  0.00     0.032 A 
HETATM   61  C   UNK N   1      34.989  12.883  11.674  0.00  0.00     0.105 A 
HETATM   62  C   UNK N   1      35.194  13.946  10.793  0.00  0.00     0.104 A 
BRANCH  54  63
HETATM   63  S   UNK N   1      34.443  13.957   6.581  0.00  0.00     0.133 S 
HETATM   64  O   UNK N   1      33.791  15.266   7.023  0.00  0.00    -0.597 OA
HETATM   65  O   UNK N   1      35.910  14.377   6.755  0.00  0.00    -0.597 OA
BRANCH  63  66
HETATM   66  O   UNK N   1      34.379  13.891   4.864  0.00  0.00    -0.292 OA
HETATM   67  H   UNK N   1      34.021  14.565   4.266  0.00  0.00     0.232 HD
ENDBRANCH  63  66
ENDBRANCH  54  63
BRANCH  59  68
HETATM   68  O   UNK N   1      34.358  10.575  11.979  0.00  0.00    -0.357 OA
HETATM   69  H   UNK N   1      35.052  10.162  12.453  0.00  0.00     0.217 HD
ENDBRANCH  59  68
BRANCH  61  70
HETATM   70  N   UNK N   1      35.119  13.088  13.072  0.00  0.00    -0.296 N 
HETATM   71  N   UNK N   1      36.174  12.765  13.637  0.00  0.00    -0.297 N 
ATOM     72  HN  UNK N   1      37.069  13.077  13.259  1.00  0.00     0.187 HD
ATOM     73  HN  UNK N   1      34.353  13.497  13.607  1.00  0.00     0.187 HD
BRANCH  71  74
HETATM   74  C   UNK N   1      36.140  11.974  14.790  0.00  0.00     0.082 A 
HETATM   75  C   UNK N   1      37.017  10.912  14.791  0.00  0.00     0.059 A 
HETATM   76  C   UNK N   1      37.005   9.963  15.782  0.00  0.00     0.074 A 
HETATM   77  C   UNK N   1      36.093  10.075  16.840  0.00  0.00     0.028 A 
HETATM   78  C   UNK N   1      35.197  11.163  16.868  0.00  0.00     0.040 A 
HETATM   79  C   UNK N   1      35.205  12.112  15.829  0.00  0.00     0.093 A 
BRANCH  76  80
HETATM   80  S   UNK N   1      38.157   8.617  15.591  0.00  0.00     0.129 S 
HETATM   81  O   UNK N   1      37.665   7.675  14.479  0.00  0.00    -0.598 OA
HETATM   82  O   UNK N   1      39.472   9.115  14.973  0.00  0.00    -0.598 OA
BRANCH  80  83
HETATM   83  O   UNK N   1      38.595   7.578  16.882  0.00  0.00    -0.292 OA
HETATM   84  H   UNK N   1      39.359   7.490  17.472  0.00  0.00     0.232 HD
ENDBRANCH  80  83
ENDBRANCH  76  80
BRANCH  79  85
HETATM   85  O   UNK N   1      34.326  13.130  15.836  0.00  0.00    -0.358 OA
HETATM   86  H   UNK N   1      34.616  14.008  15.685  0.00  0.00     0.217 HD
ENDBRANCH  79  85
ENDBRANCH  71  74
ENDBRANCH  61  70
BRANCH  62  87
HETATM   87  S   UNK N   1      35.809  15.536  11.353  0.00  0.00     0.132 S 
HETATM   88  O   UNK N   1      37.132  15.865  10.643  0.00  0.00    -0.597 OA
HETATM   89  O   UNK N   1      36.278  15.508  12.816  0.00  0.00    -0.597 OA
BRANCH  87  90
HETATM   90  O   UNK N   1      34.853  16.950  11.189  0.00  0.00    -0.292 OA
HETATM   91  H   UNK N   1      34.661  17.826  10.821  0.00  0.00     0.232 HD
ENDBRANCH  87  90
ENDBRANCH  62  87
ENDBRANCH   6  53
TORSDOF 22
ENDMDL
MODEL 6
REMARK VINA RESULT:      -8.9      2.289     14.443
REMARK  22 active torsions:
REMARK  status: ('A' for Active; 'I' for Inactive)
REMARK    1  A    between atoms: O_1  and  C_2 
REMARK    2  A    between atoms: C_5  and  S_76 
REMARK    3  A    between atoms: C_7  and  N_8 
REMARK    4  A    between atoms: N_10  and  C_12 
REMARK    5  A    between atoms: C_13  and  O_14 
REMARK    6  A    between atoms: C_18  and  N_19 
REMARK       I    between atoms: N_19  and  C_20 
REMARK       I    between atoms: C_23  and  N_24 
REMARK    7  A    between atoms: N_24  and  C_25 
REMARK    8  A    between atoms: C_26  and  S_55 
REMARK    9  A    between atoms: C_31  and  O_32 
REMARK   10  A    between atoms: C_33  and  N_34 
REMARK   11  A    between atoms: N_36  and  C_38 
REMARK   12  A    between atoms: C_40  and  S_45 
REMARK   13  A    between atoms: C_43  and  O_44 
REMARK   14  A    between atoms: S_45  and  O_46 
REMARK   15  A    between atoms: C_49  and  S_51 
REMARK   16  A    between atoms: S_51  and  O_52 
REMARK   17  A    between atoms: S_55  and  O_56 
REMARK   18  A    between atoms: C_64  and  S_72 
REMARK   19  A    between atoms: C_67  and  S_68 
REMARK   20  A    between atoms: S_68  and  O_69 
REMARK   21  A    between atoms: S_72  and  O_73 
REMARK   22  A    between atoms: S_76  and  O_77 
ROOT
HETATM    1  N   UNK N   1      33.323  15.082   3.434  0.00  0.00    -0.190 N 
HETATM    2  C   UNK N   1      33.526  13.732   3.829  0.00  0.00     0.698 A 
HETATM    3  N   UNK N   1      34.327  13.443   4.888  0.00  0.00    -0.022 N 
ATOM      4  HN  UNK N   1      34.914  14.171   5.296  1.00  0.00     0.203 HD
HETATM    5  C   UNK N   1      34.346  12.184   5.405  0.00  0.00     0.698 A 
HETATM    6  N   UNK N   1      35.215  11.877   6.467  0.00  0.00    -0.190 N 
HETATM    7  N   UNK N   1      33.631  11.196   4.810  0.00  0.00    -0.187 N 
ATOM      8  HN  UNK N   1      33.697  10.239   5.158  1.00  0.00     0.185 HD
HETATM    9  C   UNK N   1      32.828  11.481   3.756  0.00  0.00     0.215 A 
HETATM   10  N   UNK N   1      32.751  12.753   3.290  0.00  0.00    -0.187 N 
ATOM     11  HN  UNK N   1      32.106  12.976   2.531  1.00  0.00     0.185 HD
HETATM   12  H   UNK N   1      34.053  15.647   3.090  0.00  0.00     0.184 HD
HETATM   13  H   UNK N   1      36.159  11.777   6.204  0.00  0.00     0.184 HD
ENDROOT
BRANCH   1  14
HETATM   14  C   UNK N   1      32.001  15.558   3.570  0.00  0.00     0.073 A 
HETATM   15  C   UNK N   1      30.998  15.040   2.752  0.00  0.00     0.032 A 
HETATM   16  C   UNK N   1      29.662  15.289   3.042  0.00  0.00     0.017 A 
HETATM   17  C   UNK N   1      29.308  15.976   4.206  0.00  0.00     0.011 A 
HETATM   18  C   UNK N   1      27.966  16.142   4.538  0.00  0.00     0.106 A 
HETATM   19  C   UNK N   1      30.304  16.507   5.046  0.00  0.00     0.004 A 
HETATM   20  C   UNK N   1      27.590  16.781   5.729  0.00  0.00     0.105 A 
HETATM   21  C   UNK N   1      28.584  17.240   6.627  0.00  0.00     0.104 A 
HETATM   22  C   UNK N   1      29.919  17.120   6.250  0.00  0.00     0.041 A 
HETATM   23  C   UNK N   1      31.689  16.354   4.693  0.00  0.00     0.110 A 
BRANCH  18  24
HETATM   24  O   UNK N   1      27.011  15.686   3.702  0.00  0.00    -0.357 OA
HETATM   25  H   UNK N   1      26.330  15.083   3.929  0.00  0.00     0.217 HD
ENDBRANCH  18  24
BRANCH  20  26
HETATM   26  N   UNK N   1      26.207  16.968   5.891  0.00  0.00    -0.296 N 
HETATM   27  N   UNK N   1      25.549  17.933   5.471  0.00  0.00    -0.297 N 
ATOM     28  HN  UNK N   1      25.972  18.851   5.327  1.00  0.00     0.187 HD
ATOM     29  HN  UNK N   1      25.698  16.246   6.400  1.00  0.00     0.187 HD
BRANCH  27  30
HETATM   30  C   UNK N   1      24.182  17.691   5.199  0.00  0.00     0.082 A 
HETATM   31  C   UNK N   1      23.523  18.605   4.377  0.00  0.00     0.059 A 
HETATM   32  C   UNK N   1      22.163  18.493   4.065  0.00  0.00     0.074 A 
HETATM   33  C   UNK N   1      21.459  17.404   4.596  0.00  0.00     0.028 A 
HETATM   34  C   UNK N   1      22.108  16.472   5.429  0.00  0.00     0.040 A 
HETATM   35  C   UNK N   1      23.470  16.618   5.741  0.00  0.00     0.093 A 
BRANCH  32  36
HETATM   36  S   UNK N   1      21.295  19.708   2.979  0.00  0.00     0.129 S 
HETATM   37  O   UNK N   1      22.623  20.480   3.081  0.00  0.00    -0.598 OA
HETATM   38  O   UNK N   1      20.769  19.916   4.411  0.00  0.00    -0.598 OA
BRANCH  36  39
HETATM   39  O   UNK N   1      20.687  21.313   3.062  0.00  0.00    -0.292 OA
HETATM   40  H   UNK N   1      19.789  21.576   3.318  0.00  0.00     0.232 HD
ENDBRANCH  36  39
ENDBRANCH  32  36
BRANCH  35  41
HETATM   41  O   UNK N   1      24.076  15.726   6.543  0.00  0.00    -0.358 OA
HETATM   42  H   UNK N   1      24.655  16.020   7.220  0.00  0.00     0.217 HD
ENDBRANCH  35  41
ENDBRANCH  27  30
ENDBRANCH  20  26
BRANCH  21  43
HETATM   43  S   UNK N   1      28.272  17.872   8.292  0.00  0.00     0.132 S 
HETATM   44  O   UNK N   1      29.531  17.864   9.171  0.00  0.00    -0.597 OA
HETATM   45  O   UNK N   1      27.438  16.812   9.030  0.00  0.00    -0.597 OA
BRANCH  43  46
HETATM   46  O   UNK N   1      27.437  19.324   8.666  0.00  0.00    -0.292 OA
HETATM   47  H   UNK N   1      27.403  19.737   9.542  0.00  0.00     0.232 HD
ENDBRANCH  43  46
ENDBRANCH  21  43
BRANCH  23  48
HETATM   48  S   UNK N   1      33.146  17.084   5.602  0.00  0.00     0.133 S 
HETATM   49  O   UNK N   1      33.100  15.638   6.118  0.00  0.00    -0.597 OA
HETATM   50  O   UNK N   1      33.518  16.958   4.136  0.00  0.00    -0.597 OA
BRANCH  48  51
HETATM   51  O   UNK N   1      34.797  16.618   5.584  0.00  0.00    -0.292 OA
HETATM   52  H   UNK N   1      35.502  17.276   5.689  0.00  0.00     0.232 HD
ENDBRANCH  48  51
ENDBRANCH  23  48
ENDBRANCH   1  14
BRANCH   6  53
HETATM   53  C   UNK N   1      34.966  11.685   7.861  0.00  0.00     0.073 A 
HETATM   54  C   UNK N   1      35.304  12.575   8.954  0.00  0.00     0.110 A 
HETATM   55  C   UNK N   1      35.091  12.117  10.282  0.00  0.00     0.004 A 
HETATM   56  C   UNK N   1      34.480  10.878  10.533  0.00  0.00     0.011 A 
HETATM   57  C   UNK N   1      35.507  12.894  11.375  0.00  0.00     0.041 A 
HETATM   58  C   UNK N   1      34.098  10.069   9.469  0.00  0.00     0.017 A 
HETATM   59  C   UNK N   1      34.245  10.465  11.851  0.00  0.00     0.106 A 
HETATM   60  C   UNK N   1      34.366  10.458   8.166  0.00  0.00     0.032 A 
HETATM   61  C   UNK N   1      34.673  11.272  12.945  0.00  0.00     0.105 A 
HETATM   62  C   UNK N   1      35.323  12.480  12.688  0.00  0.00     0.104 A 
BRANCH  54  63
HETATM   63  S   UNK N   1      35.960  14.274   8.856  0.00  0.00     0.133 S 
HETATM   64  O   UNK N   1      35.728  15.350   9.915  0.00  0.00    -0.597 OA
HETATM   65  O   UNK N   1      37.470  14.087   9.066  0.00  0.00    -0.597 OA
BRANCH  63  66
HETATM   66  O   UNK N   1      35.991  15.045   7.320  0.00  0.00    -0.292 OA
HETATM   67  H   UNK N   1      36.542  15.797   7.054  0.00  0.00     0.232 HD
ENDBRANCH  63  66
ENDBRANCH  54  63
BRANCH  59  68
HETATM   68  O   UNK N   1      33.598   9.302  12.062  0.00  0.00    -0.357 OA
HETATM   69  H   UNK N   1      33.009   9.188  12.781  0.00  0.00     0.217 HD
ENDBRANCH  59  68
BRANCH  61  70
HETATM   70  N   UNK N   1      34.385  10.895  14.283  0.00  0.00    -0.296 N 
HETATM   71  N   UNK N   1      35.320  10.637  15.055  0.00  0.00    -0.297 N 
ATOM     72  HN  UNK N   1      36.098  11.291  15.146  1.00  0.00     0.187 HD
ATOM     73  HN  UNK N   1      33.419  10.836  14.606  1.00  0.00     0.187 HD
BRANCH  71  74
HETATM   74  C   UNK N   1      35.311   9.453  15.799  0.00  0.00     0.082 A 
HETATM   75  C   UNK N   1      35.040   9.613  17.140  0.00  0.00     0.059 A 
HETATM   76  C   UNK N   1      35.136   8.572  18.028  0.00  0.00     0.074 A 
HETATM   77  C   UNK N   1      35.498   7.298  17.569  0.00  0.00     0.028 A 
HETATM   78  C   UNK N   1      35.764   7.107  16.197  0.00  0.00     0.040 A 
HETATM   79  C   UNK N   1      35.688   8.193  15.305  0.00  0.00     0.093 A 
BRANCH  76  80
HETATM   80  S   UNK N   1      34.822   8.968  19.736  0.00  0.00     0.129 S 
HETATM   81  O   UNK N   1      35.214  10.432  20.003  0.00  0.00    -0.598 OA
HETATM   82  O   UNK N   1      33.312   9.031  20.009  0.00  0.00    -0.598 OA
BRANCH  80  83
HETATM   83  O   UNK N   1      35.509   8.089  21.037  0.00  0.00    -0.292 OA
HETATM   84  H   UNK N   1      35.336   7.237  21.466  0.00  0.00     0.232 HD
ENDBRANCH  80  83
ENDBRANCH  76  80
BRANCH  79  85
HETATM   85  O   UNK N   1      35.977   8.020  14.003  0.00  0.00    -0.358 OA
HETATM   86  H   UNK N   1      36.286   8.739  13.487  0.00  0.00     0.217 HD
ENDBRANCH  79  85
ENDBRANCH  71  74
ENDBRANCH  61  70
BRANCH  62  87
HETATM   87  S   UNK N   1      35.987  13.499  14.007  0.00  0.00     0.132 S 
HETATM   88  O   UNK N   1      34.937  13.669  15.116  0.00  0.00    -0.597 OA
HETATM   89  O   UNK N   1      36.183  14.963  13.582  0.00  0.00    -0.597 OA
BRANCH  87  90
HETATM   90  O   UNK N   1      37.426  13.046  14.821  0.00  0.00    -0.292 OA
HETATM   91  H   UNK N   1      38.341  13.192  15.105  0.00  0.00     0.232 HD
ENDBRANCH  87  90
ENDBRANCH  62  87
ENDBRANCH   6  53
TORSDOF 22
ENDMDL
MODEL 7
REMARK VINA RESULT:      -8.8      2.898     13.773
REMARK  22 active torsions:
REMARK  status: ('A' for Active; 'I' for Inactive)
REMARK    1  A    between atoms: O_1  and  C_2 
REMARK    2  A    between atoms: C_5  and  S_76 
REMARK    3  A    between atoms: C_7  and  N_8 
REMARK    4  A    between atoms: N_10  and  C_12 
REMARK    5  A    between atoms: C_13  and  O_14 
REMARK    6  A    between atoms: C_18  and  N_19 
REMARK       I    between atoms: N_19  and  C_20 
REMARK       I    between atoms: C_23  and  N_24 
REMARK    7  A    between atoms: N_24  and  C_25 
REMARK    8  A    between atoms: C_26  and  S_55 
REMARK    9  A    between atoms: C_31  and  O_32 
REMARK   10  A    between atoms: C_33  and  N_34 
REMARK   11  A    between atoms: N_36  and  C_38 
REMARK   12  A    between atoms: C_40  and  S_45 
REMARK   13  A    between atoms: C_43  and  O_44 
REMARK   14  A    between atoms: S_45  and  O_46 
REMARK   15  A    between atoms: C_49  and  S_51 
REMARK   16  A    between atoms: S_51  and  O_52 
REMARK   17  A    between atoms: S_55  and  O_56 
REMARK   18  A    between atoms: C_64  and  S_72 
REMARK   19  A    between atoms: C_67  and  S_68 
REMARK   20  A    between atoms: S_68  and  O_69 
REMARK   21  A    between atoms: S_72  and  O_73 
REMARK   22  A    between atoms: S_76  and  O_77 
ROOT
HETATM    1  N   UNK N   1      33.084  14.499   3.755  0.00  0.00    -0.190 N 
HETATM    2  C   UNK N   1      33.419  13.173   4.142  0.00  0.00     0.698 A 
HETATM    3  N   UNK N   1      34.297  12.959   5.157  0.00  0.00    -0.022 N 
ATOM      4  HN  UNK N   1      34.844  13.736   5.530  1.00  0.00     0.203 HD
HETATM    5  C   UNK N   1      34.448  11.710   5.676  0.00  0.00     0.698 A 
HETATM    6  N   UNK N   1      35.395  11.483   6.690  0.00  0.00    -0.190 N 
HETATM    7  N   UNK N   1      33.784  10.663   5.126  0.00  0.00    -0.187 N 
ATOM      8  HN  UNK N   1      33.947   9.717   5.472  1.00  0.00     0.185 HD
HETATM    9  C   UNK N   1      32.904  10.873   4.116  0.00  0.00     0.215 A 
HETATM   10  N   UNK N   1      32.698  12.130   3.650  0.00  0.00    -0.187 N 
ATOM     11  HN  UNK N   1      31.997  12.294   2.928  1.00  0.00     0.185 HD
HETATM   12  H   UNK N   1      33.747  15.119   3.370  0.00  0.00     0.184 HD
HETATM   13  H   UNK N   1      36.328  11.458   6.377  0.00  0.00     0.184 HD
ENDROOT
BRANCH   1  14
HETATM   14  C   UNK N   1      31.737  14.867   3.962  0.00  0.00     0.073 A 
HETATM   15  C   UNK N   1      30.723  14.117   3.367  0.00  0.00     0.032 A 
HETATM   16  C   UNK N   1      29.403  14.290   3.765  0.00  0.00     0.017 A 
HETATM   17  C   UNK N   1      29.091  15.142   4.828  0.00  0.00     0.011 A 
HETATM   18  C   UNK N   1      27.778  15.240   5.282  0.00  0.00     0.106 A 
HETATM   19  C   UNK N   1      30.100  15.906   5.443  0.00  0.00     0.004 A 
HETATM   20  C   UNK N   1      27.453  16.047   6.383  0.00  0.00     0.105 A 
HETATM   21  C   UNK N   1      28.473  16.753   7.066  0.00  0.00     0.104 A 
HETATM   22  C   UNK N   1      29.769  16.691   6.562  0.00  0.00     0.041 A 
HETATM   23  C   UNK N   1      31.451  15.822   4.961  0.00  0.00     0.110 A 
BRANCH  18  24
HETATM   24  O   UNK N   1      26.802  14.553   4.654  0.00  0.00    -0.357 OA
HETATM   25  H   UNK N   1      26.285  13.870   5.035  0.00  0.00     0.217 HD
ENDBRANCH  18  24
BRANCH  20  26
HETATM   26  N   UNK N   1      26.080  16.131   6.671  0.00  0.00    -0.296 N 
HETATM   27  N   UNK N   1      25.191  16.486   5.882  0.00  0.00    -0.297 N 
ATOM     28  HN  UNK N   1      25.383  17.117   5.103  1.00  0.00     0.187 HD
ATOM     29  HN  UNK N   1      25.788  15.878   7.615  1.00  0.00     0.187 HD
BRANCH  27  30
HETATM   30  C   UNK N   1      23.897  15.967   6.119  0.00  0.00     0.082 A 
HETATM   31  C   UNK N   1      23.807  14.797   6.872  0.00  0.00     0.059 A 
HETATM   32  C   UNK N   1      22.586  14.167   7.143  0.00  0.00     0.074 A 
HETATM   33  C   UNK N   1      21.420  14.762   6.643  0.00  0.00     0.028 A 
HETATM   34  C   UNK N   1      21.492  15.942   5.880  0.00  0.00     0.040 A 
HETATM   35  C   UNK N   1      22.731  16.544   5.606  0.00  0.00     0.093 A 
BRANCH  32  36
HETATM   36  S   UNK N   1      22.474  12.616   8.139  0.00  0.00     0.129 S 
HETATM   37  O   UNK N   1      20.975  12.722   7.807  0.00  0.00    -0.598 OA
HETATM   38  O   UNK N   1      22.599  13.789   9.128  0.00  0.00    -0.598 OA
BRANCH  36  39
HETATM   39  O   UNK N   1      21.814  12.085   9.633  0.00  0.00    -0.292 OA
HETATM   40  H   UNK N   1      22.081  11.299  10.134  0.00  0.00     0.232 HD
ENDBRANCH  36  39
ENDBRANCH  32  36
BRANCH  35  41
HETATM   41  O   UNK N   1      22.788  17.667   4.870  0.00  0.00    -0.358 OA
HETATM   42  H   UNK N   1      23.018  17.622   3.962  0.00  0.00     0.217 HD
ENDBRANCH  35  41
ENDBRANCH  27  30
ENDBRANCH  20  26
BRANCH  21  43
HETATM   43  S   UNK N   1      28.258  17.645   8.623  0.00  0.00     0.132 S 
HETATM   44  O   UNK N   1      29.562  17.746   9.429  0.00  0.00    -0.597 OA
HETATM   45  O   UNK N   1      27.449  16.733   9.561  0.00  0.00    -0.597 OA
BRANCH  43  46
HETATM   46  O   UNK N   1      27.465  19.155   8.804  0.00  0.00    -0.292 OA
HETATM   47  H   UNK N   1      26.866  19.388   9.530  0.00  0.00     0.232 HD
ENDBRANCH  43  46
ENDBRANCH  21  43
BRANCH  23  48
HETATM   48  S   UNK N   1      32.900  16.837   5.555  0.00  0.00     0.133 S 
HETATM   49  O   UNK N   1      33.062  15.515   6.319  0.00  0.00    -0.597 OA
HETATM   50  O   UNK N   1      33.141  16.473   4.101  0.00  0.00    -0.597 OA
BRANCH  48  51
HETATM   51  O   UNK N   1      34.582  16.527   5.431  0.00  0.00    -0.292 OA
HETATM   52  H   UNK N   1      34.914  15.626   5.287  0.00  0.00     0.232 HD
ENDBRANCH  48  51
ENDBRANCH  23  48
ENDBRANCH   1  14
BRANCH   6  53
HETATM   53  C   UNK N   1      35.239  11.283   8.096  0.00  0.00     0.073 A 
HETATM   54  C   UNK N   1      35.408  12.257   9.156  0.00  0.00     0.110 A 
HETATM   55  C   UNK N   1      35.344  11.803  10.501  0.00  0.00     0.004 A 
HETATM   56  C   UNK N   1      35.028  10.468  10.802  0.00  0.00     0.011 A 
HETATM   57  C   UNK N   1      35.614  12.684  11.561  0.00  0.00     0.041 A 
HETATM   58  C   UNK N   1      34.799   9.565   9.771  0.00  0.00     0.017 A 
HETATM   59  C   UNK N   1      34.931  10.053  12.137  0.00  0.00     0.106 A 
HETATM   60  C   UNK N   1      34.933   9.964   8.451  0.00  0.00     0.032 A 
HETATM   61  C   UNK N   1      35.206  10.966  13.196  0.00  0.00     0.105 A 
HETATM   62  C   UNK N   1      35.567  12.279  12.888  0.00  0.00     0.104 A 
BRANCH  54  63
HETATM   63  S   UNK N   1      35.673  14.055   8.997  0.00  0.00     0.133 S 
HETATM   64  O   UNK N   1      36.864  14.807   9.587  0.00  0.00    -0.597 OA
HETATM   65  O   UNK N   1      36.019  14.235   7.511  0.00  0.00    -0.597 OA
BRANCH  63  66
HETATM   66  O   UNK N   1      34.302  15.088   9.086  0.00  0.00    -0.292 OA
HETATM   67  H   UNK N   1      34.288  16.019   9.357  0.00  0.00     0.232 HD
ENDBRANCH  63  66
ENDBRANCH  54  63
BRANCH  59  68
HETATM   68  O   UNK N   1      34.562   8.783  12.398  0.00  0.00    -0.357 OA
HETATM   69  H   UNK N   1      34.722   8.384  13.229  0.00  0.00     0.217 HD
ENDBRANCH  59  68
BRANCH  61  70
HETATM   70  N   UNK N   1      35.051  10.575  14.552  0.00  0.00    -0.296 N 
HETATM   71  N   UNK N   1      35.963   9.948  15.110  0.00  0.00    -0.297 N 
ATOM     72  HN  UNK N   1      36.922  10.295  15.063  1.00  0.00     0.187 HD
ATOM     73  HN  UNK N   1      34.198  10.807  15.061  1.00  0.00     0.187 HD
BRANCH  71  74
HETATM   74  C   UNK N   1      35.682   8.766  15.803  0.00  0.00     0.082 A 
HETATM   75  C   UNK N   1      35.197   8.944  17.079  0.00  0.00     0.059 A 
HETATM   76  C   UNK N   1      35.009   7.889  17.937  0.00  0.00     0.074 A 
HETATM   77  C   UNK N   1      35.294   6.586  17.508  0.00  0.00     0.028 A 
HETATM   78  C   UNK N   1      35.776   6.378  16.199  0.00  0.00     0.040 A 
HETATM   79  C   UNK N   1      35.989   7.475  15.343  0.00  0.00     0.093 A 
BRANCH  76  80
HETATM   80  S   UNK N   1      34.444   8.303  19.575  0.00  0.00     0.129 S 
HETATM   81  O   UNK N   1      32.964   8.722  19.516  0.00  0.00    -0.598 OA
HETATM   82  O   UNK N   1      34.341   7.042  20.446  0.00  0.00    -0.598 OA
BRANCH  80  83
HETATM   83  O   UNK N   1      35.197   9.498  20.544  0.00  0.00    -0.292 OA
HETATM   84  H   UNK N   1      34.902  10.142  21.206  0.00  0.00     0.232 HD
ENDBRANCH  80  83
ENDBRANCH  76  80
BRANCH  79  85
HETATM   85  O   UNK N   1      36.484   7.282  14.107  0.00  0.00    -0.358 OA
HETATM   86  H   UNK N   1      37.095   6.591  13.944  0.00  0.00     0.217 HD
ENDBRANCH  79  85
ENDBRANCH  71  74
ENDBRANCH  61  70
BRANCH  62  87
HETATM   87  S   UNK N   1      36.034  13.457  14.159  0.00  0.00     0.132 S 
HETATM   88  O   UNK N   1      37.164  12.876  15.022  0.00  0.00    -0.597 OA
HETATM   89  O   UNK N   1      34.940  13.644  15.222  0.00  0.00    -0.597 OA
BRANCH  87  90
HETATM   90  O   UNK N   1      36.560  15.033  13.737  0.00  0.00    -0.292 OA
HETATM   91  H   UNK N   1      37.234  15.676  13.468  0.00  0.00     0.232 HD
ENDBRANCH  87  90
ENDBRANCH  62  87
ENDBRANCH   6  53
TORSDOF 22
ENDMDL
MODEL 8
REMARK VINA RESULT:      -8.7      4.758      6.495
REMARK  22 active torsions:
REMARK  status: ('A' for Active; 'I' for Inactive)
REMARK    1  A    between atoms: O_1  and  C_2 
REMARK    2  A    between atoms: C_5  and  S_76 
REMARK    3  A    between atoms: C_7  and  N_8 
REMARK    4  A    between atoms: N_10  and  C_12 
REMARK    5  A    between atoms: C_13  and  O_14 
REMARK    6  A    between atoms: C_18  and  N_19 
REMARK       I    between atoms: N_19  and  C_20 
REMARK       I    between atoms: C_23  and  N_24 
REMARK    7  A    between atoms: N_24  and  C_25 
REMARK    8  A    between atoms: C_26  and  S_55 
REMARK    9  A    between atoms: C_31  and  O_32 
REMARK   10  A    between atoms: C_33  and  N_34 
REMARK   11  A    between atoms: N_36  and  C_38 
REMARK   12  A    between atoms: C_40  and  S_45 
REMARK   13  A    between atoms: C_43  and  O_44 
REMARK   14  A    between atoms: S_45  and  O_46 
REMARK   15  A    between atoms: C_49  and  S_51 
REMARK   16  A    between atoms: S_51  and  O_52 
REMARK   17  A    between atoms: S_55  and  O_56 
REMARK   18  A    between atoms: C_64  and  S_72 
REMARK   19  A    between atoms: C_67  and  S_68 
REMARK   20  A    between atoms: S_68  and  O_69 
REMARK   21  A    between atoms: S_72  and  O_73 
REMARK   22  A    between atoms: S_76  and  O_77 
ROOT
HETATM    1  N   UNK N   1      33.936  17.240   7.409  0.00  0.00    -0.190 N 
HETATM    2  C   UNK N   1      32.571  17.608   7.551  0.00  0.00     0.698 A 
HETATM    3  N   UNK N   1      31.657  17.211   6.627  0.00  0.00    -0.022 N 
ATOM      4  HN  UNK N   1      31.969  16.795   5.748  1.00  0.00     0.203 HD
HETATM    5  C   UNK N   1      30.327  17.366   6.872  0.00  0.00     0.698 A 
HETATM    6  N   UNK N   1      29.387  17.002   5.891  0.00  0.00    -0.190 N 
HETATM    7  N   UNK N   1      29.915  17.994   8.002  0.00  0.00    -0.187 N 
ATOM      8  HN  UNK N   1      28.922  18.169   8.155  1.00  0.00     0.185 HD
HETATM    9  C   UNK N   1      30.824  18.388   8.928  0.00  0.00     0.215 A 
HETATM   10  N   UNK N   1      32.144  18.164   8.717  0.00  0.00    -0.187 N 
ATOM     11  HN  UNK N   1      32.822  18.412   9.438  1.00  0.00     0.185 HD
HETATM   12  H   UNK N   1      34.493  17.557   6.661  0.00  0.00     0.184 HD
HETATM   13  H   UNK N   1      29.316  17.636   5.141  0.00  0.00     0.184 HD
ENDROOT
BRANCH   1  14
HETATM   14  C   UNK N   1      34.439  16.388   8.416  0.00  0.00     0.073 A 
HETATM   15  C   UNK N   1      34.620  16.884   9.707  0.00  0.00     0.032 A 
HETATM   16  C   UNK N   1      34.854  16.012  10.763  0.00  0.00     0.017 A 
HETATM   17  C   UNK N   1      34.814  14.630  10.560  0.00  0.00     0.011 A 
HETATM   18  C   UNK N   1      34.958  13.761  11.639  0.00  0.00     0.106 A 
HETATM   19  C   UNK N   1      34.633  14.108   9.266  0.00  0.00     0.004 A 
HETATM   20  C   UNK N   1      34.866  12.372  11.465  0.00  0.00     0.105 A 
HETATM   21  C   UNK N   1      34.595  11.838  10.182  0.00  0.00     0.104 A 
HETATM   22  C   UNK N   1      34.515  12.717   9.106  0.00  0.00     0.041 A 
HETATM   23  C   UNK N   1      34.506  15.004   8.149  0.00  0.00     0.110 A 
BRANCH  18  24
HETATM   24  O   UNK N   1      35.191  14.260  12.870  0.00  0.00    -0.357 OA
HETATM   25  H   UNK N   1      35.329  15.164  13.075  0.00  0.00     0.217 HD
ENDBRANCH  18  24
BRANCH  20  26
HETATM   26  N   UNK N   1      35.129  11.611  12.618  0.00  0.00    -0.296 N 
HETATM   27  N   UNK N   1      36.163  11.661  13.302  0.00  0.00    -0.297 N 
ATOM     28  HN  UNK N   1      37.060  11.938  12.903  1.00  0.00     0.187 HD
ATOM     29  HN  UNK N   1      34.404  10.960  12.918  1.00  0.00     0.187 HD
BRANCH  27  30
HETATM   30  C   UNK N   1      36.029  11.314  14.667  0.00  0.00     0.082 A 
HETATM   31  C   UNK N   1      36.731  10.194  15.113  0.00  0.00     0.059 A 
HETATM   32  C   UNK N   1      36.651   9.730  16.431  0.00  0.00     0.074 A 
HETATM   33  C   UNK N   1      35.841  10.443  17.326  0.00  0.00     0.028 A 
HETATM   34  C   UNK N   1      35.124  11.574  16.893  0.00  0.00     0.040 A 
HETATM   35  C   UNK N   1      35.207  12.008  15.560  0.00  0.00     0.093 A 
BRANCH  32  36
HETATM   36  S   UNK N   1      37.581   8.246  17.014  0.00  0.00     0.129 S 
HETATM   37  O   UNK N   1      38.540   8.616  15.868  0.00  0.00    -0.598 OA
HETATM   38  O   UNK N   1      36.382   7.741  16.190  0.00  0.00    -0.598 OA
BRANCH  36  39
HETATM   39  O   UNK N   1      37.982   6.671  16.457  0.00  0.00    -0.292 OA
HETATM   40  H   UNK N   1      37.371   6.022  16.073  0.00  0.00     0.232 HD
ENDBRANCH  36  39
ENDBRANCH  32  36
BRANCH  35  41
HETATM   41  O   UNK N   1      34.512  13.086  15.156  0.00  0.00    -0.358 OA
HETATM   42  H   UNK N   1      33.921  13.511  15.747  0.00  0.00     0.217 HD
ENDBRANCH  35  41
ENDBRANCH  27  30
ENDBRANCH  20  26
BRANCH  21  43
HETATM   43  S   UNK N   1      34.224  10.104   9.833  0.00  0.00     0.132 S 
HETATM   44  O   UNK N   1      32.818   9.908   9.247  0.00  0.00    -0.597 OA
HETATM   45  O   UNK N   1      34.038   9.398  11.187  0.00  0.00    -0.597 OA
BRANCH  43  46
HETATM   46  O   UNK N   1      35.249   9.016   8.989  0.00  0.00    -0.292 OA
HETATM   47  H   UNK N   1      36.133   8.744   9.280  0.00  0.00     0.232 HD
ENDBRANCH  43  46
ENDBRANCH  21  43
BRANCH  23  48
HETATM   48  S   UNK N   1      34.382  14.515   6.352  0.00  0.00     0.133 S 
HETATM   49  O   UNK N   1      32.916  14.717   6.761  0.00  0.00    -0.597 OA
HETATM   50  O   UNK N   1      34.997  15.902   6.425  0.00  0.00    -0.597 OA
BRANCH  48  51
HETATM   51  O   UNK N   1      33.728  15.379   5.022  0.00  0.00    -0.292 OA
HETATM   52  H   UNK N   1      33.092  16.100   5.160  0.00  0.00     0.232 HD
ENDBRANCH  48  51
ENDBRANCH  23  48
ENDBRANCH   1  14
BRANCH   6  53
HETATM   53  C   UNK N   1      28.518  15.872   5.795  0.00  0.00     0.073 A 
HETATM   54  C   UNK N   1      28.748  14.633   5.079  0.00  0.00     0.110 A 
HETATM   55  C   UNK N   1      27.682  13.697   4.997  0.00  0.00     0.004 A 
HETATM   56  C   UNK N   1      26.471  13.917   5.672  0.00  0.00     0.011 A 
HETATM   57  C   UNK N   1      27.816  12.535   4.220  0.00  0.00     0.041 A 
HETATM   58  C   UNK N   1      26.296  15.080   6.412  0.00  0.00     0.017 A 
HETATM   59  C   UNK N   1      25.448  12.962   5.609  0.00  0.00     0.106 A 
HETATM   60  C   UNK N   1      27.290  16.044   6.443  0.00  0.00     0.032 A 
HETATM   61  C   UNK N   1      25.609  11.788   4.817  0.00  0.00     0.105 A 
HETATM   62  C   UNK N   1      26.797  11.599   4.110  0.00  0.00     0.104 A 
BRANCH  54  63
HETATM   63  S   UNK N   1      30.283  14.076   4.264  0.00  0.00     0.133 S 
HETATM   64  O   UNK N   1      30.378  13.660   2.797  0.00  0.00    -0.597 OA
HETATM   65  O   UNK N   1      31.128  15.356   4.180  0.00  0.00    -0.597 OA
BRANCH  63  66
HETATM   66  O   UNK N   1      31.367  13.090   5.162  0.00  0.00    -0.292 OA
HETATM   67  H   UNK N   1      31.952  12.398   4.816  0.00  0.00     0.232 HD
ENDBRANCH  63  66
ENDBRANCH  54  63
BRANCH  59  68
HETATM   68  O   UNK N   1      24.321  13.167   6.318  0.00  0.00    -0.357 OA
HETATM   69  H   UNK N   1      23.490  13.285   5.903  0.00  0.00     0.217 HD
ENDBRANCH  59  68
BRANCH  61  70
HETATM   70  N   UNK N   1      24.606  10.782   4.794  0.00  0.00    -0.296 N 
HETATM   71  N   UNK N   1      23.688  10.860   3.965  0.00  0.00    -0.297 N 
ATOM     72  HN  UNK N   1      23.905  11.012   2.980  1.00  0.00     0.187 HD
ATOM     73  HN  UNK N   1      24.641  10.005   5.454  1.00  0.00     0.187 HD
BRANCH  71  74
HETATM   74  C   UNK N   1      22.357  10.741   4.377  0.00  0.00     0.082 A 
HETATM   75  C   UNK N   1      21.629  11.909   4.333  0.00  0.00     0.059 A 
HETATM   76  C   UNK N   1      20.356  11.989   4.839  0.00  0.00     0.074 A 
HETATM   77  C   UNK N   1      19.758  10.853   5.400  0.00  0.00     0.028 A 
HETATM   78  C   UNK N   1      20.479   9.641   5.440  0.00  0.00     0.040 A 
HETATM   79  C   UNK N   1      21.794   9.584   4.942  0.00  0.00     0.093 A 
BRANCH  76  80
HETATM   80  S   UNK N   1      19.584  13.593   4.766  0.00  0.00     0.129 S 
HETATM   81  O   UNK N   1      18.060  13.423   4.641  0.00  0.00    -0.598 OA
HETATM   82  O   UNK N   1      19.674  14.299   6.128  0.00  0.00    -0.598 OA
BRANCH  80  83
HETATM   83  O   UNK N   1      19.991  14.768   3.588  0.00  0.00    -0.292 OA
HETATM   84  H   UNK N   1      20.157  14.764   2.633  0.00  0.00     0.232 HD
ENDBRANCH  80  83
ENDBRANCH  76  80
BRANCH  79  85
HETATM   85  O   UNK N   1      22.496   8.439   5.014  0.00  0.00    -0.358 OA
HETATM   86  H   UNK N   1      23.371   8.398   4.681  0.00  0.00     0.217 HD
ENDBRANCH  79  85
ENDBRANCH  71  74
ENDBRANCH  61  70
BRANCH  62  87
HETATM   87  S   UNK N   1      27.034  10.203   3.007  0.00  0.00     0.132 S 
HETATM   88  O   UNK N   1      25.897  10.153   1.975  0.00  0.00    -0.597 OA
HETATM   89  O   UNK N   1      26.832   8.852   3.711  0.00  0.00    -0.597 OA
BRANCH  87  90
HETATM   90  O   UNK N   1      28.475  10.049   2.090  0.00  0.00    -0.292 OA
HETATM   91  H   UNK N   1      28.963   9.886   1.268  0.00  0.00     0.232 HD
ENDBRANCH  87  90
ENDBRANCH  62  87
ENDBRANCH   6  53
TORSDOF 22
ENDMDL
MODEL 9
REMARK VINA RESULT:      -8.7      5.777     16.602
REMARK  22 active torsions:
REMARK  status: ('A' for Active; 'I' for Inactive)
REMARK    1  A    between atoms: O_1  and  C_2 
REMARK    2  A    between atoms: C_5  and  S_76 
REMARK    3  A    between atoms: C_7  and  N_8 
REMARK    4  A    between atoms: N_10  and  C_12 
REMARK    5  A    between atoms: C_13  and  O_14 
REMARK    6  A    between atoms: C_18  and  N_19 
REMARK       I    between atoms: N_19  and  C_20 
REMARK       I    between atoms: C_23  and  N_24 
REMARK    7  A    between atoms: N_24  and  C_25 
REMARK    8  A    between atoms: C_26  and  S_55 
REMARK    9  A    between atoms: C_31  and  O_32 
REMARK   10  A    between atoms: C_33  and  N_34 
REMARK   11  A    between atoms: N_36  and  C_38 
REMARK   12  A    between atoms: C_40  and  S_45 
REMARK   13  A    between atoms: C_43  and  O_44 
REMARK   14  A    between atoms: S_45  and  O_46 
REMARK   15  A    between atoms: C_49  and  S_51 
REMARK   16  A    between atoms: S_51  and  O_52 
REMARK   17  A    between atoms: S_55  and  O_56 
REMARK   18  A    between atoms: C_64  and  S_72 
REMARK   19  A    between atoms: C_67  and  S_68 
REMARK   20  A    between atoms: S_68  and  O_69 
REMARK   21  A    between atoms: S_72  and  O_73 
REMARK   22  A    between atoms: S_76  and  O_77 
ROOT
HETATM    1  N   UNK N   1      23.303  18.076   4.777  0.00  0.00    -0.190 N 
HETATM    2  C   UNK N   1      24.490  18.857   4.775  0.00  0.00     0.698 A 
HETATM    3  N   UNK N   1      25.362  18.777   5.814  0.00  0.00    -0.022 N 
ATOM      4  HN  UNK N   1      25.091  18.290   6.670  1.00  0.00     0.203 HD
HETATM    5  C   UNK N   1      26.595  19.344   5.716  0.00  0.00     0.698 A 
HETATM    6  N   UNK N   1      27.474  19.304   6.813  0.00  0.00    -0.190 N 
HETATM    7  N   UNK N   1      26.924  20.062   4.613  0.00  0.00    -0.187 N 
ATOM      8  HN  UNK N   1      27.823  20.542   4.567  1.00  0.00     0.185 HD
HETATM    9  C   UNK N   1      26.058  20.142   3.573  0.00  0.00     0.215 A 
HETATM   10  N   UNK N   1      24.860  19.511   3.641  0.00  0.00    -0.187 N 
ATOM     11  HN  UNK N   1      24.232  19.527   2.838  1.00  0.00     0.185 HD
HETATM   12  H   UNK N   1      22.587  18.205   5.442  0.00  0.00     0.184 HD
HETATM   13  H   UNK N   1      27.250  19.932   7.537  0.00  0.00     0.184 HD
ENDROOT
BRANCH   1  14
HETATM   14  C   UNK N   1      23.220  17.101   3.759  0.00  0.00     0.073 A 
HETATM   15  C   UNK N   1      24.298  16.244   3.541  0.00  0.00     0.032 A 
HETATM   16  C   UNK N   1      24.144  15.119   2.741  0.00  0.00     0.017 A 
HETATM   17  C   UNK N   1      22.888  14.783   2.229  0.00  0.00     0.011 A 
HETATM   18  C   UNK N   1      22.722  13.604   1.505  0.00  0.00     0.106 A 
HETATM   19  C   UNK N   1      21.787  15.633   2.438  0.00  0.00     0.004 A 
HETATM   20  C   UNK N   1      21.459  13.221   1.030  0.00  0.00     0.105 A 
HETATM   21  C   UNK N   1      20.326  14.024   1.310  0.00  0.00     0.104 A 
HETATM   22  C   UNK N   1      20.521  15.228   1.981  0.00  0.00     0.041 A 
HETATM   23  C   UNK N   1      21.962  16.860   3.166  0.00  0.00     0.110 A 
BRANCH  18  24
HETATM   24  O   UNK N   1      23.789  12.820   1.254  0.00  0.00    -0.357 OA
HETATM   25  H   UNK N   1      23.758  11.959   0.885  0.00  0.00     0.217 HD
ENDBRANCH  18  24
BRANCH  20  26
HETATM   26  N   UNK N   1      21.451  12.064   0.232  0.00  0.00    -0.296 N 
HETATM   27  N   UNK N   1      21.819  10.933   0.587  0.00  0.00    -0.297 N 
ATOM     28  HN  UNK N   1      22.516  10.800   1.320  1.00  0.00     0.187 HD
ATOM     29  HN  UNK N   1      21.113  12.163  -0.725  1.00  0.00     0.187 HD
BRANCH  27  30
HETATM   30  C   UNK N   1      21.219   9.840  -0.079  0.00  0.00     0.082 A 
HETATM   31  C   UNK N   1      21.952   9.234  -1.099  0.00  0.00     0.059 A 
HETATM   32  C   UNK N   1      21.451   8.167  -1.856  0.00  0.00     0.074 A 
HETATM   33  C   UNK N   1      20.167   7.695  -1.548  0.00  0.00     0.028 A 
HETATM   34  C   UNK N   1      19.413   8.296  -0.523  0.00  0.00     0.040 A 
HETATM   35  C   UNK N   1      19.932   9.377   0.209  0.00  0.00     0.093 A 
BRANCH  32  36
HETATM   36  S   UNK N   1      22.425   7.371  -3.207  0.00  0.00     0.129 S 
HETATM   37  O   UNK N   1      23.353   6.956  -2.052  0.00  0.00    -0.598 OA
HETATM   38  O   UNK N   1      22.730   8.880  -3.249  0.00  0.00    -0.598 OA
BRANCH  36  39
HETATM   39  O   UNK N   1      23.946   7.553  -3.984  0.00  0.00    -0.292 OA
HETATM   40  H   UNK N   1      24.527   6.839  -4.289  0.00  0.00     0.232 HD
ENDBRANCH  36  39
ENDBRANCH  32  36
BRANCH  35  41
HETATM   41  O   UNK N   1      19.199   9.947   1.181  0.00  0.00    -0.358 OA
HETATM   42  H   UNK N   1      19.571  10.619   1.717  0.00  0.00     0.217 HD
ENDBRANCH  35  41
ENDBRANCH  27  30
ENDBRANCH  20  26
BRANCH  21  43
HETATM   43  S   UNK N   1      18.612  13.561   0.970  0.00  0.00     0.132 S 
HETATM   44  O   UNK N   1      17.969  12.788   2.130  0.00  0.00    -0.597 OA
HETATM   45  O   UNK N   1      18.644  12.449  -0.092  0.00  0.00    -0.597 OA
BRANCH  43  46
HETATM   46  O   UNK N   1      17.398  14.612   0.364  0.00  0.00    -0.292 OA
HETATM   47  H   UNK N   1      16.578  14.842   0.827  0.00  0.00     0.232 HD
ENDBRANCH  43  46
ENDBRANCH  21  43
BRANCH  23  48
HETATM   48  S   UNK N   1      20.666  18.173   3.444  0.00  0.00     0.133 S 
HETATM   49  O   UNK N   1      21.061  17.764   4.870  0.00  0.00    -0.597 OA
HETATM   50  O   UNK N   1      21.905  18.843   2.878  0.00  0.00    -0.597 OA
BRANCH  48  51
HETATM   51  O   UNK N   1      20.785  19.679   4.256  0.00  0.00    -0.292 OA
HETATM   52  H   UNK N   1      20.616  19.747   5.209  0.00  0.00     0.232 HD
ENDBRANCH  48  51
ENDBRANCH  23  48
ENDBRANCH   1  14
BRANCH   6  53
HETATM   53  C   UNK N   1      28.636  18.509   7.059  0.00  0.00     0.073 A 
HETATM   54  C   UNK N   1      29.150  17.416   6.257  0.00  0.00     0.110 A 
HETATM   55  C   UNK N   1      30.244  16.667   6.768  0.00  0.00     0.004 A 
HETATM   56  C   UNK N   1      30.876  17.032   7.967  0.00  0.00     0.011 A 
HETATM   57  C   UNK N   1      30.705  15.530   6.085  0.00  0.00     0.041 A 
HETATM   58  C   UNK N   1      30.412  18.127   8.686  0.00  0.00     0.017 A 
HETATM   59  C   UNK N   1      31.978  16.301   8.431  0.00  0.00     0.106 A 
HETATM   60  C   UNK N   1      29.298  18.826   8.250  0.00  0.00     0.032 A 
HETATM   61  C   UNK N   1      32.431  15.152   7.718  0.00  0.00     0.105 A 
HETATM   62  C   UNK N   1      31.767  14.768   6.552  0.00  0.00     0.104 A 
BRANCH  54  63
HETATM   63  S   UNK N   1      28.585  16.869   4.611  0.00  0.00     0.133 S 
HETATM   64  O   UNK N   1      28.871  15.492   4.015  0.00  0.00    -0.597 OA
HETATM   65  O   UNK N   1      27.067  16.718   4.786  0.00  0.00    -0.597 OA
BRANCH  63  66
HETATM   66  O   UNK N   1      28.601  18.012   3.326  0.00  0.00    -0.292 OA
HETATM   67  H   UNK N   1      29.380  18.395   2.895  0.00  0.00     0.232 HD
ENDBRANCH  63  66
ENDBRANCH  54  63
BRANCH  59  68
HETATM   68  O   UNK N   1      32.607  16.711   9.550  0.00  0.00    -0.357 OA
HETATM   69  H   UNK N   1      33.469  16.419   9.767  0.00  0.00     0.217 HD
ENDBRANCH  59  68
BRANCH  61  70
HETATM   70  N   UNK N   1      33.584  14.441   8.143  0.00  0.00    -0.296 N 
HETATM   71  N   UNK N   1      34.680  15.020   8.166  0.00  0.00    -0.297 N 
ATOM     72  HN  UNK N   1      34.766  15.925   8.629  1.00  0.00     0.187 HD
ATOM     73  HN  UNK N   1      33.512  13.463   8.424  1.00  0.00     0.187 HD
BRANCH  71  74
HETATM   74  C   UNK N   1      35.796  14.437   7.559  0.00  0.00     0.082 A 
HETATM   75  C   UNK N   1      36.618  13.734   8.411  0.00  0.00     0.059 A 
HETATM   76  C   UNK N   1      37.825  13.226   7.999  0.00  0.00     0.074 A 
HETATM   77  C   UNK N   1      38.236  13.401   6.671  0.00  0.00     0.028 A 
HETATM   78  C   UNK N   1      37.402  14.104   5.776  0.00  0.00     0.040 A 
HETATM   79  C   UNK N   1      36.180  14.642   6.223  0.00  0.00     0.093 A 
BRANCH  76  80
HETATM   80  S   UNK N   1      38.796  12.406   9.247  0.00  0.00     0.129 S 
HETATM   81  O   UNK N   1      38.877  13.297  10.500  0.00  0.00    -0.598 OA
HETATM   82  O   UNK N   1      38.040  11.196   9.814  0.00  0.00    -0.598 OA
BRANCH  80  83
HETATM   83  O   UNK N   1      40.406  11.885   8.979  0.00  0.00    -0.292 OA
HETATM   84  H   UNK N   1      41.280  12.305   8.974  0.00  0.00     0.232 HD
ENDBRANCH  80  83
ENDBRANCH  76  80
BRANCH  79  85
HETATM   85  O   UNK N   1      35.402  15.343   5.380  0.00  0.00    -0.358 OA
HETATM   86  H   UNK N   1      34.496  15.125   5.279  0.00  0.00     0.217 HD
ENDBRANCH  79  85
ENDBRANCH  71  74
ENDBRANCH  61  70
BRANCH  62  87
HETATM   87  S   UNK N   1      32.207  13.275   5.659  0.00  0.00     0.132 S 
HETATM   88  O   UNK N   1      30.945  12.627   5.069  0.00  0.00    -0.597 OA
HETATM   89  O   UNK N   1      32.689  12.150   6.588  0.00  0.00    -0.597 OA
BRANCH  87  90
HETATM   90  O   UNK N   1      33.327  13.331   4.362  0.00  0.00    -0.292 OA
HETATM   91  H   UNK N   1      33.601  13.584   3.467  0.00  0.00     0.232 HD
ENDBRANCH  87  90
ENDBRANCH  62  87
ENDBRANCH   6  53
TORSDOF 22
ENDMDL
