REMARK  11 active torsions:
REMARK  status: ('A' for Active; 'I' for Inactive)
REMARK    1  A    between atoms: N_2  and  C_3 
REMARK    2  A    between atoms: N_2  and  C_28 
REMARK    3  A    between atoms: C_3  and  C_4 
REMARK    4  A    between atoms: C_4  and  C_5 
REMARK    5  A    between atoms: C_5  and  C_6 
REMARK    6  A    between atoms: C_6  and  C_7 
REMARK    7  A    between atoms: C_7  and  C_8 
REMARK    8  A    between atoms: C_8  and  O_9 
REMARK    9  A    between atoms: O_9  and  C_10 
REMARK   10  A    between atoms: C_20  and  C_21 
REMARK   11  A    between atoms: C_28  and  C_29 
ROOT
HETATM    1  C   UNK N   1      -1.209  -0.473  -0.602  0.00  0.00     0.070 A 
HETATM    2  C   UNK N   1      -0.988  -1.879  -0.590  0.00  0.00     0.038 A 
HETATM    3  C   UNK N   1      -2.056  -2.772  -0.381  0.00  0.00     0.019 A 
HETATM    4  C   UNK N   1      -3.323  -2.230  -0.185  0.00  0.00     0.021 A 
HETATM    5  C   UNK N   1      -3.536  -0.882  -0.192  0.00  0.00     0.065 A 
HETATM    6  C   UNK N   1      -2.506   0.033  -0.396  0.00  0.00     0.068 A 
HETATM    7  N   UNK N   1      -4.841  -0.641   0.006  0.00  0.00    -0.295 N 
HETATM    8  C   UNK N   1      -5.490   0.658   0.060  0.00  0.00     0.178 C 
HETATM    9  N   UNK N   1      -5.482  -1.797   0.135  0.00  0.00    -0.297 N 
ATOM     10  HN  UNK N   1      -6.483  -1.913   0.293  1.00  0.00     0.187 HD
HETATM   11  C   UNK N   1      -4.572  -2.797   0.021  0.00  0.00     0.071 A 
ENDROOT
BRANCH   1  12
HETATM   12  O   UNK N   1      -0.196   0.402  -0.803  0.00  0.00    -0.351 OA
BRANCH  12  13
HETATM   13  C   UNK N   1       1.107   0.014  -1.022  0.00  0.00     0.175 C 
BRANCH  13  14
HETATM   14  C   UNK N   1       1.975   0.475   0.135  0.00  0.00     0.027 C 
BRANCH  14  15
HETATM   15  C   UNK N   1       1.768  -0.438   1.332  0.00  0.00     0.002 C 
BRANCH  15  16
HETATM   16  C   UNK N   1       2.945  -1.387   1.510  0.00  0.00     0.002 C 
BRANCH  16  17
HETATM   17  C   UNK N   1       2.991  -2.428   0.404  0.00  0.00     0.030 C 
BRANCH  17  18
HETATM   18  C   UNK N   1       3.973  -2.035  -0.709  0.00  0.00     0.272 C 
BRANCH  18  19
HETATM   19  N   UNK N   1       5.394  -2.274  -0.410  0.00  0.00     0.087 N 
HETATM   20  C   UNK N   1       5.613  -3.407   0.485  0.00  0.00     0.310 C 
BRANCH  19  21
HETATM   21  C   UNK N   1       6.002  -1.078   0.157  0.00  0.00     0.298 C 
BRANCH  21  22
HETATM   22  C   UNK N   1       7.450  -1.032  -0.220  0.00  0.00    -0.007 C 
HETATM   23  C   UNK N   1       8.219  -0.024   0.177  0.00  0.00     0.008 C 
ENDBRANCH  21  22
ENDBRANCH  19  21
ENDBRANCH  18  19
ENDBRANCH  17  18
ENDBRANCH  16  17
ENDBRANCH  15  16
ENDBRANCH  14  15
ENDBRANCH  13  14
ENDBRANCH  12  13
ENDBRANCH   1  12
BRANCH  11  24
HETATM   24  C   UNK N   1      -4.919  -4.231   0.075  0.00  0.00    -0.007 A 
HETATM   25  C   UNK N   1      -3.929  -5.217  -0.046  0.00  0.00     0.015 A 
HETATM   26  C   UNK N   1      -4.277  -6.571  -0.040  0.00  0.00     0.020 A 
HETATM   27  C   UNK N   1      -5.617  -6.947   0.082  0.00  0.00     0.011 A 
HETATM   28 Br   UNK N   1      -6.095  -8.791   0.057  0.00  0.00    -0.051 Br
HETATM   29  C   UNK N   1      -6.608  -5.971   0.210  0.00  0.00     0.020 A 
HETATM   30  C   UNK N   1      -6.260  -4.617   0.207  0.00  0.00     0.015 A 
ENDBRANCH  11  24
TORSDOF 11
