REMARK  30 active torsions:
REMARK  status: ('A' for Active; 'I' for Inactive)
REMARK    1  A    between atoms: C_6  and  C_4 
REMARK    2  A    between atoms: C_17  and  C_4 
REMARK    3  A    between atoms: C_7  and  C_5 
REMARK    4  A    between atoms: C_16  and  C_5 
REMARK    5  A    between atoms: C_21  and  C_6 
REMARK    6  A    between atoms: C_22  and  C_7 
REMARK    7  A    between atoms: C_19  and  C_10 
REMARK    8  A    between atoms: N_38  and  C_10 
REMARK    9  A    between atoms: C_20  and  C_11 
REMARK   10  A    between atoms: O_55  and  C_11 
REMARK   11  A    between atoms: C_25  and  C_12 
REMARK   12  A    between atoms: O_56  and  C_12 
REMARK   13  A    between atoms: O_39  and  C_14 
REMARK   14  A    between atoms: C_27  and  C_16 
REMARK   15  A    between atoms: C_16  and  N_30 
REMARK   16  A    between atoms: C_28  and  C_17 
REMARK   17  A    between atoms: C_17  and  N_32 
REMARK   18  A    between atoms: C_23  and  C_19 
REMARK   19  A    between atoms: C_19  and  O_40 
REMARK   20  A    between atoms: C_23  and  C_20 
REMARK   21  A    between atoms: C_20  and  O_41 
REMARK   22  A    between atoms: C_21  and  O_42 
REMARK   23  A    between atoms: O_44  and  C_22 
REMARK   24  A    between atoms: C_23  and  O_45 
REMARK   25  A    between atoms: C_25  and  O_46 
REMARK   26  A    between atoms: O_47  and  C_26 
REMARK   27  A    between atoms: O_49  and  C_27 
REMARK   28  A    between atoms: O_51  and  C_28 
REMARK   29  A    between atoms: P_57  and  O_55 
REMARK   30  A    between atoms: P_57  and  O_56 
ROOT
HETATM    1  O   UNK N   1      19.894  -5.529   2.500  0.00  0.00    -0.307 OA
HETATM    2  O   UNK N   1      18.835  -6.986   0.530  0.00  0.00    -0.631 OA
HETATM    3  P   UNK N   1      19.788  -5.782   0.785  0.00  0.00     0.393 P 
HETATM    4  H   UNK N   1      20.045  -5.510   3.458  0.00  0.00     0.222 HD
ENDROOT
BRANCH   3   5
HETATM    5  O   UNK N   1      21.344  -6.206   0.192  0.00  0.00    -0.294 OA
BRANCH   5   6
HETATM    6  C   UNK N   1      21.112  -6.739  -1.078  0.00  0.00     0.214 C 
BRANCH   6   7
HETATM    7  C   UNK N   1      22.085  -7.869  -1.275  0.00  0.00     0.173 C 
BRANCH   7   8
HETATM    8  C   UNK N   1      21.833  -8.980  -0.222  0.00  0.00     0.179 C 
BRANCH   8   9
HETATM    9  C   UNK N   1      23.022  -9.938  -0.069  0.00  0.00     0.167 C 
BRANCH   9  10
HETATM   10  C   UNK N   1      24.037  -9.314   0.912  0.00  0.00     0.165 C 
BRANCH  10  11
HETATM   11  N   UNK N   1      25.436  -9.386   0.487  0.00  0.00    -0.329 N 
HETATM   12  C   UNK N   1      26.135  -8.217   0.300  0.00  0.00     0.049 A 
HETATM   13  C   UNK N   1      25.532  -6.966   0.526  0.00  0.00     0.067 A 
HETATM   14  C   UNK N   1      27.479  -8.257  -0.128  0.00  0.00    -0.008 A 
HETATM   15  C   UNK N   1      26.238  -5.784   0.313  0.00  0.00     0.067 A 
HETATM   16  C   UNK N   1      27.565  -5.833  -0.119  0.00  0.00     0.037 A 
HETATM   17  C   UNK N   1      28.187  -7.068  -0.336  0.00  0.00     0.016 A 
HETATM   18  C   UNK N   1      28.094  -9.485  -0.349  0.00  0.00     0.033 A 
HETATM   19  C   UNK N   1      27.379 -10.666  -0.138  0.00  0.00     0.060 A 
HETATM   20  C   UNK N   1      26.040 -10.601   0.291  0.00  0.00     0.126 A 
HETATM   21  C   UNK N   1      27.961 -11.921  -0.350  0.00  0.00     0.158 A 
HETATM   22  N   UNK N   1      25.349 -11.758   0.498  0.00  0.00    -0.293 N 
HETATM   23  C   UNK N   1      25.934 -12.976   0.287  0.00  0.00     0.327 A 
ATOM     24  HN  UNK N   1      24.381 -11.714   0.816  1.00  0.00     0.172 HD
HETATM   25  N   UNK N   1      27.233 -13.049  -0.137  0.00  0.00    -0.288 N 
HETATM   26  O   UNK N   1      25.295 -13.996   0.473  0.00  0.00    -0.247 OA
ATOM     27  HN  UNK N   1      27.660 -13.962  -0.294  1.00  0.00     0.172 HD
BRANCH  15  28
HETATM   28  O   UNK N   1      25.638  -4.599   0.517  0.00  0.00    -0.361 OA
HETATM   29  H   UNK N   1      26.145  -3.824   0.659  0.00  0.00     0.217 HD
ENDBRANCH  15  28
BRANCH  21  30
HETATM   30  O   UNK N   1      29.235 -12.024  -0.769  0.00  0.00    -0.345 OA
HETATM   31  H   UNK N   1      29.617 -12.828  -1.060  0.00  0.00     0.219 HD
ENDBRANCH  21  30
ENDBRANCH  10  11
ENDBRANCH   9  10
BRANCH   9  32
HETATM   32  O   UNK N   1      23.578 -10.237  -1.319  0.00  0.00    -0.391 OA
HETATM   33  H   UNK N   1      23.591 -10.674  -2.185  0.00  0.00     0.210 HD
ENDBRANCH   9  32
ENDBRANCH   8   9
BRANCH   8  34
HETATM   34  O   UNK N   1      20.689  -9.690  -0.594  0.00  0.00    -0.390 OA
HETATM   35  H   UNK N   1      19.865  -9.249  -0.853  0.00  0.00     0.210 HD
ENDBRANCH   8  34
ENDBRANCH   7   8
BRANCH   7  36
HETATM   36  O   UNK N   1      23.367  -7.334  -1.179  0.00  0.00    -0.391 OA
HETATM   37  H   UNK N   1      24.136  -7.921  -1.113  0.00  0.00     0.210 HD
ENDBRANCH   7  36
ENDBRANCH   6   7
ENDBRANCH   5   6
ENDBRANCH   3   5
BRANCH   3  38
HETATM   38  O   UNK N   1      19.302  -4.354  -0.124  0.00  0.00    -0.284 OA
BRANCH  38  39
HETATM   39  C   UNK N   1      18.006  -3.924   0.215  0.00  0.00     0.203 C 
HETATM   40  C   UNK N   1      17.873  -3.725   1.725  0.00  0.00     0.049 C 
BRANCH  39  41
HETATM   41  C   UNK N   1      16.958  -4.794  -0.460  0.00  0.00     0.142 C 
HETATM   42  N   UNK N   1      15.688  -4.603  -0.346  0.00  0.00    -0.358 N 
ATOM     43  HN  UNK N   1      15.101  -5.195  -0.934  1.00  0.00     0.162 HD
BRANCH  42  44
HETATM   44  C   UNK N   1      14.977  -3.667   0.497  0.00  0.00     0.181 C 
BRANCH  44  45
HETATM   45  C   UNK N   1      13.800  -4.412   1.157  0.00  0.00     0.044 C 
BRANCH  45  46
HETATM   46  C   UNK N   1      12.881  -5.112   0.150  0.00  0.00     0.086 C 
BRANCH  46  47
HETATM   47  C   UNK N   1      13.230  -6.555  -0.120  0.00  0.00     0.112 C 
HETATM   48  N   UNK N   1      12.291  -7.440  -0.133  0.00  0.00    -0.360 N 
ATOM     49  HN  UNK N   1      11.352  -7.150   0.140  1.00  0.00     0.162 HD
BRANCH  48  50
HETATM   50  C   UNK N   1      12.497  -8.832  -0.515  0.00  0.00     0.181 C 
BRANCH  50  51
HETATM   51  C   UNK N   1      11.131  -9.469  -0.776  0.00  0.00     0.046 C 
BRANCH  51  52
HETATM   52  C   UNK N   1      10.250  -9.507   0.466  0.00  0.00     0.112 C 
BRANCH  52  53
HETATM   53  C   UNK N   1       8.853  -9.127   0.118  0.00  0.00     0.139 C 
HETATM   54  O   UNK N   1       7.957  -9.948   0.212  0.00  0.00    -0.650 OA
BRANCH  53  55
HETATM   55  O   UNK N   1       8.576  -7.871  -0.280  0.00  0.00    -0.776 OA
HETATM   56  H   UNK N   1       9.236  -7.266  -0.557  0.00  0.00     0.167 HD
ENDBRANCH  53  55
ENDBRANCH  52  53
ENDBRANCH  51  52
ENDBRANCH  50  51
BRANCH  50  57
HETATM   57  C   UNK N   1      13.317  -9.619   0.496  0.00  0.00     0.163 C 
HETATM   58  O   UNK N   1      14.455  -9.273   0.768  0.00  0.00    -0.648 OA
BRANCH  57  59
HETATM   59  O   UNK N   1      12.820 -10.737   1.062  0.00  0.00    -0.775 OA
HETATM   60  H   UNK N   1      11.974 -10.827   1.455  0.00  0.00     0.167 HD
ENDBRANCH  57  59
ENDBRANCH  50  57
ENDBRANCH  48  50
BRANCH  47  61
HETATM   61  O   UNK N   1      14.488  -6.899  -0.460  0.00  0.00    -0.350 OA
HETATM   62  H   UNK N   1      14.718  -7.776  -0.696  0.00  0.00     0.219 HD
ENDBRANCH  47  61
ENDBRANCH  46  47
ENDBRANCH  45  46
ENDBRANCH  44  45
BRANCH  44  63
HETATM   63  C   UNK N   1      14.596  -2.462  -0.320  0.00  0.00     0.163 C 
HETATM   64  O   UNK N   1      13.429  -2.133  -0.450  0.00  0.00    -0.648 OA
BRANCH  63  65
HETATM   65  O   UNK N   1      15.564  -1.724  -0.899  0.00  0.00    -0.775 OA
HETATM   66  H   UNK N   1      16.344  -2.051  -1.302  0.00  0.00     0.167 HD
ENDBRANCH  63  65
ENDBRANCH  44  63
ENDBRANCH  42  44
BRANCH  41  67
HETATM   67  O   UNK N   1      17.369  -5.773  -1.292  0.00  0.00    -0.348 OA
HETATM   68  H   UNK N   1      16.923  -6.360  -1.869  0.00  0.00     0.219 HD
ENDBRANCH  41  67
ENDBRANCH  39  41
ENDBRANCH  38  39
ENDBRANCH   3  38
TORSDOF 30
