MODEL 1
REMARK VINA RESULT:      -4.3      0.000      0.000
REMARK  7 active torsions:
REMARK  status: ('A' for Active; 'I' for Inactive)
REMARK    1  A    between atoms: C_2  and  N_1 
REMARK    2  A    between atoms: C_2  and  C_3 
REMARK    3  A    between atoms: C_2  and  C_8 
REMARK    4  A    between atoms: C_3  and  C_4 
REMARK    5  A    between atoms: C_4  and  C_5 
REMARK    6  A    between atoms: C_5  and  C_6 
REMARK    7  A    between atoms: C_6  and  N_7 
REMARK       I    between atoms: C_8  and  N_9 
ROOT
HETATM    1  C   UNK N   1      33.082  17.271   8.390  0.00  0.00     0.167 C 
ENDROOT
BRANCH   1   2
HETATM    2  N   UNK N   1      33.350  16.398   9.524  0.00  0.00    -0.418 N 
HETATM    3  H   UNK N   1      33.087  15.413   9.483  0.00  0.00     0.150 HD
HETATM    4  H   UNK N   1      33.799  16.771  10.360  0.00  0.00     0.150 HD
ENDBRANCH   1   2
BRANCH   1   5
HETATM    5  C   UNK N   1      31.677  17.374   7.809  0.00  0.00     0.034 C 
BRANCH   5   6
HETATM    6  C   UNK N   1      30.552  17.202   8.809  0.00  0.00     0.004 C 
BRANCH   6   7
HETATM    7  C   UNK N   1      30.004  18.589   9.072  0.00  0.00     0.027 C 
BRANCH   7   8
HETATM    8  C   UNK N   1      28.728  18.835   8.302  0.00  0.00     0.229 C 
BRANCH   8   9
HETATM    9  N   UNK N   1      27.605  18.387   9.107  0.00  0.00    -0.079 N 
HETATM   10  H   UNK N   1      27.496  17.396   9.322  0.00  0.00     0.274 HD
HETATM   11  H   UNK N   1      26.927  19.064   9.458  0.00  0.00     0.274 HD
HETATM   12  H   UNK N   1      26.817  18.073   9.673  0.00  0.00     0.274 HD
ENDBRANCH   8   9
ENDBRANCH   7   8
ENDBRANCH   6   7
ENDBRANCH   5   6
ENDBRANCH   1   5
BRANCH   1  13
HETATM   13  C   UNK N   1      34.209  18.060   7.796  0.00  0.00     0.237 C 
HETATM   14  N   UNK N   1      34.945  18.884   8.568  0.00  0.00    -0.368 N 
HETATM   15  H   UNK N   1      35.683  19.402   8.172  0.00  0.00     0.159 HD
HETATM   16  H   UNK N   1      34.745  18.969   9.529  0.00  0.00     0.159 HD
HETATM   17  O   UNK N   1      34.461  17.960   6.608  0.00  0.00    -0.271 OA
ENDBRANCH   1  13
TORSDOF 7
ENDMDL
MODEL 2
REMARK VINA RESULT:      -4.2      9.053     10.116
REMARK  7 active torsions:
REMARK  status: ('A' for Active; 'I' for Inactive)
REMARK    1  A    between atoms: C_2  and  N_1 
REMARK    2  A    between atoms: C_2  and  C_3 
REMARK    3  A    between atoms: C_2  and  C_8 
REMARK    4  A    between atoms: C_3  and  C_4 
REMARK    5  A    between atoms: C_4  and  C_5 
REMARK    6  A    between atoms: C_5  and  C_6 
REMARK    7  A    between atoms: C_6  and  N_7 
REMARK       I    between atoms: C_8  and  N_9 
ROOT
HETATM    1  C   UNK N   1      36.047  13.742  14.833  0.00  0.00     0.167 C 
ENDROOT
BRANCH   1   2
HETATM    2  N   UNK N   1      37.260  14.306  15.409  0.00  0.00    -0.418 N 
HETATM    3  H   UNK N   1      37.254  14.657  16.367  0.00  0.00     0.150 HD
HETATM    4  H   UNK N   1      38.114  14.352  14.855  0.00  0.00     0.150 HD
ENDBRANCH   1   2
BRANCH   1   5
HETATM    5  C   UNK N   1      34.974  13.137  15.731  0.00  0.00     0.034 C 
BRANCH   5   6
HETATM    6  C   UNK N   1      35.491  12.441  16.973  0.00  0.00     0.004 C 
BRANCH   6   7
HETATM    7  C   UNK N   1      35.131  13.336  18.141  0.00  0.00     0.027 C 
BRANCH   7   8
HETATM    8  C   UNK N   1      35.262  12.607  19.457  0.00  0.00     0.229 C 
BRANCH   8   9
HETATM    9  N   UNK N   1      34.646  13.412  20.497  0.00  0.00    -0.079 N 
HETATM   10  H   UNK N   1      34.959  13.320  21.464  0.00  0.00     0.274 HD
HETATM   11  H   UNK N   1      33.902  14.069  20.261  0.00  0.00     0.274 HD
HETATM   12  H   UNK N   1      34.214  13.977  21.227  0.00  0.00     0.274 HD
ENDBRANCH   8   9
ENDBRANCH   7   8
ENDBRANCH   6   7
ENDBRANCH   5   6
ENDBRANCH   1   5
BRANCH   1  13
HETATM   13  C   UNK N   1      35.872  13.757  13.345  0.00  0.00     0.237 C 
HETATM   14  N   UNK N   1      36.947  13.765  12.532  0.00  0.00    -0.368 N 
HETATM   15  H   UNK N   1      36.825  13.776  11.555  0.00  0.00     0.159 HD
HETATM   16  H   UNK N   1      37.854  13.759  12.914  0.00  0.00     0.159 HD
HETATM   17  O   UNK N   1      34.752  13.765  12.865  0.00  0.00    -0.271 OA
ENDBRANCH   1  13
TORSDOF 7
ENDMDL
MODEL 3
REMARK VINA RESULT:      -4.1      4.908      7.095
REMARK  7 active torsions:
REMARK  status: ('A' for Active; 'I' for Inactive)
REMARK    1  A    between atoms: C_2  and  N_1 
REMARK    2  A    between atoms: C_2  and  C_3 
REMARK    3  A    between atoms: C_2  and  C_8 
REMARK    4  A    between atoms: C_3  and  C_4 
REMARK    5  A    between atoms: C_4  and  C_5 
REMARK    6  A    between atoms: C_5  and  C_6 
REMARK    7  A    between atoms: C_6  and  N_7 
REMARK       I    between atoms: C_8  and  N_9 
ROOT
HETATM    1  C   UNK N   1      34.518  15.146  11.059  0.00  0.00     0.167 C 
ENDROOT
BRANCH   1   2
HETATM    2  N   UNK N   1      33.129  14.974  10.658  0.00  0.00    -0.418 N 
HETATM    3  H   UNK N   1      32.806  14.069  10.315  0.00  0.00     0.150 HD
HETATM    4  H   UNK N   1      32.480  15.757  10.720  0.00  0.00     0.150 HD
ENDBRANCH   1   2
BRANCH   1   5
HETATM    5  C   UNK N   1      35.192  14.128  11.971  0.00  0.00     0.034 C 
BRANCH   5   6
HETATM    6  C   UNK N   1      35.861  12.970  11.260  0.00  0.00     0.004 C 
BRANCH   6   7
HETATM    7  C   UNK N   1      37.323  13.019  11.653  0.00  0.00     0.027 C 
BRANCH   7   8
HETATM    8  C   UNK N   1      38.222  13.047  10.440  0.00  0.00     0.229 C 
BRANCH   8   9
HETATM    9  N   UNK N   1      38.471  14.430  10.077  0.00  0.00    -0.079 N 
HETATM   10  H   UNK N   1      37.726  15.122  10.165  0.00  0.00     0.274 HD
HETATM   11  H   UNK N   1      39.390  14.710   9.733  0.00  0.00     0.274 HD
HETATM   12  H   UNK N   1      38.645  15.402   9.821  0.00  0.00     0.274 HD
ENDBRANCH   8   9
ENDBRANCH   7   8
ENDBRANCH   6   7
ENDBRANCH   5   6
ENDBRANCH   1   5
BRANCH   1  13
HETATM   13  C   UNK N   1      35.275  16.344  10.568  0.00  0.00     0.237 C 
HETATM   14  N   UNK N   1      34.639  17.323   9.895  0.00  0.00    -0.368 N 
HETATM   15  H   UNK N   1      35.141  18.107   9.574  0.00  0.00     0.159 HD
HETATM   16  H   UNK N   1      33.671  17.256   9.724  0.00  0.00     0.159 HD
HETATM   17  O   UNK N   1      36.472  16.434  10.777  0.00  0.00    -0.271 OA
ENDBRANCH   1  13
TORSDOF 7
ENDMDL
MODEL 4
REMARK VINA RESULT:      -4.1     15.613     16.753
REMARK  7 active torsions:
REMARK  status: ('A' for Active; 'I' for Inactive)
REMARK    1  A    between atoms: C_2  and  N_1 
REMARK    2  A    between atoms: C_2  and  C_3 
REMARK    3  A    between atoms: C_2  and  C_8 
REMARK    4  A    between atoms: C_3  and  C_4 
REMARK    5  A    between atoms: C_4  and  C_5 
REMARK    6  A    between atoms: C_5  and  C_6 
REMARK    7  A    between atoms: C_6  and  N_7 
REMARK       I    between atoms: C_8  and  N_9 
ROOT
HETATM    1  C   UNK N   1      25.859  24.524  -5.679  0.00  0.00     0.167 C 
ENDROOT
BRANCH   1   2
HETATM    2  N   UNK N   1      25.282  23.291  -6.194  0.00  0.00    -0.418 N 
HETATM    3  H   UNK N   1      25.789  22.743  -6.890  0.00  0.00     0.150 HD
HETATM    4  H   UNK N   1      24.372  22.975  -5.861  0.00  0.00     0.150 HD
ENDBRANCH   1   2
BRANCH   1   5
HETATM    5  C   UNK N   1      25.608  25.850  -6.386  0.00  0.00     0.034 C 
BRANCH   5   6
HETATM    6  C   UNK N   1      24.982  26.930  -5.528  0.00  0.00     0.004 C 
BRANCH   6   7
HETATM    7  C   UNK N   1      26.063  27.964  -5.292  0.00  0.00     0.027 C 
BRANCH   7   8
HETATM    8  C   UNK N   1      25.920  28.616  -3.938  0.00  0.00     0.229 C 
BRANCH   8   9
HETATM    9  N   UNK N   1      25.817  27.576  -2.929  0.00  0.00    -0.079 N 
HETATM   10  H   UNK N   1      25.985  27.800  -1.948  0.00  0.00     0.274 HD
HETATM   11  H   UNK N   1      25.577  26.624  -3.202  0.00  0.00     0.274 HD
HETATM   12  H   UNK N   1      25.745  26.846  -2.221  0.00  0.00     0.274 HD
ENDBRANCH   8   9
ENDBRANCH   7   8
ENDBRANCH   6   7
ENDBRANCH   5   6
ENDBRANCH   1   5
BRANCH   1  13
HETATM   13  C   UNK N   1      26.710  24.471  -4.446  0.00  0.00     0.237 C 
HETATM   14  N   UNK N   1      28.052  24.393  -4.547  0.00  0.00    -0.368 N 
HETATM   15  H   UNK N   1      28.606  24.357  -3.734  0.00  0.00     0.159 HD
HETATM   16  H   UNK N   1      28.479  24.372  -5.434  0.00  0.00     0.159 HD
HETATM   17  O   UNK N   1      26.188  24.497  -3.345  0.00  0.00    -0.271 OA
ENDBRANCH   1  13
TORSDOF 7
ENDMDL
MODEL 5
REMARK VINA RESULT:      -4.0      7.878      8.940
REMARK  7 active torsions:
REMARK  status: ('A' for Active; 'I' for Inactive)
REMARK    1  A    between atoms: C_2  and  N_1 
REMARK    2  A    between atoms: C_2  and  C_3 
REMARK    3  A    between atoms: C_2  and  C_8 
REMARK    4  A    between atoms: C_3  and  C_4 
REMARK    5  A    between atoms: C_4  and  C_5 
REMARK    6  A    between atoms: C_5  and  C_6 
REMARK    7  A    between atoms: C_6  and  N_7 
REMARK       I    between atoms: C_8  and  N_9 
ROOT
HETATM    1  C   UNK N   1      35.995  13.569  14.695  0.00  0.00     0.167 C 
ENDROOT
BRANCH   1   2
HETATM    2  N   UNK N   1      37.245  13.980  15.318  0.00  0.00    -0.418 N 
HETATM    3  H   UNK N   1      37.251  14.741  15.997  0.00  0.00     0.150 HD
HETATM    4  H   UNK N   1      38.115  13.507  15.076  0.00  0.00     0.150 HD
ENDBRANCH   1   2
BRANCH   1   5
HETATM    5  C   UNK N   1      34.877  12.962  15.533  0.00  0.00     0.034 C 
BRANCH   5   6
HETATM    6  C   UNK N   1      34.892  11.450  15.630  0.00  0.00     0.004 C 
BRANCH   6   7
HETATM    7  C   UNK N   1      33.785  10.957  14.722  0.00  0.00     0.027 C 
BRANCH   7   8
HETATM    8  C   UNK N   1      34.335  10.177  13.551  0.00  0.00     0.229 C 
BRANCH   8   9
HETATM    9  N   UNK N   1      33.872  10.796  12.322  0.00  0.00    -0.079 N 
HETATM   10  H   UNK N   1      34.518  10.926  11.543  0.00  0.00     0.274 HD
HETATM   11  H   UNK N   1      32.902  11.100  12.238  0.00  0.00     0.274 HD
HETATM   12  H   UNK N   1      33.548  11.230  11.458  0.00  0.00     0.274 HD
ENDBRANCH   8   9
ENDBRANCH   7   8
ENDBRANCH   6   7
ENDBRANCH   5   6
ENDBRANCH   1   5
BRANCH   1  13
HETATM   13  C   UNK N   1      35.826  13.744  13.216  0.00  0.00     0.237 C 
HETATM   14  N   UNK N   1      36.899  13.943  12.426  0.00  0.00    -0.368 N 
HETATM   15  H   UNK N   1      36.782  14.058  11.455  0.00  0.00     0.159 HD
HETATM   16  H   UNK N   1      37.802  13.972  12.819  0.00  0.00     0.159 HD
HETATM   17  O   UNK N   1      34.712  13.708  12.724  0.00  0.00    -0.271 OA
ENDBRANCH   1  13
TORSDOF 7
ENDMDL
MODEL 6
REMARK VINA RESULT:      -3.9     11.280     13.125
REMARK  7 active torsions:
REMARK  status: ('A' for Active; 'I' for Inactive)
REMARK    1  A    between atoms: C_2  and  N_1 
REMARK    2  A    between atoms: C_2  and  C_3 
REMARK    3  A    between atoms: C_2  and  C_8 
REMARK    4  A    between atoms: C_3  and  C_4 
REMARK    5  A    between atoms: C_4  and  C_5 
REMARK    6  A    between atoms: C_5  and  C_6 
REMARK    7  A    between atoms: C_6  and  N_7 
REMARK       I    between atoms: C_8  and  N_9 
ROOT
HETATM    1  C   UNK N   1      44.268  22.139   3.706  0.00  0.00     0.167 C 
ENDROOT
BRANCH   1   2
HETATM    2  N   UNK N   1      45.651  22.031   4.147  0.00  0.00    -0.418 N 
HETATM    3  H   UNK N   1      45.864  21.662   5.073  0.00  0.00     0.150 HD
HETATM    4  H   UNK N   1      46.407  22.326   3.530  0.00  0.00     0.150 HD
ENDBRANCH   1   2
BRANCH   1   5
HETATM    5  C   UNK N   1      43.317  20.956   3.847  0.00  0.00     0.034 C 
BRANCH   5   6
HETATM    6  C   UNK N   1      43.282  20.013   2.662  0.00  0.00     0.004 C 
BRANCH   6   7
HETATM    7  C   UNK N   1      41.892  19.413   2.640  0.00  0.00     0.027 C 
BRANCH   7   8
HETATM    8  C   UNK N   1      40.928  20.217   3.480  0.00  0.00     0.229 C 
BRANCH   8   9
HETATM    9  N   UNK N   1      39.865  20.713   2.624  0.00  0.00    -0.079 N 
HETATM   10  H   UNK N   1      40.056  20.918   1.643  0.00  0.00     0.274 HD
HETATM   11  H   UNK N   1      38.929  20.855   3.003  0.00  0.00     0.274 HD
HETATM   12  H   UNK N   1      39.119  21.061   2.023  0.00  0.00     0.274 HD
ENDBRANCH   8   9
ENDBRANCH   7   8
ENDBRANCH   6   7
ENDBRANCH   5   6
ENDBRANCH   1   5
BRANCH   1  13
HETATM   13  C   UNK N   1      43.792  23.426   3.104  0.00  0.00     0.237 C 
HETATM   14  N   UNK N   1      42.546  23.524   2.600  0.00  0.00    -0.368 N 
HETATM   15  H   UNK N   1      42.239  24.372   2.204  0.00  0.00     0.159 HD
HETATM   16  H   UNK N   1      41.941  22.747   2.626  0.00  0.00     0.159 HD
HETATM   17  O   UNK N   1      44.535  24.391   3.068  0.00  0.00    -0.271 OA
ENDBRANCH   1  13
TORSDOF 7
ENDMDL
MODEL 7
REMARK VINA RESULT:      -3.9      3.281      4.182
REMARK  7 active torsions:
REMARK  status: ('A' for Active; 'I' for Inactive)
REMARK    1  A    between atoms: C_2  and  N_1 
REMARK    2  A    between atoms: C_2  and  C_3 
REMARK    3  A    between atoms: C_2  and  C_8 
REMARK    4  A    between atoms: C_3  and  C_4 
REMARK    5  A    between atoms: C_4  and  C_5 
REMARK    6  A    between atoms: C_5  and  C_6 
REMARK    7  A    between atoms: C_6  and  N_7 
REMARK       I    between atoms: C_8  and  N_9 
ROOT
HETATM    1  C   UNK N   1      32.998  17.603   8.089  0.00  0.00     0.167 C 
ENDROOT
BRANCH   1   2
HETATM    2  N   UNK N   1      31.750  18.020   8.712  0.00  0.00    -0.418 N 
HETATM    3  H   UNK N   1      31.487  19.006   8.717  0.00  0.00     0.150 HD
HETATM    4  H   UNK N   1      31.139  17.328   9.144  0.00  0.00     0.150 HD
ENDBRANCH   1   2
BRANCH   1   5
HETATM    5  C   UNK N   1      32.984  16.773   6.811  0.00  0.00     0.034 C 
BRANCH   5   6
HETATM    6  C   UNK N   1      33.572  17.456   5.594  0.00  0.00     0.004 C 
BRANCH   6   7
HETATM    7  C   UNK N   1      32.449  17.563   4.584  0.00  0.00     0.027 C 
BRANCH   7   8
HETATM    8  C   UNK N   1      32.811  16.894   3.280  0.00  0.00     0.229 C 
BRANCH   8   9
HETATM    9  N   UNK N   1      31.731  17.105   2.332  0.00  0.00    -0.079 N 
HETATM   10  H   UNK N   1      30.770  17.181   2.665  0.00  0.00     0.274 HD
HETATM   11  H   UNK N   1      31.934  17.179   1.335  0.00  0.00     0.274 HD
HETATM   12  H   UNK N   1      30.973  17.254   1.667  0.00  0.00     0.274 HD
ENDBRANCH   8   9
ENDBRANCH   7   8
ENDBRANCH   6   7
ENDBRANCH   5   6
ENDBRANCH   1   5
BRANCH   1  13
HETATM   13  C   UNK N   1      34.296  17.994   8.727  0.00  0.00     0.237 C 
HETATM   14  N   UNK N   1      34.768  17.310   9.789  0.00  0.00    -0.368 N 
HETATM   15  H   UNK N   1      35.621  17.572  10.204  0.00  0.00     0.159 HD
HETATM   16  H   UNK N   1      34.259  16.548  10.149  0.00  0.00     0.159 HD
HETATM   17  O   UNK N   1      34.931  18.936   8.286  0.00  0.00    -0.271 OA
ENDBRANCH   1  13
TORSDOF 7
ENDMDL
MODEL 8
REMARK VINA RESULT:      -3.8      3.749      5.780
REMARK  7 active torsions:
REMARK  status: ('A' for Active; 'I' for Inactive)
REMARK    1  A    between atoms: C_2  and  N_1 
REMARK    2  A    between atoms: C_2  and  C_3 
REMARK    3  A    between atoms: C_2  and  C_8 
REMARK    4  A    between atoms: C_3  and  C_4 
REMARK    5  A    between atoms: C_4  and  C_5 
REMARK    6  A    between atoms: C_5  and  C_6 
REMARK    7  A    between atoms: C_6  and  N_7 
REMARK       I    between atoms: C_8  and  N_9 
ROOT
HETATM    1  C   UNK N   1      34.702  16.982   9.283  0.00  0.00     0.167 C 
ENDROOT
BRANCH   1   2
HETATM    2  N   UNK N   1      35.104  17.234  10.659  0.00  0.00    -0.418 N 
HETATM    3  H   UNK N   1      35.247  18.192  10.981  0.00  0.00     0.150 HD
HETATM    4  H   UNK N   1      35.243  16.455  11.301  0.00  0.00     0.150 HD
ENDBRANCH   1   2
BRANCH   1   5
HETATM    5  C   UNK N   1      34.434  15.560   8.804  0.00  0.00     0.034 C 
BRANCH   5   6
HETATM    6  C   UNK N   1      35.655  14.666   8.727  0.00  0.00     0.004 C 
BRANCH   6   7
HETATM    7  C   UNK N   1      35.568  13.727   9.912  0.00  0.00     0.027 C 
BRANCH   7   8
HETATM    8  C   UNK N   1      36.903  13.586  10.604  0.00  0.00     0.229 C 
BRANCH   8   9
HETATM    9  N   UNK N   1      37.693  14.775  10.340  0.00  0.00    -0.079 N 
HETATM   10  H   UNK N   1      38.683  14.795  10.588  0.00  0.00     0.274 HD
HETATM   11  H   UNK N   1      37.258  15.590   9.906  0.00  0.00     0.274 HD
HETATM   12  H   UNK N   1      38.248  15.610  10.154  0.00  0.00     0.274 HD
ENDBRANCH   8   9
ENDBRANCH   7   8
ENDBRANCH   6   7
ENDBRANCH   5   6
ENDBRANCH   1   5
BRANCH   1  13
HETATM   13  C   UNK N   1      34.563  18.138   8.340  0.00  0.00     0.237 C 
HETATM   14  N   UNK N   1      33.687  18.082   7.316  0.00  0.00    -0.368 N 
HETATM   15  H   UNK N   1      33.601  18.845   6.699  0.00  0.00     0.159 HD
HETATM   16  H   UNK N   1      33.133  17.279   7.185  0.00  0.00     0.159 HD
HETATM   17  O   UNK N   1      35.245  19.136   8.496  0.00  0.00    -0.271 OA
ENDBRANCH   1  13
TORSDOF 7
ENDMDL
MODEL 9
REMARK VINA RESULT:      -3.8      5.171      7.052
REMARK  7 active torsions:
REMARK  status: ('A' for Active; 'I' for Inactive)
REMARK    1  A    between atoms: C_2  and  N_1 
REMARK    2  A    between atoms: C_2  and  C_3 
REMARK    3  A    between atoms: C_2  and  C_8 
REMARK    4  A    between atoms: C_3  and  C_4 
REMARK    5  A    between atoms: C_4  and  C_5 
REMARK    6  A    between atoms: C_5  and  C_6 
REMARK    7  A    between atoms: C_6  and  N_7 
REMARK       I    between atoms: C_8  and  N_9 
ROOT
HETATM    1  C   UNK N   1      34.785  15.553  11.094  0.00  0.00     0.167 C 
ENDROOT
BRANCH   1   2
HETATM    2  N   UNK N   1      33.559  14.786  10.926  0.00  0.00    -0.418 N 
HETATM    3  H   UNK N   1      32.678  15.266  10.741  0.00  0.00     0.150 HD
HETATM    4  H   UNK N   1      33.580  13.769  10.995  0.00  0.00     0.150 HD
ENDBRANCH   1   2
BRANCH   1   5
HETATM    5  C   UNK N   1      35.857  15.092  12.073  0.00  0.00     0.034 C 
BRANCH   5   6
HETATM    6  C   UNK N   1      36.216  13.623  11.991  0.00  0.00     0.004 C 
BRANCH   6   7
HETATM    7  C   UNK N   1      35.633  12.975  13.230  0.00  0.00     0.027 C 
BRANCH   7   8
HETATM    8  C   UNK N   1      36.050  13.704  14.485  0.00  0.00     0.229 C 
BRANCH   8   9
HETATM    9  N   UNK N   1      37.370  13.242  14.874  0.00  0.00    -0.079 N 
HETATM   10  H   UNK N   1      37.823  12.494  14.349  0.00  0.00     0.274 HD
HETATM   11  H   UNK N   1      37.844  13.665  15.672  0.00  0.00     0.274 HD
HETATM   12  H   UNK N   1      38.297  12.918  15.148  0.00  0.00     0.274 HD
ENDBRANCH   8   9
ENDBRANCH   7   8
ENDBRANCH   6   7
ENDBRANCH   5   6
ENDBRANCH   1   5
BRANCH   1  13
HETATM   13  C   UNK N   1      34.975  16.807  10.295  0.00  0.00     0.237 C 
HETATM   14  N   UNK N   1      34.013  17.230   9.451  0.00  0.00    -0.368 N 
HETATM   15  H   UNK N   1      34.144  18.054   8.928  0.00  0.00     0.159 HD
HETATM   16  H   UNK N   1      33.179  16.715   9.356  0.00  0.00     0.159 HD
HETATM   17  O   UNK N   1      36.005  17.449  10.407  0.00  0.00    -0.271 OA
ENDBRANCH   1  13
TORSDOF 7
ENDMDL
