REMARK  18 active torsions:
REMARK  status: ('A' for Active; 'I' for Inactive)
REMARK    1  A    between atoms: C_13  and  C_11 
REMARK    2  A    between atoms: C_37  and  C_13 
REMARK    3  A    between atoms: C_16  and  C_15 
REMARK    4  A    between atoms: C_27  and  C_15 
REMARK    5  A    between atoms: C_35  and  C_16 
REMARK    6  A    between atoms: N_51  and  C_17 
REMARK    7  A    between atoms: C_38  and  C_21 
REMARK    8  A    between atoms: C_39  and  C_21 
REMARK    9  A    between atoms: N_51  and  C_25 
REMARK   10  A    between atoms: O_52  and  C_25 
REMARK   11  A    between atoms: C_38  and  C_27 
REMARK   12  A    between atoms: C_35  and  C_28 
REMARK   13  A    between atoms: C_37  and  C_28 
REMARK   14  A    between atoms: C_30  and  O_53 
REMARK   15  A    between atoms: C_31  and  O_54 
REMARK   16  A    between atoms: C_37  and  O_58 
REMARK   17  A    between atoms: C_38  and  O_59 
REMARK   18  A    between atoms: C_42  and  O_60 
ROOT
HETATM    1  C   UNK N   1      17.469   5.093  -2.193  0.00  0.00     0.012 C 
HETATM    2  C   UNK N   1      22.337   6.909  -0.141  0.00  0.00     0.021 C 
HETATM    3  C   UNK N   1      16.064   2.273  -0.966  0.00  0.00     0.028 C 
HETATM    4  C   UNK N   1      16.263   1.039  -0.164  0.00  0.00    -0.022 C 
HETATM    5  C   UNK N   1      17.432   2.969  -0.855  0.00  0.00     0.010 C 
HETATM    6  C   UNK N   1      16.532  -0.104  -0.794  0.00  0.00     0.052 C 
HETATM    7  C   UNK N   1      18.252   9.697   0.248  0.00  0.00     0.064 C 
HETATM    8  C   UNK N   1      19.536   7.681   1.060  0.00  0.00     0.110 C 
HETATM    9  C   UNK N   1      16.560   8.545   1.835  0.00  0.00     0.142 C 
HETATM   10  C   UNK N   1      21.889   3.638   1.453  0.00  0.00     0.172 A 
HETATM   11  C   UNK N   1      18.736  -2.702  -0.315  0.00  0.00     0.178 A 
HETATM   12  C   UNK N   1      22.285  -0.638  -0.289  0.00  0.00     0.178 A 
HETATM   13  C   UNK N   1      17.497   4.502  -0.782  0.00  0.00     0.011 C 
HETATM   14  C   UNK N   1      21.072   6.113  -0.406  0.00  0.00     0.086 C 
HETATM   15  C   UNK N   1      19.084   8.487  -0.169  0.00  0.00     0.127 C 
HETATM   16  C   UNK N   1      16.780   9.455   0.617  0.00  0.00     0.130 C 
HETATM   17  C   UNK N   1      22.031   3.647   0.078  0.00  0.00     0.064 A 
HETATM   18  C   UNK N   1      19.162  -1.785   0.615  0.00  0.00     0.108 A 
HETATM   19  C   UNK N   1      21.963   0.233   0.733  0.00  0.00     0.108 A 
HETATM   20  C   UNK N   1      20.107   6.318   0.758  0.00  0.00     0.136 C 
HETATM   21  C   UNK N   1      16.460   5.104   0.180  0.00  0.00     0.138 C 
HETATM   22  C   UNK N   1      17.260  -1.184  -0.114  0.00  0.00     0.147 A 
HETATM   23  C   UNK N   1      16.551   7.043   1.659  0.00  0.00     0.261 C 
HETATM   24  C   UNK N   1      21.370   4.641  -0.851  0.00  0.00     0.183 C 
HETATM   25  C   UNK N   1      20.560  -1.361   0.733  0.00  0.00     0.177 A 
HETATM   26  C   UNK N   1      22.276   1.653   0.786  0.00  0.00     0.176 A 
HETATM   27  N   UNK N   1      18.215  -0.839   0.764  0.00  0.00    -0.332 N 
ATOM     28  HN  UNK N   1      18.222  -0.042   1.400  1.00  0.00     0.168 HD
HETATM   29  N   UNK N   1      22.258   2.390  -0.337  0.00  0.00    -0.334 N 
ATOM     30  HN  UNK N   1      22.388   2.066  -1.295  1.00  0.00     0.168 HD
HETATM   31  N   UNK N   1      20.866  -0.223   1.359  0.00  0.00    -0.330 N 
ATOM     32  HN  UNK N   1      20.375   0.207   2.143  1.00  0.00     0.168 HD
HETATM   33  O   UNK N   1      19.738   5.378   1.443  0.00  0.00    -0.297 OA
HETATM   34  O   UNK N   1      16.340   6.357   2.648  0.00  0.00    -0.265 OA
HETATM   35  O   UNK N   1      17.562  -2.293  -0.744  0.00  0.00    -0.303 OA
HETATM   36  O   UNK N   1      22.038   2.395   1.843  0.00  0.00    -0.302 OA
HETATM   37  O   UNK N   1      21.412  -1.621  -0.244  0.00  0.00    -0.301 OA
HETATM   38  O   UNK N   1      16.662   6.461   0.426  0.00  0.00    -0.316 OA
ENDROOT
BRANCH  21  39
HETATM   39  C   UNK N   1      15.190   4.953  -0.587  0.00  0.00     0.065 C 
BRANCH  39  40
HETATM   40  C   UNK N   1      13.901   5.391  -0.011  0.00  0.00     0.127 C 
BRANCH  40  41
HETATM   41  C   UNK N   1      13.298   4.453   1.050  0.00  0.00     0.011 C 
HETATM   42  C   UNK N   1      13.380   2.991   0.638  0.00  0.00     0.012 C 
BRANCH  41  43
HETATM   43  C   UNK N   1      11.829   4.824   1.263  0.00  0.00     0.014 C 
BRANCH  43  44
HETATM   44  C   UNK N   1      11.148   5.390  -0.000  0.00  0.00     0.079 C 
BRANCH  44  45
HETATM   45  C   UNK N   1      10.787   4.409  -1.083  0.00  0.00     0.133 C 
HETATM   46  O   UNK N   1      11.245   4.563  -2.206  0.00  0.00    -0.297 OA
BRANCH  45  47
HETATM   47  C   UNK N   1       9.824   3.285  -0.817  0.00  0.00     0.080 C 
HETATM   48  C   UNK N   1      10.465   2.282   0.127  0.00  0.00     0.020 C 
BRANCH  47  49
HETATM   49  C   UNK N   1       8.482   3.773  -0.219  0.00  0.00     0.135 C 
BRANCH  49  50
HETATM   50  C   UNK N   1       7.543   4.419  -1.265  0.00  0.00     0.061 C 
BRANCH  50  51
HETATM   51  C   UNK N   1       6.332   4.928  -0.548  0.00  0.00    -0.007 C 
HETATM   52  C   UNK N   1       6.083   6.245  -0.563  0.00  0.00     0.083 C 
BRANCH  52  53
HETATM   53  N   UNK N   1       5.112   6.856   0.282  0.00  0.00    -0.374 N 
HETATM   54  C   UNK N   1       5.053   8.291   0.333  0.00  0.00     0.151 C 
BRANCH  53  55
HETATM   55  C   UNK N   1       4.366   6.107   1.266  0.00  0.00     0.288 C 
BRANCH  55  56
HETATM   56  O   UNK N   1       3.417   5.304   0.636  0.00  0.00    -0.382 OA
HETATM   57  H   UNK N   1       2.603   5.597   0.198  0.00  0.00     0.211 HD
ENDBRANCH  55  56
ENDBRANCH  53  55
ENDBRANCH  52  53
ENDBRANCH  50  51
ENDBRANCH  49  50
BRANCH  49  58
HETATM   58  O   UNK N   1       8.664   4.503   1.002  0.00  0.00    -0.390 OA
HETATM   59  C   UNK N   1       8.615   5.906   0.837  0.00  0.00     0.202 C 
ENDBRANCH  49  58
ENDBRANCH  47  49
ENDBRANCH  45  47
ENDBRANCH  44  45
ENDBRANCH  43  44
ENDBRANCH  41  43
ENDBRANCH  40  41
BRANCH  40  60
HETATM   60  O   UNK N   1      13.944   6.719   0.474  0.00  0.00    -0.390 OA
HETATM   61  C   UNK N   1      13.486   7.590  -0.525  0.00  0.00     0.202 C 
ENDBRANCH  40  60
ENDBRANCH  39  40
ENDBRANCH  21  39
BRANCH  16  62
HETATM   62  O   UNK N   1      16.045   9.030  -0.490  0.00  0.00    -0.395 OA
HETATM   63  H   UNK N   1      15.535   9.325  -1.260  0.00  0.00     0.210 HD
ENDBRANCH  16  62
BRANCH  15  64
HETATM   64  O   UNK N   1      18.379   7.717  -1.095  0.00  0.00    -0.395 OA
HETATM   65  H   UNK N   1      17.671   7.873  -1.739  0.00  0.00     0.210 HD
ENDBRANCH  15  64
BRANCH  24  66
HETATM   66  O   UNK N   1      21.869   4.562  -2.173  0.00  0.00    -0.384 OA
HETATM   67  C   UNK N   1      23.198   4.998  -2.216  0.00  0.00     0.202 C 
ENDBRANCH  24  66
TORSDOF 18
