MODEL 1
REMARK VINA RESULT:      -7.9      0.000      0.000
REMARK  19 active torsions:
REMARK  status: ('A' for Active; 'I' for Inactive)
REMARK    1  A    between atoms: P_1  and  O_10 
REMARK    2  A    between atoms: P_1  and  O_12 
REMARK    3  A    between atoms: P_1  and  O_14 
REMARK    4  A    between atoms: P_2  and  O_11 
REMARK    5  A    between atoms: P_2  and  O_13 
REMARK    6  A    between atoms: P_2  and  O_15 
REMARK    7  A    between atoms: P_3  and  O_12 
REMARK    8  A    between atoms: P_3  and  O_13 
REMARK    9  A    between atoms: P_3  and  O_20 
REMARK   10  A    between atoms: C_36  and  O_6 
REMARK   11  A    between atoms: C_37  and  O_7 
REMARK   12  A    between atoms: C_38  and  O_8 
REMARK   13  A    between atoms: C_39  and  O_9 
REMARK   14  A    between atoms: O_10  and  C_44 
REMARK   15  A    between atoms: O_11  and  C_45 
REMARK   16  A    between atoms: C_40  and  N_22 
REMARK   17  A    between atoms: C_41  and  N_23 
REMARK       I    between atoms: N_34  and  C_54 
REMARK       I    between atoms: N_35  and  C_55 
REMARK   18  A    between atoms: C_42  and  C_44 
REMARK   19  A    between atoms: C_43  and  C_45 
ROOT
HETATM    1  P   UNK N   1      22.080  13.948   4.409  0.00  0.00     0.410 P 
HETATM    2  O   UNK N   1      20.869  13.687   3.469  0.00  0.00    -0.631 OA
ENDROOT
BRANCH   1   3
HETATM    3  O   UNK N   1      20.959  15.230   4.840  0.00  0.00    -0.195 OA
BRANCH   3   4
HETATM    4  P   UNK N   1      21.558  16.121   6.239  0.00  0.00     0.401 P 
HETATM    5  O   UNK N   1      20.329  16.283   7.173  0.00  0.00    -0.631 OA
BRANCH   4   6
HETATM    6  O   UNK N   1      22.155  17.750   5.991  0.00  0.00    -0.294 OA
BRANCH   6   7
HETATM    7  C   UNK N   1      21.138  18.536   5.421  0.00  0.00     0.215 C 
BRANCH   7   8
HETATM    8  C   UNK N   1      21.025  18.384   3.885  0.00  0.00     0.180 C 
HETATM    9  O   UNK N   1      22.303  18.225   3.356  0.00  0.00    -0.353 OA
HETATM   10  C   UNK N   1      22.694  19.554   3.374  0.00  0.00     0.262 C 
HETATM   11  C   UNK N   1      21.680  20.315   2.592  0.00  0.00     0.198 C 
HETATM   12  C   UNK N   1      20.462  19.672   3.249  0.00  0.00     0.182 C 
BRANCH  10  13
HETATM   13  N   UNK N   1      24.128  19.741   3.313  0.00  0.00    -0.297 N 
HETATM   14  C   UNK N   1      24.975  18.974   3.997  0.00  0.00     0.159 A 
HETATM   15  N   UNK N   1      24.671  17.895   4.754  0.00  0.00    -0.174 N 
HETATM   16  C   UNK N   1      26.221  19.439   3.845  0.00  0.00     0.147 A 
HETATM   17  C   UNK N   1      25.686  17.240   5.389  0.00  0.00     0.680 A 
HETATM   18  H   UNK N   1      23.739  17.589   4.845  0.00  0.00     0.186 HD
HETATM   19  N   UNK N   1      26.978  17.695   5.267  0.00  0.00    -0.154 N 
HETATM   20  N   UNK N   1      25.407  16.101   6.166  0.00  0.00    -0.234 N 
HETATM   21  C   UNK N   1      27.269  18.802   4.498  0.00  0.00     0.290 A 
ATOM     22  HN  UNK N   1      27.731  17.206   5.751  1.00  0.00     0.187 HD
HETATM   23  O   UNK N   1      28.413  19.210   4.403  0.00  0.00    -0.265 OA
HETATM   24  H   UNK N   1      24.477  15.802   6.289  0.00  0.00     0.174 HD
HETATM   25  H   UNK N   1      26.142  15.601   6.587  0.00  0.00     0.174 HD
HETATM   26  N   UNK N   1      26.208  20.524   3.043  0.00  0.00    -0.345 N 
HETATM   27  C   UNK N   1      24.887  20.694   2.726  0.00  0.00     0.188 A 
ATOM     28  HN  UNK N   1      27.002  21.088   2.741  1.00  0.00     0.167 HD
ENDBRANCH  10  13
BRANCH  11  29
HETATM   29  O   UNK N   1      21.730  21.675   2.893  0.00  0.00    -0.388 OA
HETATM   30  H   UNK N   1      22.351  22.412   2.998  0.00  0.00     0.210 HD
ENDBRANCH  11  29
BRANCH  12  31
HETATM   31  O   UNK N   1      19.511  19.356   2.279  0.00  0.00    -0.390 OA
HETATM   32  H   UNK N   1      19.108  18.514   2.015  0.00  0.00     0.210 HD
ENDBRANCH  12  31
ENDBRANCH   7   8
ENDBRANCH   6   7
ENDBRANCH   4   6
BRANCH   4  33
HETATM   33  O   UNK N   1      22.677  15.177   7.174  0.00  0.00    -0.307 OA
HETATM   34  H   UNK N   1      23.457  14.693   7.488  0.00  0.00     0.222 HD
ENDBRANCH   4  33
ENDBRANCH   3   4
ENDBRANCH   1   3
BRANCH   1  35
HETATM   35  O   UNK N   1      22.849  13.905   2.792  0.00  0.00    -0.195 OA
BRANCH  35  36
HETATM   36  P   UNK N   1      24.327  14.855   2.406  0.00  0.00     0.401 P 
HETATM   37  O   UNK N   1      24.241  14.538   0.893  0.00  0.00    -0.631 OA
BRANCH  36  38
HETATM   38  O   UNK N   1      25.942  14.265   2.126  0.00  0.00    -0.294 OA
BRANCH  38  39
HETATM   39  C   UNK N   1      26.845  15.318   2.337  0.00  0.00     0.215 C 
BRANCH  39  40
HETATM   40  C   UNK N   1      28.142  14.927   3.059  0.00  0.00     0.180 C 
HETATM   41  O   UNK N   1      28.975  16.006   3.450  0.00  0.00    -0.353 OA
HETATM   42  C   UNK N   1      29.431  15.642   4.744  0.00  0.00     0.262 C 
HETATM   43  C   UNK N   1      29.159  14.155   4.968  0.00  0.00     0.198 C 
HETATM   44  C   UNK N   1      27.829  14.131   4.305  0.00  0.00     0.182 C 
BRANCH  42  45
HETATM   45  N   UNK N   1      30.782  16.149   5.044  0.00  0.00    -0.297 N 
HETATM   46  C   UNK N   1      31.283  16.771   6.128  0.00  0.00     0.159 A 
HETATM   47  N   UNK N   1      30.657  17.069   7.290  0.00  0.00    -0.174 N 
HETATM   48  C   UNK N   1      32.579  17.071   5.917  0.00  0.00     0.147 A 
HETATM   49  C   UNK N   1      31.365  17.684   8.283  0.00  0.00     0.680 A 
HETATM   50  H   UNK N   1      29.706  16.847   7.418  0.00  0.00     0.186 HD
HETATM   51  N   UNK N   1      32.686  18.005   8.093  0.00  0.00    -0.154 N 
HETATM   52  N   UNK N   1      30.739  17.975   9.510  0.00  0.00    -0.234 N 
HETATM   53  C   UNK N   1      33.317  17.709   6.905  0.00  0.00     0.290 A 
ATOM     54  HN  UNK N   1      33.206  18.467   8.840  1.00  0.00     0.187 HD
HETATM   55  O   UNK N   1      34.489  17.996   6.737  0.00  0.00    -0.265 OA
HETATM   56  H   UNK N   1      29.800  17.720   9.658  0.00  0.00     0.174 HD
HETATM   57  H   UNK N   1      31.241  18.436  10.222  0.00  0.00     0.174 HD
HETATM   58  N   UNK N   1      32.950  16.660   4.692  0.00  0.00    -0.345 N 
HETATM   59  C   UNK N   1      31.825  16.091   4.172  0.00  0.00     0.188 A 
ATOM     60  HN  UNK N   1      33.865  16.754   4.252  1.00  0.00     0.167 HD
ENDBRANCH  42  45
BRANCH  43  61
HETATM   61  O   UNK N   1      30.024  13.353   4.216  0.00  0.00    -0.388 OA
HETATM   62  H   UNK N   1      30.461  13.496   3.362  0.00  0.00     0.210 HD
ENDBRANCH  43  61
BRANCH  44  63
HETATM   63  O   UNK N   1      27.401  12.838   4.003  0.00  0.00    -0.390 OA
HETATM   64  H   UNK N   1      27.728  12.086   4.520  0.00  0.00     0.210 HD
ENDBRANCH  44  63
ENDBRANCH  39  40
ENDBRANCH  38  39
ENDBRANCH  36  38
BRANCH  36  65
HETATM   65  O   UNK N   1      24.699  13.334   3.168  0.00  0.00    -0.307 OA
HETATM   66  H   UNK N   1      25.391  12.712   2.894  0.00  0.00     0.222 HD
ENDBRANCH  36  65
ENDBRANCH  35  36
ENDBRANCH   1  35
BRANCH   1  67
HETATM   67  O   UNK N   1      22.906  15.477   4.336  0.00  0.00    -0.307 OA
HETATM   68  H   UNK N   1      23.601  15.763   4.950  0.00  0.00     0.222 HD
ENDBRANCH   1  67
TORSDOF 19
ENDMDL
MODEL 2
REMARK VINA RESULT:      -7.8      2.528      5.525
REMARK  19 active torsions:
REMARK  status: ('A' for Active; 'I' for Inactive)
REMARK    1  A    between atoms: P_1  and  O_10 
REMARK    2  A    between atoms: P_1  and  O_12 
REMARK    3  A    between atoms: P_1  and  O_14 
REMARK    4  A    between atoms: P_2  and  O_11 
REMARK    5  A    between atoms: P_2  and  O_13 
REMARK    6  A    between atoms: P_2  and  O_15 
REMARK    7  A    between atoms: P_3  and  O_12 
REMARK    8  A    between atoms: P_3  and  O_13 
REMARK    9  A    between atoms: P_3  and  O_20 
REMARK   10  A    between atoms: C_36  and  O_6 
REMARK   11  A    between atoms: C_37  and  O_7 
REMARK   12  A    between atoms: C_38  and  O_8 
REMARK   13  A    between atoms: C_39  and  O_9 
REMARK   14  A    between atoms: O_10  and  C_44 
REMARK   15  A    between atoms: O_11  and  C_45 
REMARK   16  A    between atoms: C_40  and  N_22 
REMARK   17  A    between atoms: C_41  and  N_23 
REMARK       I    between atoms: N_34  and  C_54 
REMARK       I    between atoms: N_35  and  C_55 
REMARK   18  A    between atoms: C_42  and  C_44 
REMARK   19  A    between atoms: C_43  and  C_45 
ROOT
HETATM    1  P   UNK N   1      27.334  15.531   3.085  0.00  0.00     0.410 P 
HETATM    2  O   UNK N   1      28.660  16.179   3.573  0.00  0.00    -0.631 OA
ENDROOT
BRANCH   1   3
HETATM    3  O   UNK N   1      26.846  16.379   4.544  0.00  0.00    -0.195 OA
BRANCH   3   4
HETATM    4  P   UNK N   1      25.088  16.502   4.622  0.00  0.00     0.401 P 
HETATM    5  O   UNK N   1      24.806  17.898   5.239  0.00  0.00    -0.631 OA
BRANCH   4   6
HETATM    6  O   UNK N   1      24.223  15.372   5.645  0.00  0.00    -0.294 OA
BRANCH   6   7
HETATM    7  C   UNK N   1      23.097  14.889   4.954  0.00  0.00     0.215 C 
BRANCH   7   8
HETATM    8  C   UNK N   1      21.773  15.043   5.741  0.00  0.00     0.180 C 
HETATM    9  O   UNK N   1      20.813  15.591   4.894  0.00  0.00    -0.353 OA
HETATM   10  C   UNK N   1      21.216  16.915   4.965  0.00  0.00     0.262 C 
HETATM   11  C   UNK N   1      21.208  17.295   6.406  0.00  0.00     0.198 C 
HETATM   12  C   UNK N   1      21.939  16.049   6.899  0.00  0.00     0.182 C 
BRANCH  10  13
HETATM   13  N   UNK N   1      20.734  17.731   3.871  0.00  0.00    -0.297 N 
HETATM   14  C   UNK N   1      21.452  18.731   3.361  0.00  0.00     0.159 A 
HETATM   15  N   UNK N   1      22.713  19.085   3.695  0.00  0.00    -0.174 N 
HETATM   16  C   UNK N   1      20.722  19.382   2.446  0.00  0.00     0.147 A 
HETATM   17  C   UNK N   1      23.278  20.153   3.061  0.00  0.00     0.680 A 
HETATM   18  H   UNK N   1      23.213  18.583   4.379  0.00  0.00     0.186 HD
HETATM   19  N   UNK N   1      22.557  20.854   2.123  0.00  0.00    -0.154 N 
HETATM   20  N   UNK N   1      24.598  20.532   3.369  0.00  0.00    -0.234 N 
HETATM   21  C   UNK N   1      21.268  20.485   1.801  0.00  0.00     0.290 A 
ATOM     22  HN  UNK N   1      22.982  21.656   1.659  1.00  0.00     0.187 HD
HETATM   23  O   UNK N   1      20.627  21.116   0.980  0.00  0.00    -0.265 OA
HETATM   24  H   UNK N   1      25.098  20.058   4.071  0.00  0.00     0.174 HD
HETATM   25  H   UNK N   1      25.022  21.274   2.880  0.00  0.00     0.174 HD
HETATM   26  N   UNK N   1      19.508  18.804   2.336  0.00  0.00    -0.345 N 
HETATM   27  C   UNK N   1      19.540  17.776   3.239  0.00  0.00     0.188 A 
ATOM     28  HN  UNK N   1      18.742  19.073   1.718  1.00  0.00     0.167 HD
ENDBRANCH  10  13
BRANCH  11  29
HETATM   29  O   UNK N   1      21.984  18.431   6.630  0.00  0.00    -0.388 OA
HETATM   30  H   UNK N   1      22.005  19.252   7.146  0.00  0.00     0.210 HD
ENDBRANCH  11  29
BRANCH  12  31
HETATM   31  O   UNK N   1      21.326  15.563   8.053  0.00  0.00    -0.390 OA
HETATM   32  H   UNK N   1      20.650  15.940   8.637  0.00  0.00     0.210 HD
ENDBRANCH  12  31
ENDBRANCH   7   8
ENDBRANCH   6   7
ENDBRANCH   4   6
BRANCH   4  33
HETATM   33  O   UNK N   1      24.377  16.588   3.039  0.00  0.00    -0.307 OA
HETATM   34  H   UNK N   1      23.997  16.374   2.173  0.00  0.00     0.222 HD
ENDBRANCH   4  33
ENDBRANCH   3   4
ENDBRANCH   1   3
BRANCH   1  35
HETATM   35  O   UNK N   1      28.442  14.127   3.164  0.00  0.00    -0.195 OA
BRANCH  35  36
HETATM   36  P   UNK N   1      30.124  14.265   3.787  0.00  0.00     0.401 P 
HETATM   37  O   UNK N   1      30.524  12.861   3.271  0.00  0.00    -0.631 OA
BRANCH  36  38
HETATM   38  O   UNK N   1      30.790  13.582   5.245  0.00  0.00    -0.294 OA
BRANCH  38  39
HETATM   39  C   UNK N   1      31.947  14.299   5.587  0.00  0.00     0.215 C 
BRANCH  39  40
HETATM   40  C   UNK N   1      31.702  15.585   6.388  0.00  0.00     0.180 C 
HETATM   41  O   UNK N   1      30.346  15.982   6.510  0.00  0.00    -0.353 OA
HETATM   42  C   UNK N   1      30.232  16.418   7.857  0.00  0.00     0.262 C 
HETATM   43  C   UNK N   1      31.632  16.630   8.433  0.00  0.00     0.198 C 
HETATM   44  C   UNK N   1      32.253  15.443   7.789  0.00  0.00     0.182 C 
BRANCH  42  45
HETATM   45  N   UNK N   1      29.245  17.499   8.031  0.00  0.00    -0.297 N 
HETATM   46  C   UNK N   1      28.640  18.308   7.141  0.00  0.00     0.159 A 
HETATM   47  N   UNK N   1      28.757  18.313   5.793  0.00  0.00    -0.174 N 
HETATM   48  C   UNK N   1      27.831  19.168   7.790  0.00  0.00     0.147 A 
HETATM   49  C   UNK N   1      28.024  19.209   5.069  0.00  0.00     0.680 A 
HETATM   50  H   UNK N   1      29.361  17.680   5.341  0.00  0.00     0.186 HD
HETATM   51  N   UNK N   1      27.195  20.099   5.705  0.00  0.00    -0.154 N 
HETATM   52  N   UNK N   1      28.110  19.209   3.663  0.00  0.00    -0.234 N 
HETATM   53  C   UNK N   1      27.086  20.098   7.079  0.00  0.00     0.290 A 
ATOM     54  HN  UNK N   1      26.654  20.767   5.156  1.00  0.00     0.187 HD
HETATM   55  O   UNK N   1      26.352  20.890   7.643  0.00  0.00    -0.265 OA
HETATM   56  H   UNK N   1      28.682  18.553   3.205  0.00  0.00     0.174 HD
HETATM   57  H   UNK N   1      27.598  19.867   3.139  0.00  0.00     0.174 HD
HETATM   58  N   UNK N   1      27.895  18.944   9.114  0.00  0.00    -0.345 N 
HETATM   59  C   UNK N   1      28.773  17.907   9.240  0.00  0.00     0.188 A 
ATOM     60  HN  UNK N   1      27.401  19.438   9.857  1.00  0.00     0.167 HD
ENDBRANCH  42  45
BRANCH  43  61
HETATM   61  O   UNK N   1      32.242  17.771   7.901  0.00  0.00    -0.388 OA
HETATM   62  H   UNK N   1      31.896  18.497   7.359  0.00  0.00     0.210 HD
ENDBRANCH  43  61
BRANCH  44  63
HETATM   63  O   UNK N   1      33.648  15.490   7.806  0.00  0.00    -0.390 OA
HETATM   64  H   UNK N   1      34.112  15.833   8.585  0.00  0.00     0.210 HD
ENDBRANCH  44  63
ENDBRANCH  39  40
ENDBRANCH  38  39
ENDBRANCH  36  38
BRANCH  36  65
HETATM   65  O   UNK N   1      28.970  13.970   5.057  0.00  0.00    -0.307 OA
HETATM   66  H   UNK N   1      29.162  13.940   6.008  0.00  0.00     0.222 HD
ENDBRANCH  36  65
ENDBRANCH  35  36
ENDBRANCH   1  35
BRANCH   1  67
HETATM   67  O   UNK N   1      26.483  14.429   4.128  0.00  0.00    -0.307 OA
HETATM   68  H   UNK N   1      26.076  13.596   3.842  0.00  0.00     0.222 HD
ENDBRANCH   1  67
TORSDOF 19
ENDMDL
MODEL 3
REMARK VINA RESULT:      -7.7      4.183      6.061
REMARK  19 active torsions:
REMARK  status: ('A' for Active; 'I' for Inactive)
REMARK    1  A    between atoms: P_1  and  O_10 
REMARK    2  A    between atoms: P_1  and  O_12 
REMARK    3  A    between atoms: P_1  and  O_14 
REMARK    4  A    between atoms: P_2  and  O_11 
REMARK    5  A    between atoms: P_2  and  O_13 
REMARK    6  A    between atoms: P_2  and  O_15 
REMARK    7  A    between atoms: P_3  and  O_12 
REMARK    8  A    between atoms: P_3  and  O_13 
REMARK    9  A    between atoms: P_3  and  O_20 
REMARK   10  A    between atoms: C_36  and  O_6 
REMARK   11  A    between atoms: C_37  and  O_7 
REMARK   12  A    between atoms: C_38  and  O_8 
REMARK   13  A    between atoms: C_39  and  O_9 
REMARK   14  A    between atoms: O_10  and  C_44 
REMARK   15  A    between atoms: O_11  and  C_45 
REMARK   16  A    between atoms: C_40  and  N_22 
REMARK   17  A    between atoms: C_41  and  N_23 
REMARK       I    between atoms: N_34  and  C_54 
REMARK       I    between atoms: N_35  and  C_55 
REMARK   18  A    between atoms: C_42  and  C_44 
REMARK   19  A    between atoms: C_43  and  C_45 
ROOT
HETATM    1  P   UNK N   1      21.094  17.620   6.219  0.00  0.00     0.410 P 
HETATM    2  O   UNK N   1      21.055  19.054   6.818  0.00  0.00    -0.631 OA
ENDROOT
BRANCH   1   3
HETATM    3  O   UNK N   1      20.782  17.329   7.923  0.00  0.00    -0.195 OA
BRANCH   3   4
HETATM    4  P   UNK N   1      20.311  15.648   8.179  0.00  0.00     0.401 P 
HETATM    5  O   UNK N   1      21.328  15.096   9.214  0.00  0.00    -0.631 OA
BRANCH   4   6
HETATM    6  O   UNK N   1      20.402  14.545   6.821  0.00  0.00    -0.294 OA
BRANCH   6   7
HETATM    7  C   UNK N   1      20.702  13.254   7.291  0.00  0.00     0.215 C 
BRANCH   7   8
HETATM    8  C   UNK N   1      21.891  12.588   6.559  0.00  0.00     0.180 C 
HETATM    9  O   UNK N   1      22.646  11.877   7.489  0.00  0.00    -0.353 OA
HETATM   10  C   UNK N   1      23.347  12.942   8.032  0.00  0.00     0.262 C 
HETATM   11  C   UNK N   1      24.045  13.622   6.905  0.00  0.00     0.198 C 
HETATM   12  C   UNK N   1      22.838  13.654   5.971  0.00  0.00     0.182 C 
BRANCH  10  13
HETATM   13  N   UNK N   1      23.912  12.664   9.335  0.00  0.00    -0.297 N 
HETATM   14  C   UNK N   1      23.154  12.374  10.391  0.00  0.00     0.159 A 
HETATM   15  N   UNK N   1      21.812  12.212  10.414  0.00  0.00    -0.174 N 
HETATM   16  C   UNK N   1      23.926  12.277  11.482  0.00  0.00     0.147 A 
HETATM   17  C   UNK N   1      21.212  11.923  11.605  0.00  0.00     0.680 A 
HETATM   18  H   UNK N   1      21.280  12.298   9.590  0.00  0.00     0.186 HD
HETATM   19  N   UNK N   1      21.969  11.827  12.749  0.00  0.00    -0.154 N 
HETATM   20  N   UNK N   1      19.819  11.725  11.658  0.00  0.00    -0.234 N 
HETATM   21  C   UNK N   1      23.335  12.005  12.710  0.00  0.00     0.290 A 
ATOM     22  HN  UNK N   1      21.514  11.620  13.638  1.00  0.00     0.187 HD
HETATM   23  O   UNK N   1      24.002  11.933  13.727  0.00  0.00    -0.265 OA
HETATM   24  H   UNK N   1      19.273  11.838  10.848  0.00  0.00     0.174 HD
HETATM   25  H   UNK N   1      19.392  11.474  12.508  0.00  0.00     0.174 HD
HETATM   26  N   UNK N   1      25.215  12.495  11.149  0.00  0.00    -0.345 N 
HETATM   27  C   UNK N   1      25.180  12.737   9.802  0.00  0.00     0.188 A 
ATOM     28  HN  UNK N   1      26.030  12.481  11.762  1.00  0.00     0.167 HD
ENDBRANCH  10  13
BRANCH  11  29
HETATM   29  O   UNK N   1      24.420  14.919   7.255  0.00  0.00    -0.388 OA
HETATM   30  H   UNK N   1      24.145  15.844   7.165  0.00  0.00     0.210 HD
ENDBRANCH  11  29
BRANCH  12  31
HETATM   31  O   UNK N   1      23.227  13.297   4.681  0.00  0.00    -0.390 OA
HETATM   32  H   UNK N   1      22.716  13.069   3.888  0.00  0.00     0.210 HD
ENDBRANCH  12  31
ENDBRANCH   7   8
ENDBRANCH   6   7
ENDBRANCH   4   6
BRANCH   4  33
HETATM   33  O   UNK N   1      18.778  15.525   8.987  0.00  0.00    -0.307 OA
HETATM   34  H   UNK N   1      18.070  15.509   9.650  0.00  0.00     0.222 HD
ENDBRANCH   4  33
ENDBRANCH   3   4
ENDBRANCH   1   3
BRANCH   1  35
HETATM   35  O   UNK N   1      22.656  18.308   5.675  0.00  0.00    -0.195 OA
BRANCH  35  36
HETATM   36  P   UNK N   1      23.501  17.724   4.198  0.00  0.00     0.401 P 
HETATM   37  O   UNK N   1      22.619  16.455   4.090  0.00  0.00    -0.631 OA
BRANCH  36  38
HETATM   38  O   UNK N   1      24.737  16.503   4.079  0.00  0.00    -0.294 OA
BRANCH  38  39
HETATM   39  C   UNK N   1      25.840  17.049   3.404  0.00  0.00     0.215 C 
BRANCH  39  40
HETATM   40  C   UNK N   1      27.190  16.396   3.731  0.00  0.00     0.180 C 
HETATM   41  O   UNK N   1      28.218  17.284   4.139  0.00  0.00    -0.353 OA
HETATM   42  C   UNK N   1      28.866  16.600   5.201  0.00  0.00     0.262 C 
HETATM   43  C   UNK N   1      28.451  15.129   5.175  0.00  0.00     0.198 C 
HETATM   44  C   UNK N   1      27.025  15.370   4.828  0.00  0.00     0.182 C 
BRANCH  42  45
HETATM   45  N   UNK N   1      30.304  16.909   5.294  0.00  0.00    -0.297 N 
HETATM   46  C   UNK N   1      31.178  16.796   6.312  0.00  0.00     0.159 A 
HETATM   47  N   UNK N   1      30.961  16.313   7.557  0.00  0.00    -0.174 N 
HETATM   48  C   UNK N   1      32.388  17.238   5.919  0.00  0.00     0.147 A 
HETATM   49  C   UNK N   1      32.004  16.261   8.437  0.00  0.00     0.680 A 
HETATM   50  H   UNK N   1      30.065  16.004   7.825  0.00  0.00     0.186 HD
HETATM   51  N   UNK N   1      33.247  16.708   8.064  0.00  0.00    -0.154 N 
HETATM   52  N   UNK N   1      31.804  15.734   9.728  0.00  0.00    -0.234 N 
HETATM   53  C   UNK N   1      33.462  17.209   6.798  0.00  0.00     0.290 A 
ATOM     54  HN  UNK N   1      34.019  16.668   8.729  1.00  0.00     0.187 HD
HETATM   55  O   UNK N   1      34.565  17.607   6.468  0.00  0.00    -0.265 OA
HETATM   56  H   UNK N   1      30.921  15.387   9.987  0.00  0.00     0.174 HD
HETATM   57  H   UNK N   1      32.550  15.713  10.372  0.00  0.00     0.174 HD
HETATM   58  N   UNK N   1      32.330  17.653   4.641  0.00  0.00    -0.345 N 
HETATM   59  C   UNK N   1      31.034  17.438   4.275  0.00  0.00     0.188 A 
ATOM     60  HN  UNK N   1      33.084  18.042   4.075  1.00  0.00     0.167 HD
ENDBRANCH  42  45
BRANCH  43  61
HETATM   61  O   UNK N   1      29.040  14.446   4.105  0.00  0.00    -0.388 OA
HETATM   62  H   UNK N   1      29.458  14.760   3.288  0.00  0.00     0.210 HD
ENDBRANCH  43  61
BRANCH  44  63
HETATM   63  O   UNK N   1      26.381  14.219   4.372  0.00  0.00    -0.390 OA
HETATM   64  H   UNK N   1      25.770  13.742   4.954  0.00  0.00     0.210 HD
ENDBRANCH  44  63
ENDBRANCH  39  40
ENDBRANCH  38  39
ENDBRANCH  36  38
BRANCH  36  65
HETATM   65  O   UNK N   1      24.452  17.495   5.639  0.00  0.00    -0.307 OA
HETATM   66  H   UNK N   1      24.984  16.713   5.853  0.00  0.00     0.222 HD
ENDBRANCH  36  65
ENDBRANCH  35  36
ENDBRANCH   1  35
BRANCH   1  67
HETATM   67  O   UNK N   1      22.252  16.470   6.823  0.00  0.00    -0.307 OA
HETATM   68  H   UNK N   1      22.028  15.631   7.255  0.00  0.00     0.222 HD
ENDBRANCH   1  67
TORSDOF 19
ENDMDL
MODEL 4
REMARK VINA RESULT:      -7.6      3.289      5.082
REMARK  19 active torsions:
REMARK  status: ('A' for Active; 'I' for Inactive)
REMARK    1  A    between atoms: P_1  and  O_10 
REMARK    2  A    between atoms: P_1  and  O_12 
REMARK    3  A    between atoms: P_1  and  O_14 
REMARK    4  A    between atoms: P_2  and  O_11 
REMARK    5  A    between atoms: P_2  and  O_13 
REMARK    6  A    between atoms: P_2  and  O_15 
REMARK    7  A    between atoms: P_3  and  O_12 
REMARK    8  A    between atoms: P_3  and  O_13 
REMARK    9  A    between atoms: P_3  and  O_20 
REMARK   10  A    between atoms: C_36  and  O_6 
REMARK   11  A    between atoms: C_37  and  O_7 
REMARK   12  A    between atoms: C_38  and  O_8 
REMARK   13  A    between atoms: C_39  and  O_9 
REMARK   14  A    between atoms: O_10  and  C_44 
REMARK   15  A    between atoms: O_11  and  C_45 
REMARK   16  A    between atoms: C_40  and  N_22 
REMARK   17  A    between atoms: C_41  and  N_23 
REMARK       I    between atoms: N_34  and  C_54 
REMARK       I    between atoms: N_35  and  C_55 
REMARK   18  A    between atoms: C_42  and  C_44 
REMARK   19  A    between atoms: C_43  and  C_45 
ROOT
HETATM    1  P   UNK N   1      23.361  14.311   5.863  0.00  0.00     0.410 P 
HETATM    2  O   UNK N   1      23.439  15.718   5.205  0.00  0.00    -0.631 OA
ENDROOT
BRANCH   1   3
HETATM    3  O   UNK N   1      22.249  15.264   6.833  0.00  0.00    -0.195 OA
BRANCH   3   4
HETATM    4  P   UNK N   1      20.680  14.464   6.928  0.00  0.00     0.401 P 
HETATM    5  O   UNK N   1      20.669  13.757   8.310  0.00  0.00    -0.631 OA
BRANCH   4   6
HETATM    6  O   UNK N   1      20.323  13.198   5.770  0.00  0.00    -0.294 OA
BRANCH   6   7
HETATM    7  C   UNK N   1      19.803  13.774   4.598  0.00  0.00     0.215 C 
BRANCH   7   8
HETATM    8  C   UNK N   1      20.507  13.295   3.306  0.00  0.00     0.180 C 
HETATM    9  O   UNK N   1      21.134  14.386   2.708  0.00  0.00    -0.353 OA
HETATM   10  C   UNK N   1      20.021  14.949   2.105  0.00  0.00     0.262 C 
HETATM   11  C   UNK N   1      19.420  13.898   1.236  0.00  0.00     0.198 C 
HETATM   12  C   UNK N   1      19.476  12.784   2.278  0.00  0.00     0.182 C 
BRANCH  10  13
HETATM   13  N   UNK N   1      20.190  16.343   1.755  0.00  0.00    -0.297 N 
HETATM   14  C   UNK N   1      20.510  17.269   2.659  0.00  0.00     0.159 A 
HETATM   15  N   UNK N   1      20.802  17.070   3.964  0.00  0.00    -0.174 N 
HETATM   16  C   UNK N   1      20.488  18.479   2.085  0.00  0.00     0.147 A 
HETATM   17  C   UNK N   1      21.100  18.156   4.736  0.00  0.00     0.680 A 
HETATM   18  H   UNK N   1      20.801  16.163   4.348  0.00  0.00     0.186 HD
HETATM   19  N   UNK N   1      21.076  19.415   4.186  0.00  0.00    -0.154 N 
HETATM   20  N   UNK N   1      21.430  17.980   6.092  0.00  0.00    -0.234 N 
HETATM   21  C   UNK N   1      20.767  19.601   2.855  0.00  0.00     0.290 A 
ATOM     22  HN  UNK N   1      21.290  20.223   4.770  1.00  0.00     0.187 HD
HETATM   23  O   UNK N   1      20.733  20.720   2.374  0.00  0.00    -0.265 OA
HETATM   24  H   UNK N   1      21.404  17.083   6.496  0.00  0.00     0.174 HD
HETATM   25  H   UNK N   1      21.688  18.757   6.639  0.00  0.00     0.174 HD
HETATM   26  N   UNK N   1      20.159  18.360   0.782  0.00  0.00    -0.345 N 
HETATM   27  C   UNK N   1      19.975  17.015   0.601  0.00  0.00     0.188 A 
ATOM     28  HN  UNK N   1      20.069  19.103   0.089  1.00  0.00     0.167 HD
ENDBRANCH  10  13
BRANCH  11  29
HETATM   29  O   UNK N   1      18.095  14.201   0.924  0.00  0.00    -0.388 OA
HETATM   30  H   UNK N   1      17.183  13.956   1.143  0.00  0.00     0.210 HD
ENDBRANCH  11  29
BRANCH  12  31
HETATM   31  O   UNK N   1      19.926  11.604   1.688  0.00  0.00    -0.390 OA
HETATM   32  H   UNK N   1      20.483  11.437   0.912  0.00  0.00     0.210 HD
ENDBRANCH  12  31
ENDBRANCH   7   8
ENDBRANCH   6   7
ENDBRANCH   4   6
BRANCH   4  33
HETATM   33  O   UNK N   1      19.377  15.609   7.029  0.00  0.00    -0.307 OA
HETATM   34  H   UNK N   1      18.845  16.409   7.158  0.00  0.00     0.222 HD
ENDBRANCH   4  33
ENDBRANCH   3   4
ENDBRANCH   1   3
BRANCH   1  35
HETATM   35  O   UNK N   1      25.119  14.648   5.882  0.00  0.00    -0.195 OA
BRANCH  35  36
HETATM   36  P   UNK N   1      25.805  16.206   5.298  0.00  0.00     0.401 P 
HETATM   37  O   UNK N   1      27.109  15.542   4.790  0.00  0.00    -0.631 OA
BRANCH  36  38
HETATM   38  O   UNK N   1      26.988  17.219   6.079  0.00  0.00    -0.294 OA
BRANCH  38  39
HETATM   39  C   UNK N   1      28.248  16.615   5.951  0.00  0.00     0.215 C 
BRANCH  39  40
HETATM   40  C   UNK N   1      29.161  16.749   7.178  0.00  0.00     0.180 C 
HETATM   41  O   UNK N   1      30.553  16.724   6.912  0.00  0.00    -0.353 OA
HETATM   42  C   UNK N   1      31.088  17.726   7.764  0.00  0.00     0.262 C 
HETATM   43  C   UNK N   1      30.044  18.092   8.819  0.00  0.00     0.198 C 
HETATM   44  C   UNK N   1      28.869  18.039   7.910  0.00  0.00     0.182 C 
BRANCH  42  45
HETATM   45  N   UNK N   1      32.455  17.423   8.224  0.00  0.00    -0.297 N 
HETATM   46  C   UNK N   1      33.016  16.281   8.667  0.00  0.00     0.159 A 
HETATM   47  N   UNK N   1      32.455  15.054   8.773  0.00  0.00    -0.174 N 
HETATM   48  C   UNK N   1      34.299  16.511   9.005  0.00  0.00     0.147 A 
HETATM   49  C   UNK N   1      33.218  14.016   9.225  0.00  0.00     0.680 A 
HETATM   50  H   UNK N   1      31.512  14.912   8.528  0.00  0.00     0.186 HD
HETATM   51  N   UNK N   1      34.528  14.223   9.580  0.00  0.00    -0.154 N 
HETATM   52  N   UNK N   1      32.661  12.726   9.312  0.00  0.00    -0.234 N 
HETATM   53  C   UNK N   1      35.093  15.476   9.481  0.00  0.00     0.290 A 
ATOM     54  HN  UNK N   1      35.089  13.442   9.919  1.00  0.00     0.187 HD
HETATM   55  O   UNK N   1      36.254  15.659   9.798  0.00  0.00    -0.265 OA
HETATM   56  H   UNK N   1      31.731  12.571   9.031  0.00  0.00     0.174 HD
HETATM   57  H   UNK N   1      33.202  11.978   9.657  0.00  0.00     0.174 HD
HETATM   58  N   UNK N   1      34.602  17.805   8.797  0.00  0.00    -0.345 N 
HETATM   59  C   UNK N   1      33.448  18.348   8.312  0.00  0.00     0.188 A 
ATOM     60  HN  UNK N   1      35.492  18.274   8.965  1.00  0.00     0.167 HD
ENDBRANCH  42  45
BRANCH  43  61
HETATM   61  O   UNK N   1      29.893  17.076   9.770  0.00  0.00    -0.388 OA
HETATM   62  H   UNK N   1      29.393  16.245   9.756  0.00  0.00     0.210 HD
ENDBRANCH  43  61
BRANCH  44  63
HETATM   63  O   UNK N   1      27.657  17.984   8.600  0.00  0.00    -0.390 OA
HETATM   64  H   UNK N   1      27.222  18.802   8.882  0.00  0.00     0.210 HD
ENDBRANCH  44  63
ENDBRANCH  39  40
ENDBRANCH  38  39
ENDBRANCH  36  38
BRANCH  36  65
HETATM   65  O   UNK N   1      25.869  16.063   7.033  0.00  0.00    -0.307 OA
HETATM   66  H   UNK N   1      25.284  15.520   7.583  0.00  0.00     0.222 HD
ENDBRANCH  36  65
ENDBRANCH  35  36
ENDBRANCH   1  35
BRANCH   1  67
HETATM   67  O   UNK N   1      23.768  14.127   7.544  0.00  0.00    -0.307 OA
HETATM   68  H   UNK N   1      24.389  13.470   7.896  0.00  0.00     0.222 HD
ENDBRANCH   1  67
TORSDOF 19
ENDMDL
MODEL 5
REMARK VINA RESULT:      -7.5      2.557      8.555
REMARK  19 active torsions:
REMARK  status: ('A' for Active; 'I' for Inactive)
REMARK    1  A    between atoms: P_1  and  O_10 
REMARK    2  A    between atoms: P_1  and  O_12 
REMARK    3  A    between atoms: P_1  and  O_14 
REMARK    4  A    between atoms: P_2  and  O_11 
REMARK    5  A    between atoms: P_2  and  O_13 
REMARK    6  A    between atoms: P_2  and  O_15 
REMARK    7  A    between atoms: P_3  and  O_12 
REMARK    8  A    between atoms: P_3  and  O_13 
REMARK    9  A    between atoms: P_3  and  O_20 
REMARK   10  A    between atoms: C_36  and  O_6 
REMARK   11  A    between atoms: C_37  and  O_7 
REMARK   12  A    between atoms: C_38  and  O_8 
REMARK   13  A    between atoms: C_39  and  O_9 
REMARK   14  A    between atoms: O_10  and  C_44 
REMARK   15  A    between atoms: O_11  and  C_45 
REMARK   16  A    between atoms: C_40  and  N_22 
REMARK   17  A    between atoms: C_41  and  N_23 
REMARK       I    between atoms: N_34  and  C_54 
REMARK       I    between atoms: N_35  and  C_55 
REMARK   18  A    between atoms: C_42  and  C_44 
REMARK   19  A    between atoms: C_43  and  C_45 
ROOT
HETATM    1  P   UNK N   1      26.034  13.048   2.975  0.00  0.00     0.410 P 
HETATM    2  O   UNK N   1      27.505  12.548   3.014  0.00  0.00    -0.631 OA
ENDROOT
BRANCH   1   3
HETATM    3  O   UNK N   1      26.941  14.441   2.408  0.00  0.00    -0.195 OA
BRANCH   3   4
HETATM    4  P   UNK N   1      28.235  14.831   3.541  0.00  0.00     0.401 P 
HETATM    5  O   UNK N   1      28.146  16.367   3.747  0.00  0.00    -0.631 OA
BRANCH   4   6
HETATM    6  O   UNK N   1      29.890  14.537   3.043  0.00  0.00    -0.294 OA
BRANCH   6   7
HETATM    7  C   UNK N   1      30.655  14.173   4.165  0.00  0.00     0.215 C 
BRANCH   7   8
HETATM    8  C   UNK N   1      32.093  14.742   4.147  0.00  0.00     0.180 C 
HETATM    9  O   UNK N   1      32.426  15.158   5.434  0.00  0.00    -0.353 OA
HETATM   10  C   UNK N   1      31.756  16.371   5.431  0.00  0.00     0.262 C 
HETATM   11  C   UNK N   1      32.269  17.148   4.268  0.00  0.00     0.198 C 
HETATM   12  C   UNK N   1      32.171  16.004   3.262  0.00  0.00     0.182 C 
BRANCH  10  13
HETATM   13  N   UNK N   1      31.498  16.897   6.754  0.00  0.00    -0.297 N 
HETATM   14  C   UNK N   1      30.262  17.086   7.215  0.00  0.00     0.159 A 
HETATM   15  N   UNK N   1      29.102  16.757   6.602  0.00  0.00    -0.174 N 
HETATM   16  C   UNK N   1      30.318  17.685   8.411  0.00  0.00     0.147 A 
HETATM   17  C   UNK N   1      27.928  17.040   7.238  0.00  0.00     0.680 A 
HETATM   18  H   UNK N   1      29.105  16.322   5.718  0.00  0.00     0.186 HD
HETATM   19  N   UNK N   1      27.945  17.666   8.461  0.00  0.00    -0.154 N 
HETATM   20  N   UNK N   1      26.705  16.691   6.637  0.00  0.00    -0.234 N 
HETATM   21  C   UNK N   1      29.136  18.003   9.068  0.00  0.00     0.290 A 
ATOM     22  HN  UNK N   1      27.064  17.884   8.928  1.00  0.00     0.187 HD
HETATM   23  O   UNK N   1      29.147  18.569  10.147  0.00  0.00    -0.265 OA
HETATM   24  H   UNK N   1      26.692  16.283   5.741  0.00  0.00     0.174 HD
HETATM   25  H   UNK N   1      25.860  16.854   7.114  0.00  0.00     0.174 HD
HETATM   26  N   UNK N   1      31.606  17.891   8.758  0.00  0.00    -0.345 N 
HETATM   27  C   UNK N   1      32.324  17.392   7.704  0.00  0.00     0.188 A 
ATOM     28  HN  UNK N   1      31.963  18.320   9.611  1.00  0.00     0.167 HD
ENDBRANCH  10  13
BRANCH  11  29
HETATM   29  O   UNK N   1      31.390  18.172   3.921  0.00  0.00    -0.388 OA
HETATM   30  H   UNK N   1      30.694  18.740   4.288  0.00  0.00     0.210 HD
ENDBRANCH  11  29
BRANCH  12  31
HETATM   31  O   UNK N   1      33.318  15.968   2.469  0.00  0.00    -0.390 OA
HETATM   32  H   UNK N   1      33.456  15.743   1.536  0.00  0.00     0.210 HD
ENDBRANCH  12  31
ENDBRANCH   7   8
ENDBRANCH   6   7
ENDBRANCH   4   6
BRANCH   4  33
HETATM   33  O   UNK N   1      27.928  14.175   5.121  0.00  0.00    -0.307 OA
HETATM   34  H   UNK N   1      27.838  14.048   6.078  0.00  0.00     0.222 HD
ENDBRANCH   4  33
ENDBRANCH   3   4
ENDBRANCH   1   3
BRANCH   1  35
HETATM   35  O   UNK N   1      26.198  12.468   4.661  0.00  0.00    -0.195 OA
BRANCH  35  36
HETATM   36  P   UNK N   1      24.825  11.735   5.563  0.00  0.00     0.401 P 
HETATM   37  O   UNK N   1      23.763  12.346   4.616  0.00  0.00    -0.631 OA
BRANCH  36  38
HETATM   38  O   UNK N   1      23.777  12.494   6.729  0.00  0.00    -0.294 OA
BRANCH  38  39
HETATM   39  C   UNK N   1      24.375  13.691   7.154  0.00  0.00     0.215 C 
BRANCH  39  40
HETATM   40  C   UNK N   1      23.534  14.954   6.924  0.00  0.00     0.180 C 
HETATM   41  O   UNK N   1      23.957  15.786   5.857  0.00  0.00    -0.353 OA
HETATM   42  C   UNK N   1      22.749  16.189   5.229  0.00  0.00     0.262 C 
HETATM   43  C   UNK N   1      21.577  15.889   6.165  0.00  0.00     0.198 C 
HETATM   44  C   UNK N   1      22.093  14.584   6.657  0.00  0.00     0.182 C 
BRANCH  42  45
HETATM   45  N   UNK N   1      22.828  17.535   4.634  0.00  0.00    -0.297 N 
HETATM   46  C   UNK N   1      21.950  18.235   3.890  0.00  0.00     0.159 A 
HETATM   47  N   UNK N   1      20.699  17.884   3.513  0.00  0.00    -0.174 N 
HETATM   48  C   UNK N   1      22.493  19.420   3.550  0.00  0.00     0.147 A 
HETATM   49  C   UNK N   1      19.960  18.764   2.775  0.00  0.00     0.680 A 
HETATM   50  H   UNK N   1      20.326  17.008   3.767  0.00  0.00     0.186 HD
HETATM   51  N   UNK N   1      20.490  19.977   2.411  0.00  0.00    -0.154 N 
HETATM   52  N   UNK N   1      18.645  18.429   2.399  0.00  0.00    -0.234 N 
HETATM   53  C   UNK N   1      21.768  20.327   2.788  0.00  0.00     0.290 A 
ATOM     54  HN  UNK N   1      19.931  20.626   1.857  1.00  0.00     0.187 HD
HETATM   55  O   UNK N   1      22.238  21.402   2.463  0.00  0.00    -0.265 OA
HETATM   56  H   UNK N   1      18.254  17.572   2.684  0.00  0.00     0.174 HD
HETATM   57  H   UNK N   1      18.116  19.053   1.850  0.00  0.00     0.174 HD
HETATM   58  N   UNK N   1      23.734  19.517   4.056  0.00  0.00    -0.345 N 
HETATM   59  C   UNK N   1      23.919  18.341   4.724  0.00  0.00     0.188 A 
ATOM     60  HN  UNK N   1      24.390  20.292   3.962  1.00  0.00     0.167 HD
ENDBRANCH  42  45
BRANCH  43  61
HETATM   61  O   UNK N   1      21.545  16.771   7.251  0.00  0.00    -0.388 OA
HETATM   62  H   UNK N   1      21.472  16.619   8.206  0.00  0.00     0.210 HD
ENDBRANCH  43  61
BRANCH  44  63
HETATM   63  O   UNK N   1      21.444  14.151   7.814  0.00  0.00    -0.390 OA
HETATM   64  H   UNK N   1      20.907  13.344   7.795  0.00  0.00     0.210 HD
ENDBRANCH  44  63
ENDBRANCH  39  40
ENDBRANCH  38  39
ENDBRANCH  36  38
BRANCH  36  65
HETATM   65  O   UNK N   1      25.519  13.093   6.403  0.00  0.00    -0.307 OA
HETATM   66  H   UNK N   1      25.971  13.063   7.261  0.00  0.00     0.222 HD
ENDBRANCH  36  65
ENDBRANCH  35  36
ENDBRANCH   1  35
BRANCH   1  67
HETATM   67  O   UNK N   1      25.578  14.445   3.907  0.00  0.00    -0.307 OA
HETATM   68  H   UNK N   1      25.813  15.360   3.688  0.00  0.00     0.222 HD
ENDBRANCH   1  67
TORSDOF 19
ENDMDL
MODEL 6
REMARK VINA RESULT:      -7.4      2.922      4.403
REMARK  19 active torsions:
REMARK  status: ('A' for Active; 'I' for Inactive)
REMARK    1  A    between atoms: P_1  and  O_10 
REMARK    2  A    between atoms: P_1  and  O_12 
REMARK    3  A    between atoms: P_1  and  O_14 
REMARK    4  A    between atoms: P_2  and  O_11 
REMARK    5  A    between atoms: P_2  and  O_13 
REMARK    6  A    between atoms: P_2  and  O_15 
REMARK    7  A    between atoms: P_3  and  O_12 
REMARK    8  A    between atoms: P_3  and  O_13 
REMARK    9  A    between atoms: P_3  and  O_20 
REMARK   10  A    between atoms: C_36  and  O_6 
REMARK   11  A    between atoms: C_37  and  O_7 
REMARK   12  A    between atoms: C_38  and  O_8 
REMARK   13  A    between atoms: C_39  and  O_9 
REMARK   14  A    between atoms: O_10  and  C_44 
REMARK   15  A    between atoms: O_11  and  C_45 
REMARK   16  A    between atoms: C_40  and  N_22 
REMARK   17  A    between atoms: C_41  and  N_23 
REMARK       I    between atoms: N_34  and  C_54 
REMARK       I    between atoms: N_35  and  C_55 
REMARK   18  A    between atoms: C_42  and  C_44 
REMARK   19  A    between atoms: C_43  and  C_45 
ROOT
HETATM    1  P   UNK N   1      23.068  13.152   6.864  0.00  0.00     0.410 P 
HETATM    2  O   UNK N   1      22.735  11.637   6.971  0.00  0.00    -0.631 OA
ENDROOT
BRANCH   1   3
HETATM    3  O   UNK N   1      21.312  13.127   6.799  0.00  0.00    -0.195 OA
BRANCH   3   4
HETATM    4  P   UNK N   1      20.663  14.722   7.178  0.00  0.00     0.401 P 
HETATM    5  O   UNK N   1      19.546  14.965   6.128  0.00  0.00    -0.631 OA
BRANCH   4   6
HETATM    6  O   UNK N   1      21.728  16.106   7.033  0.00  0.00    -0.294 OA
BRANCH   6   7
HETATM    7  C   UNK N   1      20.984  17.223   6.614  0.00  0.00     0.215 C 
BRANCH   7   8
HETATM    8  C   UNK N   1      21.773  18.186   5.696  0.00  0.00     0.180 C 
HETATM    9  O   UNK N   1      21.088  18.315   4.490  0.00  0.00    -0.353 OA
HETATM   10  C   UNK N   1      21.499  17.131   3.899  0.00  0.00     0.262 C 
HETATM   11  C   UNK N   1      22.989  17.146   3.888  0.00  0.00     0.198 C 
HETATM   12  C   UNK N   1      23.152  17.593   5.338  0.00  0.00     0.182 C 
BRANCH  10  13
HETATM   13  N   UNK N   1      20.647  16.694   2.814  0.00  0.00    -0.297 N 
HETATM   14  C   UNK N   1      20.329  15.413   2.632  0.00  0.00     0.159 A 
HETATM   15  N   UNK N   1      20.653  14.370   3.428  0.00  0.00    -0.174 N 
HETATM   16  C   UNK N   1      19.630  15.284   1.497  0.00  0.00     0.147 A 
HETATM   17  C   UNK N   1      20.238  13.121   3.065  0.00  0.00     0.680 A 
HETATM   18  H   UNK N   1      21.175  14.507   4.252  0.00  0.00     0.186 HD
HETATM   19  N   UNK N   1      19.528  12.947   1.901  0.00  0.00    -0.154 N 
HETATM   20  N   UNK N   1      20.539  12.017   3.884  0.00  0.00    -0.234 N 
HETATM   21  C   UNK N   1      19.215  14.021   1.095  0.00  0.00     0.290 A 
ATOM     22  HN  UNK N   1      19.229  12.010   1.629  1.00  0.00     0.187 HD
HETATM   23  O   UNK N   1      18.597  13.861   0.057  0.00  0.00    -0.265 OA
HETATM   24  H   UNK N   1      21.085  12.137   4.694  0.00  0.00     0.174 HD
HETATM   25  H   UNK N   1      20.203  11.124   3.646  0.00  0.00     0.174 HD
HETATM   26  N   UNK N   1      19.471  16.493   0.920  0.00  0.00    -0.345 N 
HETATM   27  C   UNK N   1      20.118  17.358   1.761  0.00  0.00     0.188 A 
ATOM     28  HN  UNK N   1      18.979  16.713   0.054  1.00  0.00     0.167 HD
ENDBRANCH  10  13
BRANCH  11  29
HETATM   29  O   UNK N   1      23.503  15.862   3.717  0.00  0.00    -0.388 OA
HETATM   30  H   UNK N   1      24.203  15.270   4.035  0.00  0.00     0.210 HD
ENDBRANCH  11  29
BRANCH  12  31
HETATM   31  O   UNK N   1      24.138  18.575   5.425  0.00  0.00    -0.390 OA
HETATM   32  H   UNK N   1      24.189  19.401   5.930  0.00  0.00     0.210 HD
ENDBRANCH  12  31
ENDBRANCH   7   8
ENDBRANCH   6   7
ENDBRANCH   4   6
BRANCH   4  33
HETATM   33  O   UNK N   1      19.823  14.732   8.699  0.00  0.00    -0.307 OA
HETATM   34  H   UNK N   1      19.377  14.998   9.518  0.00  0.00     0.222 HD
ENDBRANCH   4  33
ENDBRANCH   3   4
ENDBRANCH   1   3
BRANCH   1  35
HETATM   35  O   UNK N   1      24.047  12.448   5.541  0.00  0.00    -0.195 OA
BRANCH  35  36
HETATM   36  P   UNK N   1      25.640  13.130   5.056  0.00  0.00     0.401 P 
HETATM   37  O   UNK N   1      25.326  14.521   5.660  0.00  0.00    -0.631 OA
BRANCH  36  38
HETATM   38  O   UNK N   1      26.003  14.145   3.688  0.00  0.00    -0.294 OA
BRANCH  38  39
HETATM   39  C   UNK N   1      27.396  14.176   3.513  0.00  0.00     0.215 C 
BRANCH  39  40
HETATM   40  C   UNK N   1      28.113  15.339   4.211  0.00  0.00     0.180 C 
HETATM   41  O   UNK N   1      29.529  15.314   4.146  0.00  0.00    -0.353 OA
HETATM   42  C   UNK N   1      29.890  16.667   3.910  0.00  0.00     0.262 C 
HETATM   43  C   UNK N   1      28.689  17.563   4.211  0.00  0.00     0.198 C 
HETATM   44  C   UNK N   1      27.663  16.659   3.628  0.00  0.00     0.182 C 
BRANCH  42  45
HETATM   45  N   UNK N   1      31.187  17.030   4.508  0.00  0.00    -0.297 N 
HETATM   46  C   UNK N   1      31.583  17.128   5.792  0.00  0.00     0.159 A 
HETATM   47  N   UNK N   1      30.872  16.867   6.914  0.00  0.00    -0.174 N 
HETATM   48  C   UNK N   1      32.868  17.529   5.838  0.00  0.00     0.147 A 
HETATM   49  C   UNK N   1      31.481  17.004   8.128  0.00  0.00     0.680 A 
HETATM   50  H   UNK N   1      29.931  16.583   6.855  0.00  0.00     0.186 HD
HETATM   51  N   UNK N   1      32.788  17.416   8.205  0.00  0.00    -0.154 N 
HETATM   52  N   UNK N   1      30.766  16.709   9.305  0.00  0.00    -0.234 N 
HETATM   53  C   UNK N   1      33.506  17.690   7.061  0.00  0.00     0.290 A 
ATOM     54  HN  UNK N   1      33.233  17.518   9.117  1.00  0.00     0.187 HD
HETATM   55  O   UNK N   1      34.665  18.056   7.129  0.00  0.00    -0.265 OA
HETATM   56  H   UNK N   1      29.838  16.387   9.250  0.00  0.00     0.174 HD
HETATM   57  H   UNK N   1      31.196  16.826  10.184  0.00  0.00     0.174 HD
HETATM   58  N   UNK N   1      33.336  17.708   4.591  0.00  0.00    -0.345 N 
HETATM   59  C   UNK N   1      32.281  17.392   3.785  0.00  0.00     0.188 A 
ATOM     60  HN  UNK N   1      34.268  18.013   4.310  1.00  0.00     0.167 HD
ENDBRANCH  42  45
BRANCH  43  61
HETATM   61  O   UNK N   1      28.444  17.655   5.585  0.00  0.00    -0.388 OA
HETATM   62  H   UNK N   1      27.765  18.129   6.092  0.00  0.00     0.210 HD
ENDBRANCH  43  61
BRANCH  44  63
HETATM   63  O   UNK N   1      26.366  16.989   4.026  0.00  0.00    -0.390 OA
HETATM   64  H   UNK N   1      25.609  16.712   3.489  0.00  0.00     0.210 HD
ENDBRANCH  44  63
ENDBRANCH  39  40
ENDBRANCH  38  39
ENDBRANCH  36  38
BRANCH  36  65
HETATM   65  O   UNK N   1      24.553  12.965   3.706  0.00  0.00    -0.307 OA
HETATM   66  H   UNK N   1      23.624  12.688   3.751  0.00  0.00     0.222 HD
ENDBRANCH  36  65
ENDBRANCH  35  36
ENDBRANCH   1  35
BRANCH   1  67
HETATM   67  O   UNK N   1      22.535  14.050   5.473  0.00  0.00    -0.307 OA
HETATM   68  H   UNK N   1      21.621  14.335   5.312  0.00  0.00     0.222 HD
ENDBRANCH   1  67
TORSDOF 19
ENDMDL
MODEL 7
REMARK VINA RESULT:      -7.4      2.867      4.937
REMARK  19 active torsions:
REMARK  status: ('A' for Active; 'I' for Inactive)
REMARK    1  A    between atoms: P_1  and  O_10 
REMARK    2  A    between atoms: P_1  and  O_12 
REMARK    3  A    between atoms: P_1  and  O_14 
REMARK    4  A    between atoms: P_2  and  O_11 
REMARK    5  A    between atoms: P_2  and  O_13 
REMARK    6  A    between atoms: P_2  and  O_15 
REMARK    7  A    between atoms: P_3  and  O_12 
REMARK    8  A    between atoms: P_3  and  O_13 
REMARK    9  A    between atoms: P_3  and  O_20 
REMARK   10  A    between atoms: C_36  and  O_6 
REMARK   11  A    between atoms: C_37  and  O_7 
REMARK   12  A    between atoms: C_38  and  O_8 
REMARK   13  A    between atoms: C_39  and  O_9 
REMARK   14  A    between atoms: O_10  and  C_44 
REMARK   15  A    between atoms: O_11  and  C_45 
REMARK   16  A    between atoms: C_40  and  N_22 
REMARK   17  A    between atoms: C_41  and  N_23 
REMARK       I    between atoms: N_34  and  C_54 
REMARK       I    between atoms: N_35  and  C_55 
REMARK   18  A    between atoms: C_42  and  C_44 
REMARK   19  A    between atoms: C_43  and  C_45 
ROOT
HETATM    1  P   UNK N   1      22.114  17.989   4.346  0.00  0.00     0.410 P 
HETATM    2  O   UNK N   1      21.191  17.990   3.095  0.00  0.00    -0.631 OA
ENDROOT
BRANCH   1   3
HETATM    3  O   UNK N   1      20.530  17.640   5.022  0.00  0.00    -0.195 OA
BRANCH   3   4
HETATM    4  P   UNK N   1      20.695  16.889   6.610  0.00  0.00     0.401 P 
HETATM    5  O   UNK N   1      22.204  16.548   6.742  0.00  0.00    -0.631 OA
BRANCH   4   6
HETATM    6  O   UNK N   1      19.862  15.375   6.901  0.00  0.00    -0.294 OA
BRANCH   6   7
HETATM    7  C   UNK N   1      20.706  14.306   6.551  0.00  0.00     0.215 C 
BRANCH   7   8
HETATM    8  C   UNK N   1      20.095  13.351   5.499  0.00  0.00     0.180 C 
HETATM    9  O   UNK N   1      21.084  13.003   4.583  0.00  0.00    -0.353 OA
HETATM   10  C   UNK N   1      21.058  14.155   3.813  0.00  0.00     0.262 C 
HETATM   11  C   UNK N   1      19.658  14.323   3.332  0.00  0.00     0.198 C 
HETATM   12  C   UNK N   1      18.997  14.066   4.684  0.00  0.00     0.182 C 
BRANCH  10  13
HETATM   13  N   UNK N   1      22.254  14.358   3.025  0.00  0.00    -0.297 N 
HETATM   14  C   UNK N   1      23.398  14.776   3.566  0.00  0.00     0.159 A 
HETATM   15  N   UNK N   1      23.653  14.989   4.876  0.00  0.00    -0.174 N 
HETATM   16  C   UNK N   1      24.299  14.986   2.597  0.00  0.00     0.147 A 
HETATM   17  C   UNK N   1      24.895  15.429   5.234  0.00  0.00     0.680 A 
HETATM   18  H   UNK N   1      22.960  14.828   5.557  0.00  0.00     0.186 HD
HETATM   19  N   UNK N   1      25.843  15.667   4.267  0.00  0.00    -0.154 N 
HETATM   20  N   UNK N   1      25.199  15.638   6.592  0.00  0.00    -0.234 N 
HETATM   21  C   UNK N   1      25.563  15.454   2.934  0.00  0.00     0.290 A 
ATOM     22  HN  UNK N   1      26.766  16.004   4.540  1.00  0.00     0.187 HD
HETATM   23  O   UNK N   1      26.401  15.679   2.078  0.00  0.00    -0.265 OA
HETATM   24  H   UNK N   1      24.507  15.509   7.279  0.00  0.00     0.174 HD
HETATM   25  H   UNK N   1      26.107  15.912   6.855  0.00  0.00     0.174 HD
HETATM   26  N   UNK N   1      23.754  14.695   1.397  0.00  0.00    -0.345 N 
HETATM   27  C   UNK N   1      22.475  14.307   1.692  0.00  0.00     0.188 A 
ATOM     28  HN  UNK N   1      24.196  14.750   0.480  1.00  0.00     0.167 HD
ENDBRANCH  10  13
BRANCH  11  29
HETATM   29  O   UNK N   1      19.422  15.634   2.921  0.00  0.00    -0.388 OA
HETATM   30  H   UNK N   1      19.530  16.555   3.204  0.00  0.00     0.210 HD
ENDBRANCH  11  29
BRANCH  12  31
HETATM   31  O   UNK N   1      17.893  13.230   4.522  0.00  0.00    -0.390 OA
HETATM   32  H   UNK N   1      17.086  13.315   3.991  0.00  0.00     0.210 HD
ENDBRANCH  12  31
ENDBRANCH   7   8
ENDBRANCH   6   7
ENDBRANCH   4   6
BRANCH   4  33
HETATM   33  O   UNK N   1      20.404  18.023   7.893  0.00  0.00    -0.307 OA
HETATM   34  H   UNK N   1      19.991  18.613   8.542  0.00  0.00     0.222 HD
ENDBRANCH   4  33
ENDBRANCH   3   4
ENDBRANCH   1   3
BRANCH   1  35
HETATM   35  O   UNK N   1      22.467  19.582   3.608  0.00  0.00    -0.195 OA
BRANCH  35  36
HETATM   36  P   UNK N   1      24.138  20.239   3.495  0.00  0.00     0.401 P 
HETATM   37  O   UNK N   1      23.998  20.573   1.989  0.00  0.00    -0.631 OA
BRANCH  36  38
HETATM   38  O   UNK N   1      25.563  19.451   2.874  0.00  0.00    -0.294 OA
BRANCH  38  39
HETATM   39  C   UNK N   1      26.669  19.869   3.630  0.00  0.00     0.215 C 
BRANCH  39  40
HETATM   40  C   UNK N   1      27.141  18.871   4.696  0.00  0.00     0.180 C 
HETATM   41  O   UNK N   1      28.221  18.033   4.316  0.00  0.00    -0.353 OA
HETATM   42  C   UNK N   1      29.046  17.985   5.470  0.00  0.00     0.262 C 
HETATM   43  C   UNK N   1      28.254  18.501   6.672  0.00  0.00     0.198 C 
HETATM   44  C   UNK N   1      27.564  19.602   5.949  0.00  0.00     0.182 C 
BRANCH  42  45
HETATM   45  N   UNK N   1      29.761  16.704   5.616  0.00  0.00    -0.297 N 
HETATM   46  C   UNK N   1      29.796  15.608   4.835  0.00  0.00     0.159 A 
HETATM   47  N   UNK N   1      29.190  15.404   3.642  0.00  0.00    -0.174 N 
HETATM   48  C   UNK N   1      30.575  14.670   5.409  0.00  0.00     0.147 A 
HETATM   49  C   UNK N   1      29.383  14.216   2.997  0.00  0.00     0.680 A 
HETATM   50  H   UNK N   1      28.618  16.101   3.246  0.00  0.00     0.186 HD
HETATM   51  N   UNK N   1      30.168  13.242   3.561  0.00  0.00    -0.154 N 
HETATM   52  N   UNK N   1      28.784  13.998   1.741  0.00  0.00    -0.234 N 
HETATM   53  C   UNK N   1      30.776  13.449   4.781  0.00  0.00     0.290 A 
ATOM     54  HN  UNK N   1      30.304  12.357   3.073  1.00  0.00     0.187 HD
HETATM   55  O   UNK N   1      31.472  12.583   5.281  0.00  0.00    -0.265 OA
HETATM   56  H   UNK N   1      28.244  14.706   1.323  0.00  0.00     0.174 HD
HETATM   57  H   UNK N   1      28.905  13.134   1.282  0.00  0.00     0.174 HD
HETATM   58  N   UNK N   1      31.058  15.130   6.576  0.00  0.00    -0.345 N 
HETATM   59  C   UNK N   1      30.544  16.389   6.682  0.00  0.00     0.188 A 
ATOM     60  HN  UNK N   1      31.669  14.646   7.234  1.00  0.00     0.167 HD
ENDBRANCH  42  45
BRANCH  43  61
HETATM   61  O   UNK N   1      27.280  17.584   7.081  0.00  0.00    -0.388 OA
HETATM   62  H   UNK N   1      26.393  17.705   7.455  0.00  0.00     0.210 HD
ENDBRANCH  43  61
BRANCH  44  63
HETATM   63  O   UNK N   1      26.468  20.104   6.653  0.00  0.00    -0.390 OA
HETATM   64  H   UNK N   1      26.197  21.027   6.535  0.00  0.00     0.210 HD
ENDBRANCH  44  63
ENDBRANCH  39  40
ENDBRANCH  38  39
ENDBRANCH  36  38
BRANCH  36  65
HETATM   65  O   UNK N   1      24.115  18.499   3.578  0.00  0.00    -0.307 OA
HETATM   66  H   UNK N   1      23.470  17.916   3.149  0.00  0.00     0.222 HD
ENDBRANCH  36  65
ENDBRANCH  35  36
ENDBRANCH   1  35
BRANCH   1  67
HETATM   67  O   UNK N   1      21.792  19.095   5.650  0.00  0.00    -0.307 OA
HETATM   68  H   UNK N   1      20.916  19.438   5.884  0.00  0.00     0.222 HD
ENDBRANCH   1  67
TORSDOF 19
ENDMDL
MODEL 8
REMARK VINA RESULT:      -7.4      1.625      2.329
REMARK  19 active torsions:
REMARK  status: ('A' for Active; 'I' for Inactive)
REMARK    1  A    between atoms: P_1  and  O_10 
REMARK    2  A    between atoms: P_1  and  O_12 
REMARK    3  A    between atoms: P_1  and  O_14 
REMARK    4  A    between atoms: P_2  and  O_11 
REMARK    5  A    between atoms: P_2  and  O_13 
REMARK    6  A    between atoms: P_2  and  O_15 
REMARK    7  A    between atoms: P_3  and  O_12 
REMARK    8  A    between atoms: P_3  and  O_13 
REMARK    9  A    between atoms: P_3  and  O_20 
REMARK   10  A    between atoms: C_36  and  O_6 
REMARK   11  A    between atoms: C_37  and  O_7 
REMARK   12  A    between atoms: C_38  and  O_8 
REMARK   13  A    between atoms: C_39  and  O_9 
REMARK   14  A    between atoms: O_10  and  C_44 
REMARK   15  A    between atoms: O_11  and  C_45 
REMARK   16  A    between atoms: C_40  and  N_22 
REMARK   17  A    between atoms: C_41  and  N_23 
REMARK       I    between atoms: N_34  and  C_54 
REMARK       I    between atoms: N_35  and  C_55 
REMARK   18  A    between atoms: C_42  and  C_44 
REMARK   19  A    between atoms: C_43  and  C_45 
ROOT
HETATM    1  P   UNK N   1      23.157  14.501   6.852  0.00  0.00     0.410 P 
HETATM    2  O   UNK N   1      22.821  13.170   7.582  0.00  0.00    -0.631 OA
ENDROOT
BRANCH   1   3
HETATM    3  O   UNK N   1      21.479  14.720   7.321  0.00  0.00    -0.195 OA
BRANCH   3   4
HETATM    4  P   UNK N   1      21.030  16.422   7.213  0.00  0.00     0.401 P 
HETATM    5  O   UNK N   1      19.739  16.447   6.352  0.00  0.00    -0.631 OA
BRANCH   4   6
HETATM    6  O   UNK N   1      22.132  17.520   6.406  0.00  0.00    -0.294 OA
BRANCH   6   7
HETATM    7  C   UNK N   1      21.393  18.496   5.715  0.00  0.00     0.215 C 
BRANCH   7   8
HETATM    8  C   UNK N   1      21.420  18.323   4.178  0.00  0.00     0.180 C 
HETATM    9  O   UNK N   1      22.563  17.607   3.829  0.00  0.00    -0.353 OA
HETATM   10  C   UNK N   1      23.479  18.643   3.906  0.00  0.00     0.262 C 
HETATM   11  C   UNK N   1      22.996  19.718   2.995  0.00  0.00     0.198 C 
HETATM   12  C   UNK N   1      21.548  19.690   3.475  0.00  0.00     0.182 C 
BRANCH  10  13
HETATM   13  N   UNK N   1      24.850  18.201   4.044  0.00  0.00    -0.297 N 
HETATM   14  C   UNK N   1      25.722  18.824   4.835  0.00  0.00     0.159 A 
HETATM   15  N   UNK N   1      25.475  19.862   5.666  0.00  0.00    -0.174 N 
HETATM   16  C   UNK N   1      26.934  18.276   4.682  0.00  0.00     0.147 A 
HETATM   17  C   UNK N   1      26.509  20.372   6.395  0.00  0.00     0.680 A 
HETATM   18  H   UNK N   1      24.568  20.240   5.745  0.00  0.00     0.186 HD
HETATM   19  N   UNK N   1      27.771  19.844   6.257  0.00  0.00    -0.154 N 
HETATM   20  N   UNK N   1      26.281  21.437   7.285  0.00  0.00    -0.234 N 
HETATM   21  C   UNK N   1      28.008  18.792   5.398  0.00  0.00     0.290 A 
ATOM     22  HN  UNK N   1      28.543  20.235   6.797  1.00  0.00     0.187 HD
HETATM   23  O   UNK N   1      29.130  18.335   5.267  0.00  0.00    -0.265 OA
HETATM   24  H   UNK N   1      25.386  21.843   7.351  0.00  0.00     0.174 HD
HETATM   25  H   UNK N   1      27.016  21.776   7.844  0.00  0.00     0.174 HD
HETATM   26  N   UNK N   1      26.870  17.270   3.786  0.00  0.00    -0.345 N 
HETATM   27  C   UNK N   1      25.557  17.244   3.400  0.00  0.00     0.188 A 
ATOM     28  HN  UNK N   1      27.628  16.665   3.470  1.00  0.00     0.167 HD
ENDBRANCH  10  13
BRANCH  11  29
HETATM   29  O   UNK N   1      23.585  20.943   3.306  0.00  0.00    -0.388 OA
HETATM   30  H   UNK N   1      23.842  21.790   2.910  0.00  0.00     0.210 HD
ENDBRANCH  11  29
BRANCH  12  31
HETATM   31  O   UNK N   1      20.683  19.755   2.383  0.00  0.00    -0.390 OA
HETATM   32  H   UNK N   1      20.790  20.120   1.491  0.00  0.00     0.210 HD
ENDBRANCH  12  31
ENDBRANCH   7   8
ENDBRANCH   6   7
ENDBRANCH   4   6
BRANCH   4  33
HETATM   33  O   UNK N   1      20.526  17.055   8.750  0.00  0.00    -0.307 OA
HETATM   34  H   UNK N   1      20.502  17.449   9.636  0.00  0.00     0.222 HD
ENDBRANCH   4  33
ENDBRANCH   3   4
ENDBRANCH   1   3
BRANCH   1  35
HETATM   35  O   UNK N   1      23.620  13.268   5.638  0.00  0.00    -0.195 OA
BRANCH  35  36
HETATM   36  P   UNK N   1      25.335  12.942   5.205  0.00  0.00     0.401 P 
HETATM   37  O   UNK N   1      25.883  13.772   6.392  0.00  0.00    -0.631 OA
BRANCH  36  38
HETATM   38  O   UNK N   1      26.447  13.983   4.361  0.00  0.00    -0.294 OA
BRANCH  38  39
HETATM   39  C   UNK N   1      27.744  13.727   4.832  0.00  0.00     0.215 C 
BRANCH  39  40
HETATM   40  C   UNK N   1      28.782  14.807   4.498  0.00  0.00     0.180 C 
HETATM   41  O   UNK N   1      29.912  14.857   5.353  0.00  0.00    -0.353 OA
HETATM   42  C   UNK N   1      31.004  15.081   4.473  0.00  0.00     0.262 C 
HETATM   43  C   UNK N   1      30.466  15.540   3.118  0.00  0.00     0.198 C 
HETATM   44  C   UNK N   1      29.297  14.623   3.089  0.00  0.00     0.182 C 
BRANCH  42  45
HETATM   45  N   UNK N   1      32.088  15.868   5.087  0.00  0.00    -0.297 N 
HETATM   46  C   UNK N   1      32.129  16.605   6.214  0.00  0.00     0.159 A 
HETATM   47  N   UNK N   1      31.155  16.788   7.135  0.00  0.00    -0.174 N 
HETATM   48  C   UNK N   1      33.346  17.169   6.340  0.00  0.00     0.147 A 
HETATM   49  C   UNK N   1      31.418  17.559   8.231  0.00  0.00     0.680 A 
HETATM   50  H   UNK N   1      30.270  16.372   7.017  0.00  0.00     0.186 HD
HETATM   51  N   UNK N   1      32.648  18.150   8.382  0.00  0.00    -0.154 N 
HETATM   52  N   UNK N   1      30.426  17.737   9.215  0.00  0.00    -0.234 N 
HETATM   53  C   UNK N   1      33.634  17.969   7.436  0.00  0.00     0.290 A 
ATOM     54  HN  UNK N   1      32.834  18.727   9.202  1.00  0.00     0.187 HD
HETATM   55  O   UNK N   1      34.725  18.495   7.571  0.00  0.00    -0.265 OA
HETATM   56  H   UNK N   1      29.554  17.291   9.122  0.00  0.00     0.174 HD
HETATM   57  H   UNK N   1      30.606  18.308   9.997  0.00  0.00     0.174 HD
HETATM   58  N   UNK N   1      34.120  16.821   5.298  0.00  0.00    -0.345 N 
HETATM   59  C   UNK N   1      33.324  16.015   4.538  0.00  0.00     0.188 A 
ATOM     60  HN  UNK N   1      35.085  17.097   5.116  1.00  0.00     0.167 HD
ENDBRANCH  42  45
BRANCH  43  61
HETATM   61  O   UNK N   1      29.979  16.850   3.173  0.00  0.00    -0.388 OA
HETATM   62  H   UNK N   1      29.684  17.401   3.915  0.00  0.00     0.210 HD
ENDBRANCH  43  61
BRANCH  44  63
HETATM   63  O   UNK N   1      28.347  14.993   2.135  0.00  0.00    -0.390 OA
HETATM   64  H   UNK N   1      27.419  14.737   2.251  0.00  0.00     0.210 HD
ENDBRANCH  44  63
ENDBRANCH  39  40
ENDBRANCH  38  39
ENDBRANCH  36  38
BRANCH  36  65
HETATM   65  O   UNK N   1      24.594  14.104   4.142  0.00  0.00    -0.307 OA
HETATM   66  H   UNK N   1      24.944  14.400   3.287  0.00  0.00     0.222 HD
ENDBRANCH  36  65
ENDBRANCH  35  36
ENDBRANCH   1  35
BRANCH   1  67
HETATM   67  O   UNK N   1      22.231  14.970   5.456  0.00  0.00    -0.307 OA
HETATM   68  H   UNK N   1      21.796  15.830   5.341  0.00  0.00     0.222 HD
ENDBRANCH   1  67
TORSDOF 19
ENDMDL
MODEL 9
REMARK VINA RESULT:      -7.4      7.099     10.759
REMARK  19 active torsions:
REMARK  status: ('A' for Active; 'I' for Inactive)
REMARK    1  A    between atoms: P_1  and  O_10 
REMARK    2  A    between atoms: P_1  and  O_12 
REMARK    3  A    between atoms: P_1  and  O_14 
REMARK    4  A    between atoms: P_2  and  O_11 
REMARK    5  A    between atoms: P_2  and  O_13 
REMARK    6  A    between atoms: P_2  and  O_15 
REMARK    7  A    between atoms: P_3  and  O_12 
REMARK    8  A    between atoms: P_3  and  O_13 
REMARK    9  A    between atoms: P_3  and  O_20 
REMARK   10  A    between atoms: C_36  and  O_6 
REMARK   11  A    between atoms: C_37  and  O_7 
REMARK   12  A    between atoms: C_38  and  O_8 
REMARK   13  A    between atoms: C_39  and  O_9 
REMARK   14  A    between atoms: O_10  and  C_44 
REMARK   15  A    between atoms: O_11  and  C_45 
REMARK   16  A    between atoms: C_40  and  N_22 
REMARK   17  A    between atoms: C_41  and  N_23 
REMARK       I    between atoms: N_34  and  C_54 
REMARK       I    between atoms: N_35  and  C_55 
REMARK   18  A    between atoms: C_42  and  C_44 
REMARK   19  A    between atoms: C_43  and  C_45 
ROOT
HETATM    1  P   UNK N   1      33.689  17.208   7.032  0.00  0.00     0.410 P 
HETATM    2  O   UNK N   1      32.953  16.406   8.142  0.00  0.00    -0.631 OA
ENDROOT
BRANCH   1   3
HETATM    3  O   UNK N   1      32.991  15.859   6.149  0.00  0.00    -0.195 OA
BRANCH   3   4
HETATM    4  P   UNK N   1      32.567  16.354   4.511  0.00  0.00     0.401 P 
HETATM    5  O   UNK N   1      32.811  17.887   4.474  0.00  0.00    -0.631 OA
BRANCH   4   6
HETATM    6  O   UNK N   1      30.908  16.148   3.986  0.00  0.00    -0.294 OA
BRANCH   6   7
HETATM    7  C   UNK N   1      30.066  16.940   4.785  0.00  0.00     0.215 C 
BRANCH   7   8
HETATM    8  C   UNK N   1      29.737  16.306   6.158  0.00  0.00     0.180 C 
HETATM    9  O   UNK N   1      28.485  15.700   6.082  0.00  0.00    -0.353 OA
HETATM   10  C   UNK N   1      27.705  16.836   6.220  0.00  0.00     0.262 C 
HETATM   11  C   UNK N   1      28.112  17.490   7.495  0.00  0.00     0.198 C 
HETATM   12  C   UNK N   1      29.615  17.392   7.247  0.00  0.00     0.182 C 
BRANCH  10  13
HETATM   13  N   UNK N   1      26.347  16.672   5.749  0.00  0.00    -0.297 N 
HETATM   14  C   UNK N   1      25.746  17.580   4.981  0.00  0.00     0.159 A 
HETATM   15  N   UNK N   1      26.293  18.705   4.465  0.00  0.00    -0.174 N 
HETATM   16  C   UNK N   1      24.468  17.229   4.790  0.00  0.00     0.147 A 
HETATM   17  C   UNK N   1      25.507  19.519   3.703  0.00  0.00     0.680 A 
HETATM   18  H   UNK N   1      27.237  18.929   4.634  0.00  0.00     0.186 HD
HETATM   19  N   UNK N   1      24.187  19.199   3.494  0.00  0.00    -0.154 N 
HETATM   20  N   UNK N   1      26.052  20.685   3.133  0.00  0.00    -0.234 N 
HETATM   21  C   UNK N   1      23.642  18.053   4.035  0.00  0.00     0.290 A 
ATOM     22  HN  UNK N   1      23.602  19.816   2.931  1.00  0.00     0.187 HD
HETATM   23  O   UNK N   1      22.468  17.779   3.860  0.00  0.00    -0.265 OA
HETATM   24  H   UNK N   1      26.985  20.936   3.319  0.00  0.00     0.174 HD
HETATM   25  H   UNK N   1      25.499  21.249   2.547  0.00  0.00     0.174 HD
HETATM   26  N   UNK N   1      24.214  16.069   5.430  0.00  0.00    -0.345 N 
HETATM   27  C   UNK N   1      25.403  15.742   6.023  0.00  0.00     0.188 A 
ATOM     28  HN  UNK N   1      23.335  15.552   5.462  1.00  0.00     0.167 HD
ENDBRANCH  10  13
BRANCH  11  29
HETATM   29  O   UNK N   1      27.714  18.826   7.525  0.00  0.00    -0.388 OA
HETATM   30  H   UNK N   1      27.067  19.421   7.935  0.00  0.00     0.210 HD
ENDBRANCH  11  29
BRANCH  12  31
HETATM   31  O   UNK N   1      30.264  16.984   8.412  0.00  0.00    -0.390 OA
HETATM   32  H   UNK N   1      30.219  17.304   9.326  0.00  0.00     0.210 HD
ENDBRANCH  12  31
ENDBRANCH   7   8
ENDBRANCH   6   7
ENDBRANCH   4   6
BRANCH   4  33
HETATM   33  O   UNK N   1      33.681  15.722   3.337  0.00  0.00    -0.307 OA
HETATM   34  H   UNK N   1      34.368  15.623   2.660  0.00  0.00     0.222 HD
ENDBRANCH   4  33
ENDBRANCH   3   4
ENDBRANCH   1   3
BRANCH   1  35
HETATM   35  O   UNK N   1      34.985  16.944   8.240  0.00  0.00    -0.195 OA
BRANCH  35  36
HETATM   36  P   UNK N   1      34.655  16.249   9.866  0.00  0.00     0.401 P 
HETATM   37  O   UNK N   1      35.677  17.178  10.566  0.00  0.00    -0.631 OA
BRANCH  36  38
HETATM   38  O   UNK N   1      35.591  15.068  10.740  0.00  0.00    -0.294 OA
BRANCH  38  39
HETATM   39  C   UNK N   1      34.778  14.501  11.734  0.00  0.00     0.215 C 
BRANCH  39  40
HETATM   40  C   UNK N   1      35.535  13.853  12.901  0.00  0.00     0.180 C 
HETATM   41  O   UNK N   1      34.728  13.206  13.871  0.00  0.00    -0.353 OA
HETATM   42  C   UNK N   1      35.441  12.016  14.178  0.00  0.00     0.262 C 
HETATM   43  C   UNK N   1      36.872  12.143  13.655  0.00  0.00     0.198 C 
HETATM   44  C   UNK N   1      36.519  12.828  12.384  0.00  0.00     0.182 C 
BRANCH  42  45
HETATM   45  N   UNK N   1      35.253  11.574  15.572  0.00  0.00    -0.297 N 
HETATM   46  C   UNK N   1      35.297  12.250  16.736  0.00  0.00     0.159 A 
HETATM   47  N   UNK N   1      35.493  13.574  16.934  0.00  0.00    -0.174 N 
HETATM   48  C   UNK N   1      35.091  11.398  17.759  0.00  0.00     0.147 A 
HETATM   49  C   UNK N   1      35.471  14.062  18.209  0.00  0.00     0.680 A 
HETATM   50  H   UNK N   1      35.650  14.176  16.170  0.00  0.00     0.186 HD
HETATM   51  N   UNK N   1      35.268  13.215  19.270  0.00  0.00    -0.154 N 
HETATM   52  N   UNK N   1      35.643  15.442  18.432  0.00  0.00    -0.234 N 
HETATM   53  C   UNK N   1      35.079  11.866  19.066  0.00  0.00     0.290 A 
ATOM     54  HN  UNK N   1      35.257  13.589  20.219  1.00  0.00     0.187 HD
HETATM   55  O   UNK N   1      34.901  11.115  20.008  0.00  0.00    -0.265 OA
HETATM   56  H   UNK N   1      35.761  16.053  17.670  0.00  0.00     0.174 HD
HETATM   57  H   UNK N   1      35.648  15.795  19.352  0.00  0.00     0.174 HD
HETATM   58  N   UNK N   1      34.917  10.151  17.287  0.00  0.00    -0.345 N 
HETATM   59  C   UNK N   1      35.019  10.284  15.934  0.00  0.00     0.188 A 
ATOM     60  HN  UNK N   1      34.749   9.298  17.821  1.00  0.00     0.167 HD
ENDBRANCH  42  45
BRANCH  43  61
HETATM   61  O   UNK N   1      37.626  13.035  14.425  0.00  0.00    -0.388 OA
HETATM   62  H   UNK N   1      38.471  12.934  14.891  0.00  0.00     0.210 HD
ENDBRANCH  43  61
BRANCH  44  63
HETATM   63  O   UNK N   1      37.621  13.428  11.773  0.00  0.00    -0.390 OA
HETATM   64  H   UNK N   1      37.545  13.781  10.873  0.00  0.00     0.210 HD
ENDBRANCH  44  63
ENDBRANCH  39  40
ENDBRANCH  38  39
ENDBRANCH  36  38
BRANCH  36  65
HETATM   65  O   UNK N   1      35.613  15.186   8.874  0.00  0.00    -0.307 OA
HETATM   66  H   UNK N   1      35.888  15.353   7.959  0.00  0.00     0.222 HD
ENDBRANCH  36  65
ENDBRANCH  35  36
ENDBRANCH   1  35
BRANCH   1  67
HETATM   67  O   UNK N   1      34.934  16.432   6.096  0.00  0.00    -0.307 OA
HETATM   68  H   UNK N   1      34.963  15.485   5.888  0.00  0.00     0.222 HD
ENDBRANCH   1  67
TORSDOF 19
ENDMDL
