MODEL 1
REMARK VINA RESULT:      -6.8      0.000      0.000
REMARK  6 active torsions:
REMARK  status: ('A' for Active; 'I' for Inactive)
REMARK    1  A    between atoms: C_2  and  N_3 
REMARK       I    between atoms: N_3  and  C_4 
REMARK    2  A    between atoms: C_4  and  C_6 
REMARK    3  A    between atoms: C_7  and  C_9 
REMARK    4  A    between atoms: C_10  and  C_11 
REMARK    5  A    between atoms: C_12  and  C_14 
REMARK    6  A    between atoms: C_15  and  C_16 
ROOT
HETATM    1  C   UNK N   1      26.163  20.997   5.219  0.00  0.00     0.007 C 
HETATM    2  C   UNK N   1      26.730  20.848   6.437  0.00  0.00    -0.062 C 
HETATM    3  C   UNK N   1      26.088  21.539   7.590  0.00  0.00     0.048 C 
ENDROOT
BRANCH   2   4
HETATM    4  C   UNK N   1      27.967  20.059   6.711  0.00  0.00     0.007 C 
HETATM    5  C   UNK N   1      27.946  18.758   7.018  0.00  0.00     0.009 C 
BRANCH   5   6
HETATM    6  C   UNK N   1      29.141  17.911   7.295  0.00  0.00    -0.048 C 
HETATM    7  C   UNK N   1      29.777  17.341   6.233  0.00  0.00    -0.077 C 
HETATM    8  C   UNK N   1      29.272  17.539   4.836  0.00  0.00     0.044 C 
HETATM    9  C   UNK N   1      31.029  16.518   6.394  0.00  0.00     0.034 C 
HETATM   10  C   UNK N   1      31.769  16.843   7.679  0.00  0.00     0.005 C 
HETATM   11  C   UNK N   1      30.793  16.690   8.825  0.00  0.00     0.014 C 
HETATM   12  C   UNK N   1      29.657  17.713   8.729  0.00  0.00    -0.020 C 
HETATM   13  C   UNK N   1      30.148  19.040   9.286  0.00  0.00     0.020 C 
HETATM   14  C   UNK N   1      28.545  17.193   9.622  0.00  0.00     0.020 C 
ENDBRANCH   5   6
ENDBRANCH   2   4
BRANCH   1  15
HETATM   15  C   UNK N   1      26.643  20.318   3.997  0.00  0.00     0.001 C 
HETATM   16  C   UNK N   1      26.242  19.119   3.543  0.00  0.00     0.007 C 
BRANCH  16  17
HETATM   17  C   UNK N   1      25.196  18.231   4.104  0.00  0.00    -0.057 C 
HETATM   18  C   UNK N   1      23.922  18.655   4.006  0.00  0.00     0.080 C 
HETATM   19  C   UNK N   1      25.549  16.955   4.808  0.00  0.00     0.048 C 
BRANCH  18  20
HETATM   20  C   UNK N   1      22.715  17.990   4.552  0.00  0.00     0.241 C 
HETATM   21  N   UNK N   1      22.474  18.061   5.882  0.00  0.00    -0.358 N 
HETATM   22  H   UNK N   1      23.090  18.576   6.452  0.00  0.00     0.162 HD
HETATM   23  O   UNK N   1      21.962  17.356   3.823  0.00  0.00    -0.269 OA
BRANCH  21  24
HETATM   24  C   UNK N   1      21.341  17.407   6.489  0.00  0.00     0.118 C 
HETATM   25  C   UNK N   1      21.760  16.053   7.024  0.00  0.00     0.026 C 
ENDBRANCH  21  24
ENDBRANCH  18  20
ENDBRANCH  16  17
ENDBRANCH   1  15
TORSDOF 6
ENDMDL
MODEL 2
REMARK VINA RESULT:      -6.7     11.500     14.501
REMARK  6 active torsions:
REMARK  status: ('A' for Active; 'I' for Inactive)
REMARK    1  A    between atoms: C_2  and  N_3 
REMARK       I    between atoms: N_3  and  C_4 
REMARK    2  A    between atoms: C_4  and  C_6 
REMARK    3  A    between atoms: C_7  and  C_9 
REMARK    4  A    between atoms: C_10  and  C_11 
REMARK    5  A    between atoms: C_12  and  C_14 
REMARK    6  A    between atoms: C_15  and  C_16 
ROOT
HETATM    1  C   UNK N   1      26.342  26.855  -7.381  0.00  0.00     0.007 C 
HETATM    2  C   UNK N   1      27.496  27.549  -7.271  0.00  0.00    -0.062 C 
HETATM    3  C   UNK N   1      28.496  27.410  -8.366  0.00  0.00     0.048 C 
ENDROOT
BRANCH   2   4
HETATM    4  C   UNK N   1      27.855  28.430  -6.121  0.00  0.00     0.007 C 
HETATM    5  C   UNK N   1      28.374  27.960  -4.982  0.00  0.00     0.009 C 
BRANCH   5   6
HETATM    6  C   UNK N   1      28.762  28.781  -3.799  0.00  0.00    -0.048 C 
HETATM    7  C   UNK N   1      27.764  29.295  -3.027  0.00  0.00    -0.077 C 
HETATM    8  C   UNK N   1      26.324  29.063  -3.374  0.00  0.00     0.044 C 
HETATM    9  C   UNK N   1      28.043  30.087  -1.776  0.00  0.00     0.034 C 
HETATM   10  C   UNK N   1      29.415  29.785  -1.199  0.00  0.00     0.005 C 
HETATM   11  C   UNK N   1      30.434  30.006  -2.296  0.00  0.00     0.014 C 
HETATM   12  C   UNK N   1      30.239  29.013  -3.446  0.00  0.00    -0.020 C 
HETATM   13  C   UNK N   1      30.890  27.693  -3.066  0.00  0.00     0.020 C 
HETATM   14  C   UNK N   1      30.980  29.596  -4.636  0.00  0.00     0.020 C 
ENDBRANCH   5   6
ENDBRANCH   2   4
BRANCH   1  15
HETATM   15  C   UNK N   1      25.228  26.945  -6.413  0.00  0.00     0.001 C 
HETATM   16  C   UNK N   1      25.022  26.137  -5.360  0.00  0.00     0.007 C 
BRANCH  16  17
HETATM   17  C   UNK N   1      25.874  25.024  -4.879  0.00  0.00    -0.057 C 
HETATM   18  C   UNK N   1      26.579  25.242  -3.753  0.00  0.00     0.080 C 
HETATM   19  C   UNK N   1      25.998  23.744  -5.650  0.00  0.00     0.048 C 
BRANCH  18  20
HETATM   20  C   UNK N   1      27.551  24.322  -3.116  0.00  0.00     0.241 C 
HETATM   21  N   UNK N   1      28.839  24.343  -3.532  0.00  0.00    -0.358 N 
HETATM   22  H   UNK N   1      29.106  24.988  -4.227  0.00  0.00     0.162 HD
HETATM   23  O   UNK N   1      27.196  23.530  -2.253  0.00  0.00    -0.269 OA
BRANCH  21  24
HETATM   24  C   UNK N   1      29.833  23.452  -2.987  0.00  0.00     0.118 C 
HETATM   25  C   UNK N   1      30.086  22.316  -3.956  0.00  0.00     0.026 C 
ENDBRANCH  21  24
ENDBRANCH  18  20
ENDBRANCH  16  17
ENDBRANCH   1  15
TORSDOF 6
ENDMDL
MODEL 3
REMARK VINA RESULT:      -6.5      9.958     13.939
REMARK  6 active torsions:
REMARK  status: ('A' for Active; 'I' for Inactive)
REMARK    1  A    between atoms: C_2  and  N_3 
REMARK       I    between atoms: N_3  and  C_4 
REMARK    2  A    between atoms: C_4  and  C_6 
REMARK    3  A    between atoms: C_7  and  C_9 
REMARK    4  A    between atoms: C_10  and  C_11 
REMARK    5  A    between atoms: C_12  and  C_14 
REMARK    6  A    between atoms: C_15  and  C_16 
ROOT
HETATM    1  C   UNK N   1      35.069  12.422  13.177  0.00  0.00     0.007 C 
HETATM    2  C   UNK N   1      34.483  11.412  13.856  0.00  0.00    -0.062 C 
HETATM    3  C   UNK N   1      33.832  10.330  13.065  0.00  0.00     0.048 C 
ENDROOT
BRANCH   2   4
HETATM    4  C   UNK N   1      34.416  11.310  15.344  0.00  0.00     0.007 C 
HETATM    5  C   UNK N   1      35.505  11.314  16.120  0.00  0.00     0.009 C 
BRANCH   5   6
HETATM    6  C   UNK N   1      35.510  11.224  17.609  0.00  0.00    -0.048 C 
HETATM    7  C   UNK N   1      35.346  12.377  18.316  0.00  0.00    -0.077 C 
HETATM    8  C   UNK N   1      35.192  13.695  17.618  0.00  0.00     0.044 C 
HETATM    9  C   UNK N   1      35.274  12.392  19.822  0.00  0.00     0.034 C 
HETATM   10  C   UNK N   1      34.858  11.047  20.390  0.00  0.00     0.005 C 
HETATM   11  C   UNK N   1      35.803  10.002  19.840  0.00  0.00     0.014 C 
HETATM   12  C   UNK N   1      35.665   9.871  18.320  0.00  0.00    -0.020 C 
HETATM   13  C   UNK N   1      34.464   8.989  18.014  0.00  0.00     0.020 C 
HETATM   14  C   UNK N   1      36.921   9.165  17.841  0.00  0.00     0.020 C 
ENDBRANCH   5   6
ENDBRANCH   2   4
BRANCH   1  15
HETATM   15  C   UNK N   1      35.813  13.527  13.819  0.00  0.00     0.001 C 
HETATM   16  C   UNK N   1      36.265  14.637  13.215  0.00  0.00     0.007 C 
BRANCH  16  17
HETATM   17  C   UNK N   1      36.079  15.054  11.804  0.00  0.00    -0.057 C 
HETATM   18  C   UNK N   1      35.261  16.101  11.584  0.00  0.00     0.080 C 
HETATM   19  C   UNK N   1      36.714  14.300  10.676  0.00  0.00     0.048 C 
BRANCH  18  20
HETATM   20  C   UNK N   1      34.857  16.656  10.270  0.00  0.00     0.241 C 
HETATM   21  N   UNK N   1      33.838  16.070   9.598  0.00  0.00    -0.358 N 
HETATM   22  H   UNK N   1      33.371  15.307  10.011  0.00  0.00     0.162 HD
HETATM   23  O   UNK N   1      35.451  17.607   9.779  0.00  0.00    -0.269 OA
BRANCH  21  24
HETATM   24  C   UNK N   1      33.414  16.531   8.299  0.00  0.00     0.118 C 
HETATM   25  C   UNK N   1      34.022  15.655   7.224  0.00  0.00     0.026 C 
ENDBRANCH  21  24
ENDBRANCH  18  20
ENDBRANCH  16  17
ENDBRANCH   1  15
TORSDOF 6
ENDMDL
MODEL 4
REMARK VINA RESULT:      -6.5     12.414     15.670
REMARK  6 active torsions:
REMARK  status: ('A' for Active; 'I' for Inactive)
REMARK    1  A    between atoms: C_2  and  N_3 
REMARK       I    between atoms: N_3  and  C_4 
REMARK    2  A    between atoms: C_4  and  C_6 
REMARK    3  A    between atoms: C_7  and  C_9 
REMARK    4  A    between atoms: C_10  and  C_11 
REMARK    5  A    between atoms: C_12  and  C_14 
REMARK    6  A    between atoms: C_15  and  C_16 
ROOT
HETATM    1  C   UNK N   1      25.832  24.128  -9.425  0.00  0.00     0.007 C 
HETATM    2  C   UNK N   1      26.164  25.437  -9.379  0.00  0.00    -0.062 C 
HETATM    3  C   UNK N   1      26.786  26.039 -10.591  0.00  0.00     0.048 C 
ENDROOT
BRANCH   2   4
HETATM    4  C   UNK N   1      25.977  26.323  -8.191  0.00  0.00     0.007 C 
HETATM    5  C   UNK N   1      26.978  26.657  -7.370  0.00  0.00     0.009 C 
BRANCH   5   6
HETATM    6  C   UNK N   1      26.863  27.541  -6.174  0.00  0.00    -0.048 C 
HETATM    7  C   UNK N   1      27.618  28.674  -6.146  0.00  0.00    -0.077 C 
HETATM    8  C   UNK N   1      28.554  29.005  -7.270  0.00  0.00     0.044 C 
HETATM    9  C   UNK N   1      27.534  29.668  -5.016  0.00  0.00     0.034 C 
HETATM   10  C   UNK N   1      26.216  29.574  -4.267  0.00  0.00     0.005 C 
HETATM   11  C   UNK N   1      26.039  28.138  -3.825  0.00  0.00     0.014 C 
HETATM   12  C   UNK N   1      25.900  27.199  -5.027  0.00  0.00    -0.020 C 
HETATM   13  C   UNK N   1      24.465  27.254  -5.526  0.00  0.00     0.020 C 
HETATM   14  C   UNK N   1      26.179  25.801  -4.504  0.00  0.00     0.020 C 
ENDBRANCH   5   6
ENDBRANCH   2   4
BRANCH   1  15
HETATM   15  C   UNK N   1      25.146  23.411  -8.330  0.00  0.00     0.001 C 
HETATM   16  C   UNK N   1      25.734  22.704  -7.352  0.00  0.00     0.007 C 
BRANCH  16  17
HETATM   17  C   UNK N   1      27.183  22.527  -7.093  0.00  0.00    -0.057 C 
HETATM   18  C   UNK N   1      27.722  23.281  -6.117  0.00  0.00     0.080 C 
HETATM   19  C   UNK N   1      28.019  21.603  -7.927  0.00  0.00     0.048 C 
BRANCH  18  20
HETATM   20  C   UNK N   1      29.150  23.343  -5.722  0.00  0.00     0.241 C 
HETATM   21  N   UNK N   1      29.616  22.452  -4.815  0.00  0.00    -0.358 N 
HETATM   22  H   UNK N   1      29.003  21.767  -4.461  0.00  0.00     0.162 HD
HETATM   23  O   UNK N   1      29.892  24.203  -6.178  0.00  0.00    -0.269 OA
BRANCH  21  24
HETATM   24  C   UNK N   1      30.982  22.475  -4.354  0.00  0.00     0.118 C 
HETATM   25  C   UNK N   1      31.025  22.933  -2.911  0.00  0.00     0.026 C 
ENDBRANCH  21  24
ENDBRANCH  18  20
ENDBRANCH  16  17
ENDBRANCH   1  15
TORSDOF 6
ENDMDL
MODEL 5
REMARK VINA RESULT:      -6.4     14.970     18.492
REMARK  6 active torsions:
REMARK  status: ('A' for Active; 'I' for Inactive)
REMARK    1  A    between atoms: C_2  and  N_3 
REMARK       I    between atoms: N_3  and  C_4 
REMARK    2  A    between atoms: C_4  and  C_6 
REMARK    3  A    between atoms: C_7  and  C_9 
REMARK    4  A    between atoms: C_10  and  C_11 
REMARK    5  A    between atoms: C_12  and  C_14 
REMARK    6  A    between atoms: C_15  and  C_16 
ROOT
HETATM    1  C   UNK N   1      33.366   7.385  19.803  0.00  0.00     0.007 C 
HETATM    2  C   UNK N   1      34.401   7.877  19.087  0.00  0.00    -0.062 C 
HETATM    3  C   UNK N   1      35.692   7.135  19.132  0.00  0.00     0.048 C 
ENDROOT
BRANCH   2   4
HETATM    4  C   UNK N   1      34.356   9.126  18.270  0.00  0.00     0.007 C 
HETATM    5  C   UNK N   1      35.289  10.080  18.351  0.00  0.00     0.009 C 
BRANCH   5   6
HETATM    6  C   UNK N   1      35.309  11.345  17.561  0.00  0.00    -0.048 C 
HETATM    7  C   UNK N   1      35.282  12.523  18.246  0.00  0.00    -0.077 C 
HETATM    8  C   UNK N   1      35.206  12.543  19.743  0.00  0.00     0.044 C 
HETATM    9  C   UNK N   1      35.361  13.858  17.551  0.00  0.00     0.034 C 
HETATM   10  C   UNK N   1      36.002  13.754  16.179  0.00  0.00     0.005 C 
HETATM   11  C   UNK N   1      35.243  12.707  15.393  0.00  0.00     0.014 C 
HETATM   12  C   UNK N   1      35.390  11.320  16.027  0.00  0.00    -0.020 C 
HETATM   13  C   UNK N   1      36.720  10.725  15.592  0.00  0.00     0.020 C 
HETATM   14  C   UNK N   1      34.268  10.473  15.454  0.00  0.00     0.020 C 
ENDBRANCH   5   6
ENDBRANCH   2   4
BRANCH   1  15
HETATM   15  C   UNK N   1      32.009   7.971  19.802  0.00  0.00     0.001 C 
HETATM   16  C   UNK N   1      31.498   8.797  20.729  0.00  0.00     0.007 C 
BRANCH  16  17
HETATM   17  C   UNK N   1      32.174   9.369  21.918  0.00  0.00    -0.057 C 
HETATM   18  C   UNK N   1      31.883   8.812  23.108  0.00  0.00     0.080 C 
HETATM   19  C   UNK N   1      33.081  10.557  21.805  0.00  0.00     0.048 C 
BRANCH  18  20
HETATM   20  C   UNK N   1      32.366   9.249  24.440  0.00  0.00     0.241 C 
HETATM   21  N   UNK N   1      31.686  10.218  25.096  0.00  0.00    -0.358 N 
HETATM   22  H   UNK N   1      30.872  10.591  24.686  0.00  0.00     0.162 HD
HETATM   23  O   UNK N   1      33.380   8.769  24.930  0.00  0.00    -0.269 OA
BRANCH  21  24
HETATM   24  C   UNK N   1      32.118  10.721  26.377  0.00  0.00     0.118 C 
HETATM   25  C   UNK N   1      31.402  12.020  26.682  0.00  0.00     0.026 C 
ENDBRANCH  21  24
ENDBRANCH  18  20
ENDBRANCH  16  17
ENDBRANCH   1  15
TORSDOF 6
ENDMDL
MODEL 6
REMARK VINA RESULT:      -6.4      1.572      2.749
REMARK  6 active torsions:
REMARK  status: ('A' for Active; 'I' for Inactive)
REMARK    1  A    between atoms: C_2  and  N_3 
REMARK       I    between atoms: N_3  and  C_4 
REMARK    2  A    between atoms: C_4  and  C_6 
REMARK    3  A    between atoms: C_7  and  C_9 
REMARK    4  A    between atoms: C_10  and  C_11 
REMARK    5  A    between atoms: C_12  and  C_14 
REMARK    6  A    between atoms: C_15  and  C_16 
ROOT
HETATM    1  C   UNK N   1      26.132  20.871   5.255  0.00  0.00     0.007 C 
HETATM    2  C   UNK N   1      26.795  20.661   6.415  0.00  0.00    -0.062 C 
HETATM    3  C   UNK N   1      26.222  21.250   7.657  0.00  0.00     0.048 C 
ENDROOT
BRANCH   2   4
HETATM    4  C   UNK N   1      28.074  19.903   6.541  0.00  0.00     0.007 C 
HETATM    5  C   UNK N   1      28.129  18.639   6.973  0.00  0.00     0.009 C 
BRANCH   5   6
HETATM    6  C   UNK N   1      29.368  17.822   7.115  0.00  0.00    -0.048 C 
HETATM    7  C   UNK N   1      30.045  17.894   8.295  0.00  0.00    -0.077 C 
HETATM    8  C   UNK N   1      29.572  18.787   9.402  0.00  0.00     0.044 C 
HETATM    9  C   UNK N   1      31.274  17.065   8.569  0.00  0.00     0.034 C 
HETATM   10  C   UNK N   1      31.336  15.825   7.693  0.00  0.00     0.005 C 
HETATM   11  C   UNK N   1      31.215  16.272   6.253  0.00  0.00     0.014 C 
HETATM   12  C   UNK N   1      29.848  16.905   5.979  0.00  0.00    -0.020 C 
HETATM   13  C   UNK N   1      28.833  15.795   5.752  0.00  0.00     0.020 C 
HETATM   14  C   UNK N   1      29.999  17.696   4.692  0.00  0.00     0.020 C 
ENDBRANCH   5   6
ENDBRANCH   2   4
BRANCH   1  15
HETATM   15  C   UNK N   1      26.539  20.294   3.956  0.00  0.00     0.001 C 
HETATM   16  C   UNK N   1      26.168  19.100   3.466  0.00  0.00     0.007 C 
BRANCH  16  17
HETATM   17  C   UNK N   1      25.228  18.118   4.057  0.00  0.00    -0.057 C 
HETATM   18  C   UNK N   1      25.761  16.974   4.527  0.00  0.00     0.080 C 
HETATM   19  C   UNK N   1      23.749  18.359   4.066  0.00  0.00     0.048 C 
BRANCH  18  20
HETATM   20  C   UNK N   1      25.030  15.815   5.092  0.00  0.00     0.241 C 
HETATM   21  N   UNK N   1      24.836  15.753   6.430  0.00  0.00    -0.358 N 
HETATM   22  H   UNK N   1      25.159  16.493   6.994  0.00  0.00     0.162 HD
HETATM   23  O   UNK N   1      24.636  14.908   4.370  0.00  0.00    -0.269 OA
BRANCH  21  24
HETATM   24  C   UNK N   1      24.168  14.638   7.055  0.00  0.00     0.118 C 
HETATM   25  C   UNK N   1      25.192  13.723   7.693  0.00  0.00     0.026 C 
ENDBRANCH  21  24
ENDBRANCH  18  20
ENDBRANCH  16  17
ENDBRANCH   1  15
TORSDOF 6
ENDMDL
MODEL 7
REMARK VINA RESULT:      -6.3     11.607     14.626
REMARK  6 active torsions:
REMARK  status: ('A' for Active; 'I' for Inactive)
REMARK    1  A    between atoms: C_2  and  N_3 
REMARK       I    between atoms: N_3  and  C_4 
REMARK    2  A    between atoms: C_4  and  C_6 
REMARK    3  A    between atoms: C_7  and  C_9 
REMARK    4  A    between atoms: C_10  and  C_11 
REMARK    5  A    between atoms: C_12  and  C_14 
REMARK    6  A    between atoms: C_15  and  C_16 
ROOT
HETATM    1  C   UNK N   1      26.717  26.587  -7.804  0.00  0.00     0.007 C 
HETATM    2  C   UNK N   1      27.817  27.322  -7.528  0.00  0.00    -0.062 C 
HETATM    3  C   UNK N   1      28.969  27.227  -8.467  0.00  0.00     0.048 C 
ENDROOT
BRANCH   2   4
HETATM    4  C   UNK N   1      27.974  28.206  -6.336  0.00  0.00     0.007 C 
HETATM    5  C   UNK N   1      28.502  27.782  -5.183  0.00  0.00     0.009 C 
BRANCH   5   6
HETATM    6  C   UNK N   1      28.695  28.612  -3.958  0.00  0.00    -0.048 C 
HETATM    7  C   UNK N   1      29.853  28.452  -3.259  0.00  0.00    -0.077 C 
HETATM    8  C   UNK N   1      30.886  27.455  -3.692  0.00  0.00     0.044 C 
HETATM    9  C   UNK N   1      30.178  29.282  -2.043  0.00  0.00     0.034 C 
HETATM   10  C   UNK N   1      29.414  30.595  -2.023  0.00  0.00     0.005 C 
HETATM   11  C   UNK N   1      27.942  30.272  -2.161  0.00  0.00     0.014 C 
HETATM   12  C   UNK N   1      27.636  29.634  -3.520  0.00  0.00    -0.020 C 
HETATM   13  C   UNK N   1      27.523  30.737  -4.561  0.00  0.00     0.020 C 
HETATM   14  C   UNK N   1      26.283  28.962  -3.375  0.00  0.00     0.020 C 
ENDBRANCH   5   6
ENDBRANCH   2   4
BRANCH   1  15
HETATM   15  C   UNK N   1      25.473  26.629  -7.007  0.00  0.00     0.001 C 
HETATM   16  C   UNK N   1      25.182  25.859  -5.946  0.00  0.00     0.007 C 
BRANCH  16  17
HETATM   17  C   UNK N   1      26.040  24.847  -5.285  0.00  0.00    -0.057 C 
HETATM   18  C   UNK N   1      26.522  25.161  -4.068  0.00  0.00     0.080 C 
HETATM   19  C   UNK N   1      26.409  23.567  -5.972  0.00  0.00     0.048 C 
BRANCH  18  20
HETATM   20  C   UNK N   1      27.455  24.357  -3.243  0.00  0.00     0.241 C 
HETATM   21  N   UNK N   1      28.765  24.322  -3.582  0.00  0.00    -0.358 N 
HETATM   22  H   UNK N   1      29.072  24.854  -4.352  0.00  0.00     0.162 HD
HETATM   23  O   UNK N   1      27.049  23.706  -2.289  0.00  0.00    -0.269 OA
BRANCH  21  24
HETATM   24  C   UNK N   1      29.724  23.532  -2.850  0.00  0.00     0.118 C 
HETATM   25  C   UNK N   1      30.083  22.297  -3.650  0.00  0.00     0.026 C 
ENDBRANCH  21  24
ENDBRANCH  18  20
ENDBRANCH  16  17
ENDBRANCH   1  15
TORSDOF 6
ENDMDL
MODEL 8
REMARK VINA RESULT:      -6.2     11.185     13.494
REMARK  6 active torsions:
REMARK  status: ('A' for Active; 'I' for Inactive)
REMARK    1  A    between atoms: C_2  and  N_3 
REMARK       I    between atoms: N_3  and  C_4 
REMARK    2  A    between atoms: C_4  and  C_6 
REMARK    3  A    between atoms: C_7  and  C_9 
REMARK    4  A    between atoms: C_10  and  C_11 
REMARK    5  A    between atoms: C_12  and  C_14 
REMARK    6  A    between atoms: C_15  and  C_16 
ROOT
HETATM    1  C   UNK N   1      26.283  24.205  -7.211  0.00  0.00     0.007 C 
HETATM    2  C   UNK N   1      27.614  24.268  -7.435  0.00  0.00    -0.062 C 
HETATM    3  C   UNK N   1      28.071  24.655  -8.799  0.00  0.00     0.048 C 
ENDROOT
BRANCH   2   4
HETATM    4  C   UNK N   1      28.665  23.955  -6.422  0.00  0.00     0.007 C 
HETATM    5  C   UNK N   1      28.679  22.817  -5.720  0.00  0.00     0.009 C 
BRANCH   5   6
HETATM    6  C   UNK N   1      29.700  22.437  -4.701  0.00  0.00    -0.048 C 
HETATM    7  C   UNK N   1      30.495  21.363  -4.967  0.00  0.00    -0.077 C 
HETATM    8  C   UNK N   1      30.326  20.573  -6.230  0.00  0.00     0.044 C 
HETATM    9  C   UNK N   1      31.598  20.930  -4.036  0.00  0.00     0.034 C 
HETATM   10  C   UNK N   1      32.069  22.061  -3.139  0.00  0.00     0.005 C 
HETATM   11  C   UNK N   1      30.857  22.617  -2.424  0.00  0.00     0.014 C 
HETATM   12  C   UNK N   1      29.872  23.252  -3.410  0.00  0.00    -0.020 C 
HETATM   13  C   UNK N   1      30.354  24.654  -3.746  0.00  0.00     0.020 C 
HETATM   14  C   UNK N   1      28.548  23.357  -2.674  0.00  0.00     0.020 C 
ENDBRANCH   5   6
ENDBRANCH   2   4
BRANCH   1  15
HETATM   15  C   UNK N   1      25.680  23.905  -5.895  0.00  0.00     0.001 C 
HETATM   16  C   UNK N   1      25.574  24.751  -4.857  0.00  0.00     0.007 C 
BRANCH  16  17
HETATM   17  C   UNK N   1      25.962  26.180  -4.797  0.00  0.00    -0.057 C 
HETATM   18  C   UNK N   1      27.037  26.487  -4.047  0.00  0.00     0.080 C 
HETATM   19  C   UNK N   1      25.151  27.239  -5.482  0.00  0.00     0.048 C 
BRANCH  18  20
HETATM   20  C   UNK N   1      27.575  27.840  -3.769  0.00  0.00     0.241 C 
HETATM   21  N   UNK N   1      27.055  28.552  -2.742  0.00  0.00    -0.358 N 
HETATM   22  H   UNK N   1      26.352  28.144  -2.187  0.00  0.00     0.162 HD
HETATM   23  O   UNK N   1      28.451  28.325  -4.473  0.00  0.00    -0.269 OA
BRANCH  21  24
HETATM   24  C   UNK N   1      27.501  29.889  -2.436  0.00  0.00     0.118 C 
HETATM   25  C   UNK N   1      28.401  29.859  -1.218  0.00  0.00     0.026 C 
ENDBRANCH  21  24
ENDBRANCH  18  20
ENDBRANCH  16  17
ENDBRANCH   1  15
TORSDOF 6
ENDMDL
MODEL 9
REMARK VINA RESULT:      -6.1     11.728     14.386
REMARK  6 active torsions:
REMARK  status: ('A' for Active; 'I' for Inactive)
REMARK    1  A    between atoms: C_2  and  N_3 
REMARK       I    between atoms: N_3  and  C_4 
REMARK    2  A    between atoms: C_4  and  C_6 
REMARK    3  A    between atoms: C_7  and  C_9 
REMARK    4  A    between atoms: C_10  and  C_11 
REMARK    5  A    between atoms: C_12  and  C_14 
REMARK    6  A    between atoms: C_15  and  C_16 
ROOT
HETATM    1  C   UNK N   1      25.365  26.974  -6.464  0.00  0.00     0.007 C 
HETATM    2  C   UNK N   1      26.244  26.064  -6.938  0.00  0.00    -0.062 C 
HETATM    3  C   UNK N   1      26.632  26.156  -8.374  0.00  0.00     0.048 C 
ENDROOT
BRANCH   2   4
HETATM    4  C   UNK N   1      26.841  24.956  -6.135  0.00  0.00     0.007 C 
HETATM    5  C   UNK N   1      28.152  24.695  -6.120  0.00  0.00     0.009 C 
BRANCH   5   6
HETATM    6  C   UNK N   1      28.814  23.612  -5.337  0.00  0.00    -0.048 C 
HETATM    7  C   UNK N   1      29.200  22.489  -6.005  0.00  0.00    -0.077 C 
HETATM    8  C   UNK N   1      28.942  22.339  -7.475  0.00  0.00     0.044 C 
HETATM    9  C   UNK N   1      29.932  21.361  -5.325  0.00  0.00     0.034 C 
HETATM   10  C   UNK N   1      30.644  21.817  -4.063  0.00  0.00     0.005 C 
HETATM   11  C   UNK N   1      29.622  22.497  -3.178  0.00  0.00     0.014 C 
HETATM   12  C   UNK N   1      29.079  23.772  -3.832  0.00  0.00    -0.020 C 
HETATM   13  C   UNK N   1      30.073  24.899  -3.602  0.00  0.00     0.020 C 
HETATM   14  C   UNK N   1      27.790  24.104  -3.102  0.00  0.00     0.020 C 
ENDBRANCH   5   6
ENDBRANCH   2   4
BRANCH   1  15
HETATM   15  C   UNK N   1      24.940  27.054  -5.050  0.00  0.00     0.001 C 
HETATM   16  C   UNK N   1      25.592  27.683  -4.059  0.00  0.00     0.007 C 
BRANCH  16  17
HETATM   17  C   UNK N   1      26.831  28.492  -4.145  0.00  0.00    -0.057 C 
HETATM   18  C   UNK N   1      27.979  27.885  -3.790  0.00  0.00     0.080 C 
HETATM   19  C   UNK N   1      26.795  29.937  -4.542  0.00  0.00     0.048 C 
BRANCH  18  20
HETATM   20  C   UNK N   1      29.327  28.496  -3.718  0.00  0.00     0.241 C 
HETATM   21  N   UNK N   1      29.676  29.182  -2.604  0.00  0.00    -0.358 N 
HETATM   22  H   UNK N   1      29.036  29.234  -1.857  0.00  0.00     0.162 HD
HETATM   23  O   UNK N   1      30.105  28.416  -4.660  0.00  0.00    -0.269 OA
BRANCH  21  24
HETATM   24  C   UNK N   1      30.955  29.836  -2.478  0.00  0.00     0.118 C 
HETATM   25  C   UNK N   1      31.842  29.044  -1.540  0.00  0.00     0.026 C 
ENDBRANCH  21  24
ENDBRANCH  18  20
ENDBRANCH  16  17
ENDBRANCH   1  15
TORSDOF 6
ENDMDL
