MODEL 1
REMARK VINA RESULT:      -3.8      0.000      0.000
REMARK  5 active torsions:
REMARK  status: ('A' for Active; 'I' for Inactive)
REMARK    1  A    between atoms: C_2  and  C_3 
REMARK    2  A    between atoms: C_3  and  C_4 
REMARK    3  A    between atoms: C_4  and  P_5 
REMARK    4  A    between atoms: P_5  and  O_6 
REMARK    5  A    between atoms: P_5  and  O_7 
ROOT
HETATM    1  P   UNK N   1      34.137  17.927   7.911  0.00  0.00     0.235 P 
HETATM    2  O   UNK N   1      34.771  16.591   8.387  0.00  0.00    -0.653 OA
ENDROOT
BRANCH   1   3
HETATM    3  C   UNK N   1      32.398  18.076   8.548  0.00  0.00     0.125 C 
BRANCH   3   4
HETATM    4  C   UNK N   1      31.448  17.355   7.614  0.00  0.00     0.011 C 
BRANCH   4   5
HETATM    5  C   UNK N   1      30.022  17.682   8.000  0.00  0.00    -0.004 C 
HETATM    6  C   UNK N   1      30.020  18.586   9.214  0.00  0.00     0.005 C 
ENDBRANCH   4   5
ENDBRANCH   3   4
ENDBRANCH   1   3
BRANCH   1   7
HETATM    7  O   UNK N   1      34.281  17.865   6.183  0.00  0.00    -0.329 OA
HETATM    8  H   UNK N   1      34.278  18.549   5.495  0.00  0.00     0.220 HD
ENDBRANCH   1   7
BRANCH   1   9
HETATM    9  O   UNK N   1      35.239  19.142   8.476  0.00  0.00    -0.329 OA
HETATM   10  H   UNK N   1      35.322  20.042   8.827  0.00  0.00     0.220 HD
ENDBRANCH   1   9
TORSDOF 5
ENDMDL
MODEL 2
REMARK VINA RESULT:      -3.8      0.385      1.653
REMARK  5 active torsions:
REMARK  status: ('A' for Active; 'I' for Inactive)
REMARK    1  A    between atoms: C_2  and  C_3 
REMARK    2  A    between atoms: C_3  and  C_4 
REMARK    3  A    between atoms: C_4  and  P_5 
REMARK    4  A    between atoms: P_5  and  O_6 
REMARK    5  A    between atoms: P_5  and  O_7 
ROOT
HETATM    1  P   UNK N   1      34.217  18.003   8.070  0.00  0.00     0.235 P 
HETATM    2  O   UNK N   1      34.414  17.876   6.533  0.00  0.00    -0.653 OA
ENDROOT
BRANCH   1   3
HETATM    3  C   UNK N   1      32.438  18.371   8.461  0.00  0.00     0.125 C 
BRANCH   3   4
HETATM    4  C   UNK N   1      31.610  17.110   8.315  0.00  0.00     0.011 C 
BRANCH   4   5
HETATM    5  C   UNK N   1      30.141  17.472   8.320  0.00  0.00    -0.004 C 
HETATM    6  C   UNK N   1      29.884  18.533   9.369  0.00  0.00     0.005 C 
ENDBRANCH   4   5
ENDBRANCH   3   4
ENDBRANCH   1   3
BRANCH   1   7
HETATM    7  O   UNK N   1      35.340  19.241   8.533  0.00  0.00    -0.329 OA
HETATM    8  H   UNK N   1      36.043  19.708   8.055  0.00  0.00     0.220 HD
ENDBRANCH   1   7
BRANCH   1   9
HETATM    9  O   UNK N   1      34.818  16.501   8.697  0.00  0.00    -0.329 OA
HETATM   10  H   UNK N   1      34.580  15.666   9.130  0.00  0.00     0.220 HD
ENDBRANCH   1   9
TORSDOF 5
ENDMDL
MODEL 3
REMARK VINA RESULT:      -3.8     12.391     12.908
REMARK  5 active torsions:
REMARK  status: ('A' for Active; 'I' for Inactive)
REMARK    1  A    between atoms: C_2  and  C_3 
REMARK    2  A    between atoms: C_3  and  C_4 
REMARK    3  A    between atoms: C_4  and  P_5 
REMARK    4  A    between atoms: P_5  and  O_6 
REMARK    5  A    between atoms: P_5  and  O_7 
ROOT
HETATM    1  P   UNK N   1      20.677  14.406   9.079  0.00  0.00     0.235 P 
HETATM    2  O   UNK N   1      20.347  13.821   7.678  0.00  0.00    -0.653 OA
ENDROOT
BRANCH   1   3
HETATM    3  C   UNK N   1      22.217  13.617   9.757  0.00  0.00     0.125 C 
BRANCH   3   4
HETATM    4  C   UNK N   1      21.844  12.551  10.767  0.00  0.00     0.011 C 
BRANCH   4   5
HETATM    5  C   UNK N   1      23.101  11.884  11.279  0.00  0.00    -0.004 C 
HETATM    6  C   UNK N   1      23.090  11.877  12.793  0.00  0.00     0.005 C 
ENDBRANCH   4   5
ENDBRANCH   3   4
ENDBRANCH   1   3
BRANCH   1   7
HETATM    7  O   UNK N   1      19.238  14.115  10.003  0.00  0.00    -0.329 OA
HETATM    8  H   UNK N   1      19.046  14.144  10.954  0.00  0.00     0.220 HD
ENDBRANCH   1   7
BRANCH   1   9
HETATM    9  O   UNK N   1      20.779  16.116   8.808  0.00  0.00    -0.329 OA
HETATM   10  H   UNK N   1      20.982  16.976   9.209  0.00  0.00     0.220 HD
ENDBRANCH   1   9
TORSDOF 5
ENDMDL
MODEL 4
REMARK VINA RESULT:      -3.8      3.122      4.131
REMARK  5 active torsions:
REMARK  status: ('A' for Active; 'I' for Inactive)
REMARK    1  A    between atoms: C_2  and  C_3 
REMARK    2  A    between atoms: C_3  and  C_4 
REMARK    3  A    between atoms: C_4  and  P_5 
REMARK    4  A    between atoms: P_5  and  O_6 
REMARK    5  A    between atoms: P_5  and  O_7 
ROOT
HETATM    1  P   UNK N   1      34.352  17.928   8.147  0.00  0.00     0.235 P 
HETATM    2  O   UNK N   1      32.890  18.423   8.329  0.00  0.00    -0.653 OA
ENDROOT
BRANCH   1   3
HETATM    3  C   UNK N   1      34.661  16.433   9.207  0.00  0.00     0.125 C 
BRANCH   3   4
HETATM    4  C   UNK N   1      35.386  16.844  10.472  0.00  0.00     0.011 C 
BRANCH   4   5
HETATM    5  C   UNK N   1      35.398  15.683  11.442  0.00  0.00    -0.004 C 
HETATM    6  C   UNK N   1      34.310  14.700  11.068  0.00  0.00     0.005 C 
ENDBRANCH   4   5
ENDBRANCH   3   4
ENDBRANCH   1   3
BRANCH   1   7
HETATM    7  O   UNK N   1      35.315  19.317   8.541  0.00  0.00    -0.329 OA
HETATM    8  H   UNK N   1      35.658  19.666   9.378  0.00  0.00     0.220 HD
ENDBRANCH   1   7
BRANCH   1   9
HETATM    9  O   UNK N   1      34.499  17.667   6.438  0.00  0.00    -0.329 OA
HETATM   10  H   UNK N   1      35.067  17.325   5.730  0.00  0.00     0.220 HD
ENDBRANCH   1   9
TORSDOF 5
ENDMDL
MODEL 5
REMARK VINA RESULT:      -3.7     11.008     11.832
REMARK  5 active torsions:
REMARK  status: ('A' for Active; 'I' for Inactive)
REMARK    1  A    between atoms: C_2  and  C_3 
REMARK    2  A    between atoms: C_3  and  C_4 
REMARK    3  A    between atoms: C_4  and  P_5 
REMARK    4  A    between atoms: P_5  and  O_6 
REMARK    5  A    between atoms: P_5  and  O_7 
ROOT
HETATM    1  P   UNK N   1      43.999  22.391   4.289  0.00  0.00     0.235 P 
HETATM    2  O   UNK N   1      43.756  22.561   5.814  0.00  0.00    -0.653 OA
ENDROOT
BRANCH   1   3
HETATM    3  C   UNK N   1      43.052  20.926   3.648  0.00  0.00     0.125 C 
BRANCH   3   4
HETATM    4  C   UNK N   1      41.934  21.397   2.740  0.00  0.00     0.011 C 
BRANCH   4   5
HETATM    5  C   UNK N   1      40.732  20.494   2.916  0.00  0.00    -0.004 C 
HETATM    6  C   UNK N   1      39.700  20.813   1.855  0.00  0.00     0.005 C 
ENDBRANCH   4   5
ENDBRANCH   3   4
ENDBRANCH   1   3
BRANCH   1   7
HETATM    7  O   UNK N   1      45.724  22.264   4.153  0.00  0.00    -0.329 OA
HETATM    8  H   UNK N   1      46.452  22.497   4.750  0.00  0.00     0.220 HD
ENDBRANCH   1   7
BRANCH   1   9
HETATM    9  O   UNK N   1      43.540  23.922   3.616  0.00  0.00    -0.329 OA
HETATM   10  H   UNK N   1      42.803  24.458   3.282  0.00  0.00     0.220 HD
ENDBRANCH   1   9
TORSDOF 5
ENDMDL
MODEL 6
REMARK VINA RESULT:      -3.7      2.741      3.430
REMARK  5 active torsions:
REMARK  status: ('A' for Active; 'I' for Inactive)
REMARK    1  A    between atoms: C_2  and  C_3 
REMARK    2  A    between atoms: C_3  and  C_4 
REMARK    3  A    between atoms: C_4  and  P_5 
REMARK    4  A    between atoms: P_5  and  O_6 
REMARK    5  A    between atoms: P_5  and  O_7 
ROOT
HETATM    1  P   UNK N   1      34.153  17.892   8.321  0.00  0.00     0.235 P 
HETATM    2  O   UNK N   1      32.765  18.589   8.317  0.00  0.00    -0.653 OA
ENDROOT
BRANCH   1   3
HETATM    3  C   UNK N   1      34.317  16.780   6.841  0.00  0.00     0.125 C 
BRANCH   3   4
HETATM    4  C   UNK N   1      33.043  16.825   6.023  0.00  0.00     0.011 C 
BRANCH   4   5
HETATM    5  C   UNK N   1      33.278  17.648   4.775  0.00  0.00    -0.004 C 
HETATM    6  C   UNK N   1      32.277  17.250   3.711  0.00  0.00     0.005 C 
ENDBRANCH   4   5
ENDBRANCH   3   4
ENDBRANCH   1   3
BRANCH   1   7
HETATM    7  O   UNK N   1      34.209  17.083   9.855  0.00  0.00    -0.329 OA
HETATM    8  H   UNK N   1      34.784  16.389  10.215  0.00  0.00     0.220 HD
ENDBRANCH   1   7
BRANCH   1   9
HETATM    9  O   UNK N   1      35.284  19.205   8.389  0.00  0.00    -0.329 OA
HETATM   10  H   UNK N   1      35.467  20.081   8.763  0.00  0.00     0.220 HD
ENDBRANCH   1   9
TORSDOF 5
ENDMDL
MODEL 7
REMARK VINA RESULT:      -3.7      9.190      9.989
REMARK  5 active torsions:
REMARK  status: ('A' for Active; 'I' for Inactive)
REMARK    1  A    between atoms: C_2  and  C_3 
REMARK    2  A    between atoms: C_3  and  C_4 
REMARK    3  A    between atoms: C_4  and  P_5 
REMARK    4  A    between atoms: P_5  and  O_6 
REMARK    5  A    between atoms: P_5  and  O_7 
ROOT
HETATM    1  P   UNK N   1      36.542  13.672  14.613  0.00  0.00     0.235 P 
HETATM    2  O   UNK N   1      36.127  14.657  13.485  0.00  0.00    -0.653 OA
ENDROOT
BRANCH   1   3
HETATM    3  C   UNK N   1      35.036  13.019  15.483  0.00  0.00     0.125 C 
BRANCH   3   4
HETATM    4  C   UNK N   1      35.430  12.444  16.827  0.00  0.00     0.011 C 
BRANCH   4   5
HETATM    5  C   UNK N   1      35.131  13.455  17.913  0.00  0.00    -0.004 C 
HETATM    6  C   UNK N   1      35.222  12.785  19.267  0.00  0.00     0.005 C 
ENDBRANCH   4   5
ENDBRANCH   3   4
ENDBRANCH   1   3
BRANCH   1   7
HETATM    7  O   UNK N   1      37.614  14.607  15.607  0.00  0.00    -0.329 OA
HETATM    8  H   UNK N   1      37.987  14.464  16.491  0.00  0.00     0.220 HD
ENDBRANCH   1   7
BRANCH   1   9
HETATM    9  O   UNK N   1      37.503  12.479  13.799  0.00  0.00    -0.329 OA
HETATM   10  H   UNK N   1      37.880  12.204  12.949  0.00  0.00     0.220 HD
ENDBRANCH   1   9
TORSDOF 5
ENDMDL
MODEL 8
REMARK VINA RESULT:      -3.7      4.388      4.894
REMARK  5 active torsions:
REMARK  status: ('A' for Active; 'I' for Inactive)
REMARK    1  A    between atoms: C_2  and  C_3 
REMARK    2  A    between atoms: C_3  and  C_4 
REMARK    3  A    between atoms: C_4  and  P_5 
REMARK    4  A    between atoms: P_5  and  O_6 
REMARK    5  A    between atoms: P_5  and  O_7 
ROOT
HETATM    1  P   UNK N   1      29.225  17.710   9.578  0.00  0.00     0.235 P 
HETATM    2  O   UNK N   1      29.719  19.036  10.220  0.00  0.00    -0.653 OA
ENDROOT
BRANCH   1   3
HETATM    3  C   UNK N   1      30.141  17.381   7.996  0.00  0.00     0.125 C 
BRANCH   3   4
HETATM    4  C   UNK N   1      31.545  16.905   8.306  0.00  0.00     0.011 C 
BRANCH   4   5
HETATM    5  C   UNK N   1      32.502  17.455   7.271  0.00  0.00    -0.004 C 
HETATM    6  C   UNK N   1      33.604  18.229   7.962  0.00  0.00     0.005 C 
ENDBRANCH   4   5
ENDBRANCH   3   4
ENDBRANCH   1   3
BRANCH   1   7
HETATM    7  O   UNK N   1      27.515  17.945   9.400  0.00  0.00    -0.329 OA
HETATM    8  H   UNK N   1      26.860  18.441   9.914  0.00  0.00     0.220 HD
ENDBRANCH   1   7
BRANCH   1   9
HETATM    9  O   UNK N   1      29.455  16.527  10.826  0.00  0.00    -0.329 OA
HETATM   10  H   UNK N   1      29.181  15.659  11.162  0.00  0.00     0.220 HD
ENDBRANCH   1   9
TORSDOF 5
ENDMDL
MODEL 9
REMARK VINA RESULT:      -3.7      8.361      8.982
REMARK  5 active torsions:
REMARK  status: ('A' for Active; 'I' for Inactive)
REMARK    1  A    between atoms: C_2  and  C_3 
REMARK    2  A    between atoms: C_3  and  C_4 
REMARK    3  A    between atoms: C_4  and  P_5 
REMARK    4  A    between atoms: P_5  and  O_6 
REMARK    5  A    between atoms: P_5  and  O_7 
ROOT
HETATM    1  P   UNK N   1      36.018  13.648  13.516  0.00  0.00     0.235 P 
HETATM    2  O   UNK N   1      36.992  12.676  12.793  0.00  0.00    -0.653 OA
ENDROOT
BRANCH   1   3
HETATM    3  C   UNK N   1      36.201  13.488  15.358  0.00  0.00     0.125 C 
BRANCH   3   4
HETATM    4  C   UNK N   1      34.897  13.008  15.962  0.00  0.00     0.011 C 
BRANCH   4   5
HETATM    5  C   UNK N   1      35.095  12.749  17.440  0.00  0.00    -0.004 C 
HETATM    6  C   UNK N   1      35.265  14.066  18.166  0.00  0.00     0.005 C 
ENDBRANCH   4   5
ENDBRANCH   3   4
ENDBRANCH   1   3
BRANCH   1   7
HETATM    7  O   UNK N   1      34.457  13.214  12.894  0.00  0.00    -0.329 OA
HETATM    8  H   UNK N   1      33.667  13.731  12.673  0.00  0.00     0.220 HD
ENDBRANCH   1   7
BRANCH   1   9
HETATM    9  O   UNK N   1      36.416  15.206  12.864  0.00  0.00    -0.329 OA
HETATM   10  H   UNK N   1      37.137  15.801  12.606  0.00  0.00     0.220 HD
ENDBRANCH   1   9
TORSDOF 5
ENDMDL
