MODEL 1
REMARK VINA RESULT:      -6.2      0.000      0.000
REMARK  7 active torsions:
REMARK  status: ('A' for Active; 'I' for Inactive)
REMARK    1  A    between atoms: C_4  and  C_1 
REMARK    2  A    between atoms: O_11  and  C_1 
REMARK    3  A    between atoms: C_3  and  O_12 
REMARK    4  A    between atoms: C_6  and  O_14 
REMARK    5  A    between atoms: C_8  and  O_19 
REMARK    6  A    between atoms: C_9  and  O_16 
REMARK    7  A    between atoms: C_10  and  O_19 
ROOT
HETATM    1  C   UNK N   1      20.842  18.704   2.543  0.00  0.00     0.179 C 
HETATM    2  C   UNK N   1      20.833  20.232   2.612  0.00  0.00     0.182 C 
HETATM    3  C   UNK N   1      22.318  20.450   2.575  0.00  0.00     0.204 C 
HETATM    4  C   UNK N   1      22.757  19.384   3.572  0.00  0.00     0.292 C 
HETATM    5  O   UNK N   1      20.314  20.666   3.841  0.00  0.00    -0.390 OA
HETATM    6  O   UNK N   1      21.945  18.253   3.307  0.00  0.00    -0.348 OA
HETATM    7  H   UNK N   1      20.017  20.913   4.731  0.00  0.00     0.210 HD
ENDROOT
BRANCH   1   8
HETATM    8  C   UNK N   1      19.551  18.070   3.054  0.00  0.00     0.198 C 
BRANCH   8   9
HETATM    9  O   UNK N   1      18.438  18.686   2.484  0.00  0.00    -0.398 OA
HETATM   10  H   UNK N   1      18.460  19.622   2.229  0.00  0.00     0.209 HD
ENDBRANCH   8   9
ENDBRANCH   1   8
BRANCH   3  11
HETATM   11  O   UNK N   1      22.699  21.741   2.947  0.00  0.00    -0.388 OA
HETATM   12  H   UNK N   1      22.876  22.500   2.370  0.00  0.00     0.210 HD
ENDBRANCH   3  11
BRANCH   4  13
HETATM   13  O   UNK N   1      24.131  19.092   3.396  0.00  0.00    -0.348 OA
BRANCH  13  14
HETATM   14  C   UNK N   1      24.864  19.258   4.603  0.00  0.00     0.189 C 
HETATM   15  C   UNK N   1      25.828  18.062   4.856  0.00  0.00     0.173 C 
HETATM   16  C   UNK N   1      27.129  18.508   5.543  0.00  0.00     0.205 C 
HETATM   17  O   UNK N   1      26.894  19.508   6.504  0.00  0.00    -0.356 OA
HETATM   18  C   UNK N   1      26.416  20.709   5.902  0.00  0.00     0.288 C 
HETATM   19  C   UNK N   1      25.708  20.540   4.523  0.00  0.00     0.204 C 
HETATM   20  O   UNK N   1      26.649  20.426   3.491  0.00  0.00    -0.388 OA
HETATM   21  H   UNK N   1      27.179  20.319   2.685  0.00  0.00     0.210 HD
BRANCH  15  22
HETATM   22  O   UNK N   1      25.202  17.081   5.628  0.00  0.00    -0.391 OA
HETATM   23  H   UNK N   1      24.914  17.109   6.553  0.00  0.00     0.210 HD
ENDBRANCH  15  22
BRANCH  18  24
HETATM   24  O   UNK N   1      27.441  21.654   5.822  0.00  0.00    -0.369 OA
HETATM   25  H   UNK N   1      27.726  22.077   4.996  0.00  0.00     0.212 HD
ENDBRANCH  18  24
ENDBRANCH  13  14
ENDBRANCH   4  13
TORSDOF 7
ENDMDL
MODEL 2
REMARK VINA RESULT:      -6.1      5.694     10.042
REMARK  7 active torsions:
REMARK  status: ('A' for Active; 'I' for Inactive)
REMARK    1  A    between atoms: C_4  and  C_1 
REMARK    2  A    between atoms: O_11  and  C_1 
REMARK    3  A    between atoms: C_3  and  O_12 
REMARK    4  A    between atoms: C_6  and  O_14 
REMARK    5  A    between atoms: C_8  and  O_19 
REMARK    6  A    between atoms: C_9  and  O_16 
REMARK    7  A    between atoms: C_10  and  O_19 
ROOT
HETATM    1  C   UNK N   1      32.876  16.351   6.978  0.00  0.00     0.179 C 
HETATM    2  C   UNK N   1      33.368  15.569   8.196  0.00  0.00     0.182 C 
HETATM    3  C   UNK N   1      32.061  15.485   8.930  0.00  0.00     0.204 C 
HETATM    4  C   UNK N   1      31.583  16.923   8.763  0.00  0.00     0.292 C 
HETATM    5  O   UNK N   1      34.286  16.331   8.933  0.00  0.00    -0.390 OA
HETATM    6  O   UNK N   1      31.918  17.286   7.435  0.00  0.00    -0.348 OA
HETATM    7  H   UNK N   1      34.857  16.924   9.446  0.00  0.00     0.210 HD
ENDROOT
BRANCH   1   8
HETATM    8  C   UNK N   1      33.997  17.067   6.229  0.00  0.00     0.198 C 
BRANCH   8   9
HETATM    9  O   UNK N   1      34.404  18.208   6.919  0.00  0.00    -0.398 OA
HETATM   10  H   UNK N   1      34.891  18.140   7.756  0.00  0.00     0.209 HD
ENDBRANCH   8   9
ENDBRANCH   1   8
BRANCH   3  11
HETATM   11  O   UNK N   1      32.198  15.103  10.267  0.00  0.00    -0.388 OA
HETATM   12  H   UNK N   1      32.322  15.675  11.040  0.00  0.00     0.210 HD
ENDBRANCH   3  11
BRANCH   4  13
HETATM   13  O   UNK N   1      30.187  16.999   8.989  0.00  0.00    -0.348 OA
BRANCH  13  14
HETATM   14  C   UNK N   1      29.525  17.716   7.956  0.00  0.00     0.189 C 
HETATM   15  C   UNK N   1      28.735  16.763   7.012  0.00  0.00     0.173 C 
HETATM   16  C   UNK N   1      27.440  17.410   6.495  0.00  0.00     0.205 C 
HETATM   17  O   UNK N   1      27.616  18.776   6.216  0.00  0.00    -0.356 OA
HETATM   18  C   UNK N   1      27.900  19.520   7.399  0.00  0.00     0.288 C 
HETATM   19  C   UNK N   1      28.526  18.708   8.574  0.00  0.00     0.204 C 
HETATM   20  O   UNK N   1      27.538  18.010   9.280  0.00  0.00    -0.388 OA
HETATM   21  H   UNK N   1      26.970  17.463   9.846  0.00  0.00     0.210 HD
BRANCH  15  22
HETATM   22  O   UNK N   1      29.528  16.372   5.931  0.00  0.00    -0.391 OA
HETATM   23  H   UNK N   1      29.328  15.768   5.201  0.00  0.00     0.210 HD
ENDBRANCH  15  22
BRANCH  18  24
HETATM   24  O   UNK N   1      26.763  20.212   7.824  0.00  0.00    -0.369 OA
HETATM   25  H   UNK N   1      26.478  20.270   8.749  0.00  0.00     0.212 HD
ENDBRANCH  18  24
ENDBRANCH  13  14
ENDBRANCH   4  13
TORSDOF 7
ENDMDL
MODEL 3
REMARK VINA RESULT:      -6.0     11.949     15.559
REMARK  7 active torsions:
REMARK  status: ('A' for Active; 'I' for Inactive)
REMARK    1  A    between atoms: C_4  and  C_1 
REMARK    2  A    between atoms: O_11  and  C_1 
REMARK    3  A    between atoms: C_3  and  O_12 
REMARK    4  A    between atoms: C_6  and  O_14 
REMARK    5  A    between atoms: C_8  and  O_19 
REMARK    6  A    between atoms: C_9  and  O_16 
REMARK    7  A    between atoms: C_10  and  O_19 
ROOT
HETATM    1  C   UNK N   1      34.040  14.638   9.804  0.00  0.00     0.179 C 
HETATM    2  C   UNK N   1      34.998  15.816   9.623  0.00  0.00     0.182 C 
HETATM    3  C   UNK N   1      36.121  15.305  10.480  0.00  0.00     0.204 C 
HETATM    4  C   UNK N   1      35.320  14.813  11.680  0.00  0.00     0.292 C 
HETATM    5  O   UNK N   1      34.457  16.981  10.185  0.00  0.00    -0.390 OA
HETATM    6  O   UNK N   1      34.163  14.196  11.142  0.00  0.00    -0.348 OA
HETATM    7  H   UNK N   1      34.073  17.741  10.650  0.00  0.00     0.210 HD
ENDROOT
BRANCH   1   8
HETATM    8  C   UNK N   1      32.588  14.989   9.494  0.00  0.00     0.198 C 
BRANCH   8   9
HETATM    9  O   UNK N   1      31.857  15.154  10.670  0.00  0.00    -0.398 OA
HETATM   10  H   UNK N   1      32.233  14.911  11.531  0.00  0.00     0.209 HD
ENDBRANCH   8   9
ENDBRANCH   1   8
BRANCH   3  11
HETATM   11  O   UNK N   1      37.059  16.285  10.809  0.00  0.00    -0.388 OA
HETATM   12  H   UNK N   1      36.995  16.963  11.501  0.00  0.00     0.210 HD
ENDBRANCH   3  11
BRANCH   4  13
HETATM   13  O   UNK N   1      36.093  13.901  12.438  0.00  0.00    -0.348 OA
BRANCH  13  14
HETATM   14  C   UNK N   1      35.318  13.257  13.441  0.00  0.00     0.189 C 
HETATM   15  C   UNK N   1      35.282  11.715  13.235  0.00  0.00     0.173 C 
HETATM   16  C   UNK N   1      35.245  10.958  14.572  0.00  0.00     0.205 C 
HETATM   17  O   UNK N   1      34.440  11.614  15.520  0.00  0.00    -0.356 OA
HETATM   18  C   UNK N   1      34.985  12.882  15.880  0.00  0.00     0.288 C 
HETATM   19  C   UNK N   1      35.926  13.538  14.824  0.00  0.00     0.204 C 
HETATM   20  O   UNK N   1      37.214  12.993  14.897  0.00  0.00    -0.388 OA
HETATM   21  H   UNK N   1      38.135  12.699  14.822  0.00  0.00     0.210 HD
BRANCH  15  22
HETATM   22  O   UNK N   1      34.181  11.347  12.458  0.00  0.00    -0.391 OA
HETATM   23  H   UNK N   1      33.989  11.533  11.526  0.00  0.00     0.210 HD
ENDBRANCH  15  22
BRANCH  18  24
HETATM   24  O   UNK N   1      35.611  12.807  17.126  0.00  0.00    -0.369 OA
HETATM   25  H   UNK N   1      35.884  11.976  17.546  0.00  0.00     0.212 HD
ENDBRANCH  18  24
ENDBRANCH  13  14
ENDBRANCH   4  13
TORSDOF 7
ENDMDL
MODEL 4
REMARK VINA RESULT:      -5.9     13.216     16.590
REMARK  7 active torsions:
REMARK  status: ('A' for Active; 'I' for Inactive)
REMARK    1  A    between atoms: C_4  and  C_1 
REMARK    2  A    between atoms: O_11  and  C_1 
REMARK    3  A    between atoms: C_3  and  O_12 
REMARK    4  A    between atoms: C_6  and  O_14 
REMARK    5  A    between atoms: C_8  and  O_19 
REMARK    6  A    between atoms: C_9  and  O_16 
REMARK    7  A    between atoms: C_10  and  O_19 
ROOT
HETATM    1  C   UNK N   1      34.532  12.254  15.019  0.00  0.00     0.179 C 
HETATM    2  C   UNK N   1      35.846  12.486  15.767  0.00  0.00     0.182 C 
HETATM    3  C   UNK N   1      36.236  13.777  15.105  0.00  0.00     0.204 C 
HETATM    4  C   UNK N   1      35.934  13.420  13.654  0.00  0.00     0.292 C 
HETATM    5  O   UNK N   1      36.775  11.484  15.452  0.00  0.00    -0.390 OA
HETATM    6  O   UNK N   1      34.725  12.682  13.684  0.00  0.00    -0.348 OA
HETATM    7  H   UNK N   1      37.404  10.812  15.146  0.00  0.00     0.210 HD
ENDROOT
BRANCH   1   8
HETATM    8  C   UNK N   1      34.072  10.799  15.045  0.00  0.00     0.198 C 
BRANCH   8   9
HETATM    9  O   UNK N   1      34.445  10.184  16.240  0.00  0.00    -0.398 OA
HETATM   10  H   UNK N   1      34.295   9.236  16.383  0.00  0.00     0.209 HD
ENDBRANCH   8   9
ENDBRANCH   1   8
BRANCH   3  11
HETATM   11  O   UNK N   1      37.570  14.129  15.319  0.00  0.00    -0.388 OA
HETATM   12  H   UNK N   1      38.129  14.707  14.776  0.00  0.00     0.210 HD
ENDBRANCH   3  11
BRANCH   4  13
HETATM   13  O   UNK N   1      35.808  14.600  12.882  0.00  0.00    -0.348 OA
BRANCH  13  14
HETATM   14  C   UNK N   1      35.469  14.311  11.531  0.00  0.00     0.189 C 
HETATM   15  C   UNK N   1      34.489  15.372  10.948  0.00  0.00     0.173 C 
HETATM   16  C   UNK N   1      34.745  15.629   9.454  0.00  0.00     0.205 C 
HETATM   17  O   UNK N   1      35.074  14.445   8.771  0.00  0.00    -0.356 OA
HETATM   18  C   UNK N   1      36.314  13.907   9.224  0.00  0.00     0.288 C 
HETATM   19  C   UNK N   1      36.740  14.313  10.668  0.00  0.00     0.204 C 
HETATM   20  O   UNK N   1      37.319  15.589  10.676  0.00  0.00    -0.388 OA
HETATM   21  H   UNK N   1      37.721  16.457  10.836  0.00  0.00     0.210 HD
BRANCH  15  22
HETATM   22  O   UNK N   1      33.164  14.973  11.135  0.00  0.00    -0.391 OA
HETATM   23  H   UNK N   1      32.349  15.497  11.118  0.00  0.00     0.210 HD
ENDBRANCH  15  22
BRANCH  18  24
HETATM   24  O   UNK N   1      37.331  14.188   8.308  0.00  0.00    -0.369 OA
HETATM   25  H   UNK N   1      37.873  14.992   8.330  0.00  0.00     0.212 HD
ENDBRANCH  18  24
ENDBRANCH  13  14
ENDBRANCH   4  13
TORSDOF 7
ENDMDL
MODEL 5
REMARK VINA RESULT:      -5.9      9.593     13.541
REMARK  7 active torsions:
REMARK  status: ('A' for Active; 'I' for Inactive)
REMARK    1  A    between atoms: C_4  and  C_1 
REMARK    2  A    between atoms: O_11  and  C_1 
REMARK    3  A    between atoms: C_3  and  O_12 
REMARK    4  A    between atoms: C_6  and  O_14 
REMARK    5  A    between atoms: C_8  and  O_19 
REMARK    6  A    between atoms: C_9  and  O_16 
REMARK    7  A    between atoms: C_10  and  O_19 
ROOT
HETATM    1  C   UNK N   1      36.264  14.278   9.980  0.00  0.00     0.179 C 
HETATM    2  C   UNK N   1      35.078  13.860  10.852  0.00  0.00     0.182 C 
HETATM    3  C   UNK N   1      34.097  14.893  10.376  0.00  0.00     0.204 C 
HETATM    4  C   UNK N   1      34.995  16.124  10.393  0.00  0.00     0.292 C 
HETATM    5  O   UNK N   1      35.369  14.064  12.209  0.00  0.00    -0.390 OA
HETATM    6  O   UNK N   1      36.250  15.691   9.897  0.00  0.00    -0.348 OA
HETATM    7  H   UNK N   1      35.591  14.290  13.126  0.00  0.00     0.210 HD
ENDROOT
BRANCH   1   8
HETATM    8  C   UNK N   1      37.607  13.794  10.518  0.00  0.00     0.198 C 
BRANCH   8   9
HETATM    9  O   UNK N   1      38.640  14.631  10.097  0.00  0.00    -0.398 OA
HETATM   10  H   UNK N   1      39.007  15.308  10.687  0.00  0.00     0.209 HD
ENDBRANCH   8   9
ENDBRANCH   1   8
BRANCH   3  11
HETATM   11  O   UNK N   1      32.977  15.017  11.202  0.00  0.00    -0.388 OA
HETATM   12  H   UNK N   1      32.698  14.428  11.920  0.00  0.00     0.210 HD
ENDBRANCH   3  11
BRANCH   4  13
HETATM   13  O   UNK N   1      34.437  17.142   9.581  0.00  0.00    -0.348 OA
BRANCH  13  14
HETATM   14  C   UNK N   1      33.612  16.604   8.555  0.00  0.00     0.189 C 
HETATM   15  C   UNK N   1      32.239  17.335   8.483  0.00  0.00     0.173 C 
HETATM   16  C   UNK N   1      31.717  17.435   7.041  0.00  0.00     0.205 C 
HETATM   17  O   UNK N   1      31.995  16.270   6.304  0.00  0.00    -0.356 OA
HETATM   18  C   UNK N   1      33.398  16.083   6.129  0.00  0.00     0.288 C 
HETATM   19  C   UNK N   1      34.309  16.767   7.195  0.00  0.00     0.204 C 
HETATM   20  O   UNK N   1      34.479  18.127   6.906  0.00  0.00    -0.388 OA
HETATM   21  H   UNK N   1      34.670  19.076   6.842  0.00  0.00     0.210 HD
BRANCH  15  22
HETATM   22  O   UNK N   1      31.294  16.685   9.279  0.00  0.00    -0.391 OA
HETATM   23  H   UNK N   1      30.665  15.984   9.051  0.00  0.00     0.210 HD
ENDBRANCH  15  22
BRANCH  18  24
HETATM   24  O   UNK N   1      33.780  16.453   4.837  0.00  0.00    -0.369 OA
HETATM   25  H   UNK N   1      34.690  16.678   4.585  0.00  0.00     0.212 HD
ENDBRANCH  18  24
ENDBRANCH  13  14
ENDBRANCH   4  13
TORSDOF 7
ENDMDL
MODEL 6
REMARK VINA RESULT:      -5.9      6.181      9.528
REMARK  7 active torsions:
REMARK  status: ('A' for Active; 'I' for Inactive)
REMARK    1  A    between atoms: C_4  and  C_1 
REMARK    2  A    between atoms: O_11  and  C_1 
REMARK    3  A    between atoms: C_3  and  O_12 
REMARK    4  A    between atoms: C_6  and  O_14 
REMARK    5  A    between atoms: C_8  and  O_19 
REMARK    6  A    between atoms: C_9  and  O_16 
REMARK    7  A    between atoms: C_10  and  O_19 
ROOT
HETATM    1  C   UNK N   1      28.845  18.200   7.147  0.00  0.00     0.179 C 
HETATM    2  C   UNK N   1      28.384  18.557   8.561  0.00  0.00     0.182 C 
HETATM    3  C   UNK N   1      29.739  18.690   9.194  0.00  0.00     0.204 C 
HETATM    4  C   UNK N   1      30.410  17.447   8.620  0.00  0.00     0.292 C 
HETATM    5  O   UNK N   1      27.688  17.485   9.137  0.00  0.00    -0.390 OA
HETATM    6  O   UNK N   1      29.983  17.368   7.271  0.00  0.00    -0.348 OA
HETATM    7  H   UNK N   1      27.278  16.691   9.516  0.00  0.00     0.210 HD
ENDROOT
BRANCH   1   8
HETATM    8  C   UNK N   1      27.769  17.502   6.320  0.00  0.00     0.198 C 
BRANCH   8   9
HETATM    9  O   UNK N   1      26.594  18.254   6.301  0.00  0.00    -0.398 OA
HETATM   10  H   UNK N   1      25.764  17.894   6.652  0.00  0.00     0.209 HD
ENDBRANCH   8   9
ENDBRANCH   1   8
BRANCH   3  11
HETATM   11  O   UNK N   1      29.702  18.699  10.590  0.00  0.00    -0.388 OA
HETATM   12  H   UNK N   1      28.978  18.411  11.168  0.00  0.00     0.210 HD
ENDBRANCH   3  11
BRANCH   4  13
HETATM   13  O   UNK N   1      31.818  17.569   8.715  0.00  0.00    -0.348 OA
BRANCH  13  14
HETATM   14  C   UNK N   1      32.482  16.419   8.207  0.00  0.00     0.189 C 
HETATM   15  C   UNK N   1      34.029  16.549   8.332  0.00  0.00     0.173 C 
HETATM   16  C   UNK N   1      34.698  15.195   8.617  0.00  0.00     0.205 C 
HETATM   17  O   UNK N   1      34.081  14.150   7.907  0.00  0.00    -0.356 OA
HETATM   18  C   UNK N   1      32.737  13.945   8.340  0.00  0.00     0.288 C 
HETATM   19  C   UNK N   1      32.044  15.177   8.999  0.00  0.00     0.204 C 
HETATM   20  O   UNK N   1      32.429  15.307  10.339  0.00  0.00    -0.388 OA
HETATM   21  H   UNK N   1      32.617  15.529  11.265  0.00  0.00     0.210 HD
BRANCH  15  22
HETATM   22  O   UNK N   1      34.571  17.105   7.172  0.00  0.00    -0.391 OA
HETATM   23  H   UNK N   1      35.492  17.140   6.871  0.00  0.00     0.210 HD
ENDBRANCH  15  22
BRANCH  18  24
HETATM   24  O   UNK N   1      32.659  12.826   9.172  0.00  0.00    -0.369 OA
HETATM   25  H   UNK N   1      33.235  12.680   9.939  0.00  0.00     0.212 HD
ENDBRANCH  18  24
ENDBRANCH  13  14
ENDBRANCH   4  13
TORSDOF 7
ENDMDL
MODEL 7
REMARK VINA RESULT:      -5.8      7.945     12.279
REMARK  7 active torsions:
REMARK  status: ('A' for Active; 'I' for Inactive)
REMARK    1  A    between atoms: C_4  and  C_1 
REMARK    2  A    between atoms: O_11  and  C_1 
REMARK    3  A    between atoms: C_3  and  O_12 
REMARK    4  A    between atoms: C_6  and  O_14 
REMARK    5  A    between atoms: C_8  and  O_19 
REMARK    6  A    between atoms: C_9  and  O_16 
REMARK    7  A    between atoms: C_10  and  O_19 
ROOT
HETATM    1  C   UNK N   1      35.128  15.276   9.686  0.00  0.00     0.179 C 
HETATM    2  C   UNK N   1      34.116  14.311  10.305  0.00  0.00     0.182 C 
HETATM    3  C   UNK N   1      33.479  13.833   9.031  0.00  0.00     0.204 C 
HETATM    4  C   UNK N   1      33.313  15.168   8.314  0.00  0.00     0.292 C 
HETATM    5  O   UNK N   1      33.178  15.010  11.078  0.00  0.00    -0.390 OA
HETATM    6  O   UNK N   1      34.499  15.898   8.582  0.00  0.00    -0.348 OA
HETATM    7  H   UNK N   1      32.514  15.546  11.540  0.00  0.00     0.210 HD
ENDROOT
BRANCH   1   8
HETATM    8  C   UNK N   1      35.634  16.330  10.667  0.00  0.00     0.198 C 
BRANCH   8   9
HETATM    9  O   UNK N   1      36.991  16.150  10.931  0.00  0.00    -0.398 OA
HETATM   10  H   UNK N   1      37.514  15.495  10.442  0.00  0.00     0.209 HD
ENDBRANCH   8   9
ENDBRANCH   1   8
BRANCH   3  11
HETATM   11  O   UNK N   1      32.270  13.163   9.232  0.00  0.00    -0.388 OA
HETATM   12  H   UNK N   1      31.485  13.480   9.705  0.00  0.00     0.210 HD
ENDBRANCH   3  11
BRANCH   4  13
HETATM   13  O   UNK N   1      33.134  14.954   6.926  0.00  0.00    -0.348 OA
BRANCH  13  14
HETATM   14  C   UNK N   1      32.535  16.077   6.292  0.00  0.00     0.189 C 
HETATM   15  C   UNK N   1      33.555  16.840   5.397  0.00  0.00     0.173 C 
HETATM   16  C   UNK N   1      32.890  17.431   4.144  0.00  0.00     0.205 C 
HETATM   17  O   UNK N   1      31.605  17.929   4.422  0.00  0.00    -0.356 OA
HETATM   18  C   UNK N   1      30.710  16.886   4.804  0.00  0.00     0.288 C 
HETATM   19  C   UNK N   1      31.376  15.608   5.398  0.00  0.00     0.204 C 
HETATM   20  O   UNK N   1      31.866  14.781   4.379  0.00  0.00    -0.388 OA
HETATM   21  H   UNK N   1      32.266  14.124   3.787  0.00  0.00     0.210 HD
BRANCH  15  22
HETATM   22  O   UNK N   1      34.179  17.858   6.121  0.00  0.00    -0.391 OA
HETATM   23  H   UNK N   1      34.118  18.078   7.063  0.00  0.00     0.210 HD
ENDBRANCH  15  22
BRANCH  18  24
HETATM   24  O   UNK N   1      29.864  16.558   3.741  0.00  0.00    -0.369 OA
HETATM   25  H   UNK N   1      28.897  16.528   3.808  0.00  0.00     0.212 HD
ENDBRANCH  18  24
ENDBRANCH  13  14
ENDBRANCH   4  13
TORSDOF 7
ENDMDL
MODEL 8
REMARK VINA RESULT:      -5.8      3.650      5.982
REMARK  7 active torsions:
REMARK  status: ('A' for Active; 'I' for Inactive)
REMARK    1  A    between atoms: C_4  and  C_1 
REMARK    2  A    between atoms: O_11  and  C_1 
REMARK    3  A    between atoms: C_3  and  O_12 
REMARK    4  A    between atoms: C_6  and  O_14 
REMARK    5  A    between atoms: C_8  and  O_19 
REMARK    6  A    between atoms: C_9  and  O_16 
REMARK    7  A    between atoms: C_10  and  O_19 
ROOT
HETATM    1  C   UNK N   1      20.515  16.914   7.752  0.00  0.00     0.179 C 
HETATM    2  C   UNK N   1      19.756  15.705   7.205  0.00  0.00     0.182 C 
HETATM    3  C   UNK N   1      20.578  15.487   5.967  0.00  0.00     0.204 C 
HETATM    4  C   UNK N   1      20.694  16.927   5.482  0.00  0.00     0.292 C 
HETATM    5  O   UNK N   1      18.446  16.063   6.854  0.00  0.00    -0.390 OA
HETATM    6  O   UNK N   1      20.898  17.709   6.646  0.00  0.00    -0.348 OA
HETATM    7  H   UNK N   1      17.576  16.377   6.561  0.00  0.00     0.210 HD
ENDROOT
BRANCH   1   8
HETATM    8  C   UNK N   1      19.698  17.742   8.740  0.00  0.00     0.198 C 
BRANCH   8   9
HETATM    9  O   UNK N   1      20.045  19.090   8.662  0.00  0.00    -0.398 OA
HETATM   10  H   UNK N   1      20.650  19.489   9.308  0.00  0.00     0.209 HD
ENDBRANCH   8   9
ENDBRANCH   1   8
BRANCH   3  11
HETATM   11  O   UNK N   1      19.968  14.641   5.037  0.00  0.00    -0.388 OA
HETATM   12  H   UNK N   1      19.824  14.800   4.091  0.00  0.00     0.210 HD
ENDBRANCH   3  11
BRANCH   4  13
HETATM   13  O   UNK N   1      21.775  17.048   4.576  0.00  0.00    -0.348 OA
BRANCH  13  14
HETATM   14  C   UNK N   1      21.438  17.858   3.457  0.00  0.00     0.189 C 
HETATM   15  C   UNK N   1      19.908  17.829   3.170  0.00  0.00     0.173 C 
HETATM   16  C   UNK N   1      19.397  19.179   2.642  0.00  0.00     0.205 C 
HETATM   17  O   UNK N   1      20.320  19.780   1.768  0.00  0.00    -0.356 OA
HETATM   18  C   UNK N   1      21.527  20.130   2.442  0.00  0.00     0.288 C 
HETATM   19  C   UNK N   1      21.842  19.315   3.734  0.00  0.00     0.204 C 
HETATM   20  O   UNK N   1      21.118  19.810   4.825  0.00  0.00    -0.388 OA
HETATM   21  H   UNK N   1      20.673  20.033   5.658  0.00  0.00     0.210 HD
BRANCH  15  22
HETATM   22  O   UNK N   1      19.598  16.821   2.255  0.00  0.00    -0.391 OA
HETATM   23  H   UNK N   1      19.320  15.905   2.411  0.00  0.00     0.210 HD
ENDBRANCH  15  22
BRANCH  18  24
HETATM   24  O   UNK N   1      21.559  21.503   2.701  0.00  0.00    -0.369 OA
HETATM   25  H   UNK N   1      22.075  21.908   3.416  0.00  0.00     0.212 HD
ENDBRANCH  18  24
ENDBRANCH  13  14
ENDBRANCH   4  13
TORSDOF 7
ENDMDL
MODEL 9
REMARK VINA RESULT:      -5.8      3.272      5.607
REMARK  7 active torsions:
REMARK  status: ('A' for Active; 'I' for Inactive)
REMARK    1  A    between atoms: C_4  and  C_1 
REMARK    2  A    between atoms: O_11  and  C_1 
REMARK    3  A    between atoms: C_3  and  O_12 
REMARK    4  A    between atoms: C_6  and  O_14 
REMARK    5  A    between atoms: C_8  and  O_19 
REMARK    6  A    between atoms: C_9  and  O_16 
REMARK    7  A    between atoms: C_10  and  O_19 
ROOT
HETATM    1  C   UNK N   1      21.436  19.851   3.238  0.00  0.00     0.179 C 
HETATM    2  C   UNK N   1      20.270  19.950   2.253  0.00  0.00     0.182 C 
HETATM    3  C   UNK N   1      19.330  19.007   2.949  0.00  0.00     0.204 C 
HETATM    4  C   UNK N   1      20.300  17.877   3.276  0.00  0.00     0.292 C 
HETATM    5  O   UNK N   1      20.635  19.429   1.003  0.00  0.00    -0.390 OA
HETATM    6  O   UNK N   1      21.502  18.509   3.680  0.00  0.00    -0.348 OA
HETATM    7  H   UNK N   1      20.913  18.992   0.182  0.00  0.00     0.210 HD
ENDROOT
BRANCH   1   8
HETATM    8  C   UNK N   1      22.772  20.275   2.634  0.00  0.00     0.198 C 
BRANCH   8   9
HETATM    9  O   UNK N   1      23.027  21.621   2.891  0.00  0.00    -0.398 OA
HETATM   10  H   UNK N   1      22.304  22.267   2.940  0.00  0.00     0.209 HD
ENDBRANCH   8   9
ENDBRANCH   1   8
BRANCH   3  11
HETATM   11  O   UNK N   1      18.260  18.599   2.149  0.00  0.00    -0.388 OA
HETATM   12  H   UNK N   1      17.341  18.907   2.181  0.00  0.00     0.210 HD
ENDBRANCH   3  11
BRANCH   4  13
HETATM   13  O   UNK N   1      19.766  17.064   4.304  0.00  0.00    -0.348 OA
BRANCH  13  14
HETATM   14  C   UNK N   1      20.777  16.604   5.192  0.00  0.00     0.189 C 
HETATM   15  C   UNK N   1      20.629  17.237   6.606  0.00  0.00     0.173 C 
HETATM   16  C   UNK N   1      21.046  16.261   7.718  0.00  0.00     0.205 C 
HETATM   17  O   UNK N   1      22.163  15.493   7.346  0.00  0.00    -0.356 OA
HETATM   18  C   UNK N   1      21.863  14.629   6.252  0.00  0.00     0.288 C 
HETATM   19  C   UNK N   1      20.679  15.078   5.341  0.00  0.00     0.204 C 
HETATM   20  O   UNK N   1      19.449  14.735   5.917  0.00  0.00    -0.388 OA
HETATM   21  H   UNK N   1      18.535  14.576   6.200  0.00  0.00     0.210 HD
BRANCH  15  22
HETATM   22  O   UNK N   1      21.383  18.408   6.703  0.00  0.00    -0.391 OA
HETATM   23  H   UNK N   1      21.781  18.950   6.005  0.00  0.00     0.210 HD
ENDBRANCH  15  22
BRANCH  18  24
HETATM   24  O   UNK N   1      21.675  13.321   6.703  0.00  0.00    -0.369 OA
HETATM   25  H   UNK N   1      20.818  12.961   6.980  0.00  0.00     0.212 HD
ENDBRANCH  18  24
ENDBRANCH  13  14
ENDBRANCH   4  13
TORSDOF 7
ENDMDL
