MODEL 1
REMARK VINA RESULT:      -4.8      0.000      0.000
REMARK  9 active torsions:
REMARK  status: ('A' for Active; 'I' for Inactive)
REMARK    1  A    between atoms: C_2  and  C_1 
REMARK    2  A    between atoms: C_3  and  C_1 
REMARK    3  A    between atoms: C_1  and  N_4 
REMARK    4  A    between atoms: O_6  and  C_2 
REMARK    5  A    between atoms: C_3  and  O_7 
REMARK    6  A    between atoms: O_11  and  C_3 
REMARK    7  A    between atoms: P_12  and  O_8 
REMARK    8  A    between atoms: P_12  and  O_9 
REMARK    9  A    between atoms: P_12  and  O_11 
ROOT
HETATM    1  C   UNK N   1      19.935  17.783   2.703  0.00  0.00     0.301 C 
ENDROOT
BRANCH   1   2
HETATM    2  C   UNK N   1      20.155  16.549   1.809  0.00  0.00     0.229 C 
BRANCH   2   3
HETATM    3  C   UNK N   1      19.771  16.793   0.367  0.00  0.00     0.168 C 
HETATM    4  O   UNK N   1      18.975  16.050  -0.181  0.00  0.00    -0.648 OA
BRANCH   3   5
HETATM    5  O   UNK N   1      20.280  17.839  -0.319  0.00  0.00    -0.775 OA
HETATM    6  H   UNK N   1      20.818  17.706  -1.075  0.00  0.00     0.167 HD
ENDBRANCH   3   5
ENDBRANCH   2   3
BRANCH   2   7
HETATM    7  N   UNK N   1      19.360  15.439   2.315  0.00  0.00    -0.414 N 
HETATM    8  H   UNK N   1      19.112  15.035   3.218  0.00  0.00     0.150 HD
HETATM    9  H   UNK N   1      18.929  14.920   1.550  0.00  0.00     0.150 HD
ENDBRANCH   2   7
ENDBRANCH   1   2
BRANCH   1  10
HETATM   10  O   UNK N   1      18.652  18.309   2.481  0.00  0.00    -0.368 OA
HETATM   11  H   UNK N   1      17.894  18.189   1.888  0.00  0.00     0.212 HD
ENDBRANCH   1  10
BRANCH   1  12
HETATM   12  O   UNK N   1      20.989  18.726   2.516  0.00  0.00    -0.263 OA
BRANCH  12  13
HETATM   13  P   UNK N   1      20.591  20.362   3.013  0.00  0.00     0.393 P 
HETATM   14  O   UNK N   1      22.110  20.310   3.331  0.00  0.00    -0.631 OA
BRANCH  13  15
HETATM   15  O   UNK N   1      21.227  21.726   2.148  0.00  0.00    -0.307 OA
HETATM   16  H   UNK N   1      20.884  22.625   2.276  0.00  0.00     0.222 HD
ENDBRANCH  13  15
BRANCH  13  17
HETATM   17  O   UNK N   1      20.361  20.181   1.301  0.00  0.00    -0.307 OA
HETATM   18  H   UNK N   1      20.651  20.796   0.610  0.00  0.00     0.222 HD
ENDBRANCH  13  17
ENDBRANCH  12  13
ENDBRANCH   1  12
TORSDOF 9
ENDMDL
MODEL 2
REMARK VINA RESULT:      -4.6     14.995     16.328
REMARK  9 active torsions:
REMARK  status: ('A' for Active; 'I' for Inactive)
REMARK    1  A    between atoms: C_2  and  C_1 
REMARK    2  A    between atoms: C_3  and  C_1 
REMARK    3  A    between atoms: C_1  and  N_4 
REMARK    4  A    between atoms: O_6  and  C_2 
REMARK    5  A    between atoms: C_3  and  O_7 
REMARK    6  A    between atoms: O_11  and  C_3 
REMARK    7  A    between atoms: P_12  and  O_8 
REMARK    8  A    between atoms: P_12  and  O_9 
REMARK    9  A    between atoms: P_12  and  O_11 
ROOT
HETATM    1  C   UNK N   1      33.477  15.856   8.727  0.00  0.00     0.301 C 
ENDROOT
BRANCH   1   2
HETATM    2  C   UNK N   1      32.904  17.032   7.914  0.00  0.00     0.229 C 
BRANCH   2   3
HETATM    3  C   UNK N   1      33.980  17.892   7.289  0.00  0.00     0.168 C 
HETATM    4  O   UNK N   1      34.188  17.825   6.090  0.00  0.00    -0.648 OA
BRANCH   3   5
HETATM    5  O   UNK N   1      34.700  18.755   8.038  0.00  0.00    -0.775 OA
HETATM    6  H   UNK N   1      35.260  19.391   7.639  0.00  0.00     0.167 HD
ENDBRANCH   3   5
ENDBRANCH   2   3
BRANCH   2   7
HETATM    7  N   UNK N   1      32.092  17.870   8.783  0.00  0.00    -0.414 N 
HETATM    8  H   UNK N   1      31.793  18.844   8.833  0.00  0.00     0.150 HD
HETATM    9  H   UNK N   1      31.713  17.330   9.562  0.00  0.00     0.150 HD
ENDBRANCH   2   7
ENDBRANCH   1   2
BRANCH   1  10
HETATM   10  O   UNK N   1      32.779  15.733   9.940  0.00  0.00    -0.368 OA
HETATM   11  H   UNK N   1      32.058  16.160  10.427  0.00  0.00     0.212 HD
ENDBRANCH   1  10
BRANCH   1  12
HETATM   12  O   UNK N   1      34.888  15.999   8.881  0.00  0.00    -0.263 OA
BRANCH  12  13
HETATM   13  P   UNK N   1      35.500  15.480  10.442  0.00  0.00     0.393 P 
HETATM   14  O   UNK N   1      36.534  14.832   9.480  0.00  0.00    -0.631 OA
BRANCH  13  15
HETATM   15  O   UNK N   1      37.021  16.071  11.034  0.00  0.00    -0.307 OA
HETATM   16  H   UNK N   1      37.791  16.189  10.454  0.00  0.00     0.222 HD
ENDBRANCH  13  15
BRANCH  13  17
HETATM   17  O   UNK N   1      35.598  17.208  10.302  0.00  0.00    -0.307 OA
HETATM   18  H   UNK N   1      34.987  17.855  10.687  0.00  0.00     0.222 HD
ENDBRANCH  13  17
ENDBRANCH  12  13
ENDBRANCH   1  12
TORSDOF 9
ENDMDL
MODEL 3
REMARK VINA RESULT:      -4.5      9.920     10.859
REMARK  9 active torsions:
REMARK  status: ('A' for Active; 'I' for Inactive)
REMARK    1  A    between atoms: C_2  and  C_1 
REMARK    2  A    between atoms: C_3  and  C_1 
REMARK    3  A    between atoms: C_1  and  N_4 
REMARK    4  A    between atoms: O_6  and  C_2 
REMARK    5  A    between atoms: C_3  and  O_7 
REMARK    6  A    between atoms: O_11  and  C_3 
REMARK    7  A    between atoms: P_12  and  O_8 
REMARK    8  A    between atoms: P_12  and  O_9 
REMARK    9  A    between atoms: P_12  and  O_11 
ROOT
HETATM    1  C   UNK N   1      21.434  12.522  10.843  0.00  0.00     0.301 C 
ENDROOT
BRANCH   1   2
HETATM    2  C   UNK N   1      22.724  11.685  10.768  0.00  0.00     0.229 C 
BRANCH   2   3
HETATM    3  C   UNK N   1      23.674  11.967  11.911  0.00  0.00     0.168 C 
HETATM    4  O   UNK N   1      23.268  11.922  13.060  0.00  0.00    -0.648 OA
BRANCH   3   5
HETATM    5  O   UNK N   1      24.975  12.245  11.680  0.00  0.00    -0.775 OA
HETATM    6  H   UNK N   1      25.339  12.175  10.819  0.00  0.00     0.167 HD
ENDBRANCH   3   5
ENDBRANCH   2   3
BRANCH   2   7
HETATM    7  N   UNK N   1      23.412  11.971   9.518  0.00  0.00    -0.414 N 
HETATM    8  H   UNK N   1      24.373  12.051   9.183  0.00  0.00     0.150 HD
HETATM    9  H   UNK N   1      22.747  12.136   8.763  0.00  0.00     0.150 HD
ENDBRANCH   2   7
ENDBRANCH   1   2
BRANCH   1  10
HETATM   10  O   UNK N   1      20.517  11.904  11.709  0.00  0.00    -0.368 OA
HETATM   11  H   UNK N   1      20.444  11.623  12.634  0.00  0.00     0.212 HD
ENDBRANCH   1  10
BRANCH   1  12
HETATM   12  O   UNK N   1      20.923  12.766   9.534  0.00  0.00    -0.263 OA
BRANCH  12  13
HETATM   13  P   UNK N   1      20.853  14.463   9.090  0.00  0.00     0.393 P 
HETATM   14  O   UNK N   1      20.858  13.784   7.693  0.00  0.00    -0.631 OA
BRANCH  13  15
HETATM   15  O   UNK N   1      19.440  15.117   8.324  0.00  0.00    -0.307 OA
HETATM   16  H   UNK N   1      18.850  14.574   7.778  0.00  0.00     0.222 HD
ENDBRANCH  13  15
BRANCH  13  17
HETATM   17  O   UNK N   1      19.410  14.004   9.940  0.00  0.00    -0.307 OA
HETATM   18  H   UNK N   1      18.811  13.277   9.712  0.00  0.00     0.222 HD
ENDBRANCH  13  17
ENDBRANCH  12  13
ENDBRANCH   1  12
TORSDOF 9
ENDMDL
MODEL 4
REMARK VINA RESULT:      -4.4     17.156     18.538
REMARK  9 active torsions:
REMARK  status: ('A' for Active; 'I' for Inactive)
REMARK    1  A    between atoms: C_2  and  C_1 
REMARK    2  A    between atoms: C_3  and  C_1 
REMARK    3  A    between atoms: C_1  and  N_4 
REMARK    4  A    between atoms: O_6  and  C_2 
REMARK    5  A    between atoms: C_3  and  O_7 
REMARK    6  A    between atoms: O_11  and  C_3 
REMARK    7  A    between atoms: P_12  and  O_8 
REMARK    8  A    between atoms: P_12  and  O_9 
REMARK    9  A    between atoms: P_12  and  O_11 
ROOT
HETATM    1  C   UNK N   1      35.909  14.968  11.148  0.00  0.00     0.301 C 
ENDROOT
BRANCH   1   2
HETATM    2  C   UNK N   1      34.767  15.402  10.212  0.00  0.00     0.229 C 
BRANCH   2   3
HETATM    3  C   UNK N   1      34.742  16.895   9.971  0.00  0.00     0.168 C 
HETATM    4  O   UNK N   1      35.691  17.580  10.313  0.00  0.00    -0.648 OA
BRANCH   3   5
HETATM    5  O   UNK N   1      33.690  17.481   9.358  0.00  0.00    -0.775 OA
HETATM    6  H   UNK N   1      33.515  17.331   8.450  0.00  0.00     0.167 HD
ENDBRANCH   3   5
ENDBRANCH   2   3
BRANCH   2   7
HETATM    7  N   UNK N   1      33.492  15.009  10.792  0.00  0.00    -0.414 N 
HETATM    8  H   UNK N   1      32.940  14.158  10.901  0.00  0.00     0.150 HD
HETATM    9  H   UNK N   1      33.016  15.810  11.207  0.00  0.00     0.150 HD
ENDBRANCH   2   7
ENDBRANCH   1   2
BRANCH   1  10
HETATM   10  O   UNK N   1      37.146  15.327  10.588  0.00  0.00    -0.368 OA
HETATM   11  H   UNK N   1      38.095  15.217  10.754  0.00  0.00     0.212 HD
ENDBRANCH   1  10
BRANCH   1  12
HETATM   12  O   UNK N   1      35.795  13.581  11.462  0.00  0.00    -0.263 OA
BRANCH  12  13
HETATM   13  P   UNK N   1      36.091  13.195  13.149  0.00  0.00     0.393 P 
HETATM   14  O   UNK N   1      36.200  14.744  13.169  0.00  0.00    -0.631 OA
BRANCH  13  15
HETATM   15  O   UNK N   1      34.952  13.658  14.373  0.00  0.00    -0.307 OA
HETATM   16  H   UNK N   1      34.889  14.569  14.703  0.00  0.00     0.222 HD
ENDBRANCH  13  15
BRANCH  13  17
HETATM   17  O   UNK N   1      34.474  12.744  12.703  0.00  0.00    -0.307 OA
HETATM   18  H   UNK N   1      33.815  12.318  13.272  0.00  0.00     0.222 HD
ENDBRANCH  13  17
ENDBRANCH  12  13
ENDBRANCH   1  12
TORSDOF 9
ENDMDL
MODEL 5
REMARK VINA RESULT:      -4.4     16.222     17.476
REMARK  9 active torsions:
REMARK  status: ('A' for Active; 'I' for Inactive)
REMARK    1  A    between atoms: C_2  and  C_1 
REMARK    2  A    between atoms: C_3  and  C_1 
REMARK    3  A    between atoms: C_1  and  N_4 
REMARK    4  A    between atoms: O_6  and  C_2 
REMARK    5  A    between atoms: C_3  and  O_7 
REMARK    6  A    between atoms: O_11  and  C_3 
REMARK    7  A    between atoms: P_12  and  O_8 
REMARK    8  A    between atoms: P_12  and  O_9 
REMARK    9  A    between atoms: P_12  and  O_11 
ROOT
HETATM    1  C   UNK N   1      34.921  16.564  10.641  0.00  0.00     0.301 C 
ENDROOT
BRANCH   1   2
HETATM    2  C   UNK N   1      36.059  15.719  11.242  0.00  0.00     0.229 C 
BRANCH   2   3
HETATM    3  C   UNK N   1      36.801  14.910  10.202  0.00  0.00     0.168 C 
HETATM    4  O   UNK N   1      36.178  14.212   9.420  0.00  0.00    -0.648 OA
BRANCH   3   5
HETATM    5  O   UNK N   1      38.147  14.965  10.111  0.00  0.00    -0.775 OA
HETATM    6  H   UNK N   1      38.591  14.682   9.336  0.00  0.00     0.167 HD
ENDBRANCH   3   5
ENDBRANCH   2   3
BRANCH   2   7
HETATM    7  N   UNK N   1      35.510  14.803  12.231  0.00  0.00    -0.414 N 
HETATM    8  H   UNK N   1      35.654  13.840  12.534  0.00  0.00     0.150 HD
HETATM    9  H   UNK N   1      34.773  15.252  12.776  0.00  0.00     0.150 HD
ENDBRANCH   2   7
ENDBRANCH   1   2
BRANCH   1  10
HETATM   10  O   UNK N   1      33.844  15.733  10.292  0.00  0.00    -0.368 OA
HETATM   11  H   UNK N   1      33.473  15.288   9.515  0.00  0.00     0.212 HD
ENDBRANCH   1  10
BRANCH   1  12
HETATM   12  O   UNK N   1      35.410  17.363   9.565  0.00  0.00    -0.263 OA
BRANCH  12  13
HETATM   13  P   UNK N   1      34.169  17.914   8.453  0.00  0.00     0.393 P 
HETATM   14  O   UNK N   1      35.179  19.092   8.388  0.00  0.00    -0.631 OA
BRANCH  13  15
HETATM   15  O   UNK N   1      34.505  18.057   6.756  0.00  0.00    -0.307 OA
HETATM   16  H   UNK N   1      33.835  18.351   6.119  0.00  0.00     0.222 HD
ENDBRANCH  13  15
BRANCH  13  17
HETATM   17  O   UNK N   1      34.929  16.478   7.842  0.00  0.00    -0.307 OA
HETATM   18  H   UNK N   1      35.025  16.226   6.910  0.00  0.00     0.222 HD
ENDBRANCH  13  17
ENDBRANCH  12  13
ENDBRANCH   1  12
TORSDOF 9
ENDMDL
MODEL 6
REMARK VINA RESULT:      -4.3     16.986     18.332
REMARK  9 active torsions:
REMARK  status: ('A' for Active; 'I' for Inactive)
REMARK    1  A    between atoms: C_2  and  C_1 
REMARK    2  A    between atoms: C_3  and  C_1 
REMARK    3  A    between atoms: C_1  and  N_4 
REMARK    4  A    between atoms: O_6  and  C_2 
REMARK    5  A    between atoms: C_3  and  O_7 
REMARK    6  A    between atoms: O_11  and  C_3 
REMARK    7  A    between atoms: P_12  and  O_8 
REMARK    8  A    between atoms: P_12  and  O_9 
REMARK    9  A    between atoms: P_12  and  O_11 
ROOT
HETATM    1  C   UNK N   1      34.517  14.301  10.544  0.00  0.00     0.301 C 
ENDROOT
BRANCH   1   2
HETATM    2  C   UNK N   1      35.233  15.280   9.595  0.00  0.00     0.229 C 
BRANCH   2   3
HETATM    3  C   UNK N   1      34.807  16.716   9.803  0.00  0.00     0.168 C 
HETATM    4  O   UNK N   1      35.544  17.486  10.396  0.00  0.00    -0.648 OA
BRANCH   3   5
HETATM    5  O   UNK N   1      33.629  17.168   9.321  0.00  0.00    -0.775 OA
HETATM    6  H   UNK N   1      32.891  17.290   9.884  0.00  0.00     0.167 HD
ENDBRANCH   3   5
ENDBRANCH   2   3
BRANCH   2   7
HETATM    7  N   UNK N   1      34.948  14.911   8.216  0.00  0.00    -0.414 N 
HETATM    8  H   UNK N   1      35.023  14.086   7.622  0.00  0.00     0.150 HD
HETATM    9  H   UNK N   1      34.563  15.702   7.698  0.00  0.00     0.150 HD
ENDBRANCH   2   7
ENDBRANCH   1   2
BRANCH   1  10
HETATM   10  O   UNK N   1      33.538  14.985  11.282  0.00  0.00    -0.368 OA
HETATM   11  H   UNK N   1      32.579  14.977  11.428  0.00  0.00     0.212 HD
ENDBRANCH   1  10
BRANCH   1  12
HETATM   12  O   UNK N   1      35.467  13.603  11.347  0.00  0.00    -0.263 OA
BRANCH  12  13
HETATM   13  P   UNK N   1      35.997  14.485  12.769  0.00  0.00     0.393 P 
HETATM   14  O   UNK N   1      34.989  13.482  13.393  0.00  0.00    -0.631 OA
BRANCH  13  15
HETATM   15  O   UNK N   1      36.931  13.693  14.000  0.00  0.00    -0.307 OA
HETATM   16  H   UNK N   1      37.661  14.137  14.460  0.00  0.00     0.222 HD
ENDBRANCH  13  15
BRANCH  13  17
HETATM   17  O   UNK N   1      37.324  13.602  12.078  0.00  0.00    -0.307 OA
HETATM   18  H   UNK N   1      38.029  13.145  12.563  0.00  0.00     0.222 HD
ENDBRANCH  13  17
ENDBRANCH  12  13
ENDBRANCH   1  12
TORSDOF 9
ENDMDL
MODEL 7
REMARK VINA RESULT:      -4.3     24.183     25.473
REMARK  9 active torsions:
REMARK  status: ('A' for Active; 'I' for Inactive)
REMARK    1  A    between atoms: C_2  and  C_1 
REMARK    2  A    between atoms: C_3  and  C_1 
REMARK    3  A    between atoms: C_1  and  N_4 
REMARK    4  A    between atoms: O_6  and  C_2 
REMARK    5  A    between atoms: C_3  and  O_7 
REMARK    6  A    between atoms: O_11  and  C_3 
REMARK    7  A    between atoms: P_12  and  O_8 
REMARK    8  A    between atoms: P_12  and  O_9 
REMARK    9  A    between atoms: P_12  and  O_11 
ROOT
HETATM    1  C   UNK N   1      43.896  23.469   1.967  0.00  0.00     0.301 C 
ENDROOT
BRANCH   1   2
HETATM    2  C   UNK N   1      44.714  24.531   1.211  0.00  0.00     0.229 C 
BRANCH   2   3
HETATM    3  C   UNK N   1      45.612  25.339   2.121  0.00  0.00     0.168 C 
HETATM    4  O   UNK N   1      45.334  26.500   2.370  0.00  0.00    -0.648 OA
BRANCH   3   5
HETATM    5  O   UNK N   1      46.708  24.787   2.684  0.00  0.00    -0.775 OA
HETATM    6  H   UNK N   1      47.524  25.247   2.708  0.00  0.00     0.167 HD
ENDBRANCH   3   5
ENDBRANCH   2   3
BRANCH   2   7
HETATM    7  N   UNK N   1      43.809  25.444   0.530  0.00  0.00    -0.414 N 
HETATM    8  H   UNK N   1      43.863  26.179  -0.175  0.00  0.00     0.150 HD
HETATM    9  H   UNK N   1      42.848  25.310   0.845  0.00  0.00     0.150 HD
ENDBRANCH   2   7
ENDBRANCH   1   2
BRANCH   1  10
HETATM   10  O   UNK N   1      42.527  23.770   1.875  0.00  0.00    -0.368 OA
HETATM   11  H   UNK N   1      41.790  23.687   1.249  0.00  0.00     0.212 HD
ENDBRANCH   1  10
BRANCH   1  12
HETATM   12  O   UNK N   1      44.371  23.335   3.306  0.00  0.00    -0.263 OA
BRANCH  12  13
HETATM   13  P   UNK N   1      44.384  21.686   3.906  0.00  0.00     0.393 P 
HETATM   14  O   UNK N   1      44.288  21.449   2.374  0.00  0.00    -0.631 OA
BRANCH  13  15
HETATM   15  O   UNK N   1      45.729  20.639   3.579  0.00  0.00    -0.307 OA
HETATM   16  H   UNK N   1      45.632  19.814   3.076  0.00  0.00     0.222 HD
ENDBRANCH  13  15
BRANCH  13  17
HETATM   17  O   UNK N   1      45.891  22.470   4.268  0.00  0.00    -0.307 OA
HETATM   18  H   UNK N   1      46.383  22.420   5.102  0.00  0.00     0.222 HD
ENDBRANCH  13  17
ENDBRANCH  12  13
ENDBRANCH   1  12
TORSDOF 9
ENDMDL
MODEL 8
REMARK VINA RESULT:      -4.2     18.271     19.563
REMARK  9 active torsions:
REMARK  status: ('A' for Active; 'I' for Inactive)
REMARK    1  A    between atoms: C_2  and  C_1 
REMARK    2  A    between atoms: C_3  and  C_1 
REMARK    3  A    between atoms: C_1  and  N_4 
REMARK    4  A    between atoms: O_6  and  C_2 
REMARK    5  A    between atoms: C_3  and  O_7 
REMARK    6  A    between atoms: O_11  and  C_3 
REMARK    7  A    between atoms: P_12  and  O_8 
REMARK    8  A    between atoms: P_12  and  O_9 
REMARK    9  A    between atoms: P_12  and  O_11 
ROOT
HETATM    1  C   UNK N   1      35.343  13.711  12.332  0.00  0.00     0.301 C 
ENDROOT
BRANCH   1   2
HETATM    2  C   UNK N   1      36.280  13.655  13.551  0.00  0.00     0.229 C 
BRANCH   2   3
HETATM    3  C   UNK N   1      35.616  13.067  14.776  0.00  0.00     0.168 C 
HETATM    4  O   UNK N   1      34.405  13.134  14.899  0.00  0.00    -0.648 OA
BRANCH   3   5
HETATM    5  O   UNK N   1      36.344  12.445  15.729  0.00  0.00    -0.775 OA
HETATM    6  H   UNK N   1      36.746  11.614  15.565  0.00  0.00     0.167 HD
ENDBRANCH   3   5
ENDBRANCH   2   3
BRANCH   2   7
HETATM    7  N   UNK N   1      36.731  15.000  13.875  0.00  0.00    -0.414 N 
HETATM    8  H   UNK N   1      36.753  15.919  13.433  0.00  0.00     0.150 HD
HETATM    9  H   UNK N   1      37.141  15.034  14.809  0.00  0.00     0.150 HD
ENDBRANCH   2   7
ENDBRANCH   1   2
BRANCH   1  10
HETATM   10  O   UNK N   1      34.717  12.466  12.156  0.00  0.00    -0.368 OA
HETATM   11  H   UNK N   1      34.944  11.526  12.082  0.00  0.00     0.212 HD
ENDBRANCH   1  10
BRANCH   1  12
HETATM   12  O   UNK N   1      36.049  14.173  11.182  0.00  0.00    -0.263 OA
BRANCH  12  13
HETATM   13  P   UNK N   1      35.246  15.469  10.312  0.00  0.00     0.393 P 
HETATM   14  O   UNK N   1      34.260  15.238  11.490  0.00  0.00    -0.631 OA
BRANCH  13  15
HETATM   15  O   UNK N   1      35.095  17.046  11.021  0.00  0.00    -0.307 OA
HETATM   16  H   UNK N   1      34.233  17.467  11.166  0.00  0.00     0.222 HD
ENDBRANCH  13  15
BRANCH  13  17
HETATM   17  O   UNK N   1      36.767  16.020  10.943  0.00  0.00    -0.307 OA
HETATM   18  H   UNK N   1      37.308  15.579  11.615  0.00  0.00     0.222 HD
ENDBRANCH  13  17
ENDBRANCH  12  13
ENDBRANCH   1  12
TORSDOF 9
ENDMDL
MODEL 9
REMARK VINA RESULT:      -4.2     22.845     23.999
REMARK  9 active torsions:
REMARK  status: ('A' for Active; 'I' for Inactive)
REMARK    1  A    between atoms: C_2  and  C_1 
REMARK    2  A    between atoms: C_3  and  C_1 
REMARK    3  A    between atoms: C_1  and  N_4 
REMARK    4  A    between atoms: O_6  and  C_2 
REMARK    5  A    between atoms: C_3  and  O_7 
REMARK    6  A    between atoms: O_11  and  C_3 
REMARK    7  A    between atoms: P_12  and  O_8 
REMARK    8  A    between atoms: P_12  and  O_9 
REMARK    9  A    between atoms: P_12  and  O_11 
ROOT
HETATM    1  C   UNK N   1      43.759  23.316   2.747  0.00  0.00     0.301 C 
ENDROOT
BRANCH   1   2
HETATM    2  C   UNK N   1      42.721  22.266   2.311  0.00  0.00     0.229 C 
BRANCH   2   3
HETATM    3  C   UNK N   1      41.336  22.847   2.137  0.00  0.00     0.168 C 
HETATM    4  O   UNK N   1      40.363  22.112   2.167  0.00  0.00    -0.648 OA
BRANCH   3   5
HETATM    5  O   UNK N   1      41.157  24.175   1.970  0.00  0.00    -0.775 OA
HETATM    6  H   UNK N   1      40.646  24.674   2.576  0.00  0.00     0.167 HD
ENDBRANCH   3   5
ENDBRANCH   2   3
BRANCH   2   7
HETATM    7  N   UNK N   1      42.654  21.209   3.309  0.00  0.00    -0.414 N 
HETATM    8  H   UNK N   1      43.069  20.997   4.216  0.00  0.00     0.150 HD
HETATM    9  H   UNK N   1      42.008  20.474   3.021  0.00  0.00     0.150 HD
ENDBRANCH   2   7
ENDBRANCH   1   2
BRANCH   1  10
HETATM   10  O   UNK N   1      43.440  23.796   4.028  0.00  0.00    -0.368 OA
HETATM   11  H   UNK N   1      43.424  24.629   4.525  0.00  0.00     0.212 HD
ENDBRANCH   1  10
BRANCH   1  12
HETATM   12  O   UNK N   1      43.880  24.337   1.759  0.00  0.00    -0.263 OA
BRANCH  12  13
HETATM   13  P   UNK N   1      45.518  24.921   1.520  0.00  0.00     0.393 P 
HETATM   14  O   UNK N   1      45.062  25.784   2.728  0.00  0.00    -0.631 OA
BRANCH  13  15
HETATM   15  O   UNK N   1      46.744  24.620   2.710  0.00  0.00    -0.307 OA
HETATM   16  H   UNK N   1      47.359  25.311   3.006  0.00  0.00     0.222 HD
ENDBRANCH  13  15
BRANCH  13  17
HETATM   17  O   UNK N   1      45.538  23.249   1.990  0.00  0.00    -0.307 OA
HETATM   18  H   UNK N   1      44.896  22.802   2.563  0.00  0.00     0.222 HD
ENDBRANCH  13  17
ENDBRANCH  12  13
ENDBRANCH   1  12
TORSDOF 9
ENDMDL
