REMARK  8 active torsions:
REMARK  status: ('A' for Active; 'I' for Inactive)
REMARK       I    between atoms: N_1  and  C_2 
REMARK    1  A    between atoms: C_12  and  C_13 
REMARK    2  A    between atoms: C_13  and  O_14 
REMARK    3  A    between atoms: O_14  and  P_15 
REMARK    4  A    between atoms: P_15  and  O_16 
REMARK    5  A    between atoms: P_15  and  O_17 
REMARK    6  A    between atoms: Mo_22  and  S_23 
REMARK    7  A    between atoms: Mo_22  and  O_24 
REMARK    8  A    between atoms: Mo_22  and  O_26 
ROOT
HETATM    1  N   UNK N   1       9.870  -0.161   0.346  0.00  0.00    -0.234 N 
HETATM    2  C   UNK N   1       8.528   0.212   0.142  0.00  0.00     0.680 A 
HETATM    3  N   UNK N   1       7.610  -0.727  -0.212  0.00  0.00    -0.175 N 
ATOM      4  HN  UNK N   1       7.904  -1.695  -0.342  1.00  0.00     0.186 HD
HETATM    5  C   UNK N   1       6.308  -0.391  -0.394  0.00  0.00     0.151 A 
HETATM    6  C   UNK N   1       5.893   0.945  -0.227  0.00  0.00     0.143 A 
HETATM    7  N   UNK N   1       4.522   1.295  -0.422  0.00  0.00    -0.369 N 
HETATM    8  C   UNK N   1       3.623   0.335  -1.032  0.00  0.00     0.172 C 
HETATM    9  C   UNK N   1       3.967  -1.048  -0.473  0.00  0.00     0.251 C 
HETATM   10  N   UNK N   1       5.346  -1.384  -0.709  0.00  0.00    -0.345 N 
HETATM   11  O   UNK N   1       3.045  -2.018  -0.873  0.00  0.00    -0.352 OA
HETATM   12  C   UNK N   1       1.973  -1.708  -0.019  0.00  0.00     0.190 C 
HETATM   13  C   UNK N   1       1.331  -0.366  -0.330  0.00  0.00     0.036 C 
HETATM   14  C   UNK N   1       2.151   0.635  -0.778  0.00  0.00     0.033 C 
HETATM   15  S   UNK N   1       1.534   2.303  -1.092  0.00  0.00    -0.054 SA
HETATM   16 Mo   UNK N   1       0.117   2.073   0.902  0.00  0.00     0.000 Mo
HETATM   17  S   UNK N   1      -0.434  -0.119  -0.025  0.00  0.00    -0.053 SA
HETATM   18  C   UNK N   1       6.848   1.896   0.133  0.00  0.00     0.289 A 
HETATM   19  O   UNK N   1       6.534   3.063   0.286  0.00  0.00    -0.265 OA
HETATM   20  N   UNK N   1       8.151   1.509   0.314  0.00  0.00    -0.154 N 
HETATM   21  H   UNK N   1      10.113  -1.104   0.489  0.00  0.00     0.174 HD
HETATM   22  H   UNK N   1      10.573   0.528   0.346  0.00  0.00     0.174 HD
HETATM   23  H   UNK N   1       4.191   2.180  -0.146  0.00  0.00     0.161 HD
HETATM   24  H   UNK N   1       5.608  -2.261  -1.071  0.00  0.00     0.163 HD
HETATM   25  H   UNK N   1       8.824   2.179   0.572  0.00  0.00     0.187 HD
ENDROOT
BRANCH  12  26
HETATM   26  C   UNK N   1       1.120  -2.883   0.420  0.00  0.00     0.218 C 
BRANCH  26  27
HETATM   27  O   UNK N   1       0.221  -3.261  -0.577  0.00  0.00    -0.294 OA
BRANCH  27  28
HETATM   28  P   UNK N   1      -0.709  -4.526   0.167  0.00  0.00     0.390 P 
HETATM   29  O   UNK N   1      -0.212  -5.192  -1.144  0.00  0.00    -0.632 OA
BRANCH  28  30
HETATM   30  O   UNK N   1      -2.181  -5.075  -0.567  0.00  0.00    -0.307 OA
HETATM   31  H   UNK N   1      -2.859  -4.515  -0.977  0.00  0.00     0.222 HD
ENDBRANCH  28  30
BRANCH  28  32
HETATM   32  O   UNK N   1      -1.752  -3.185  -0.197  0.00  0.00    -0.307 OA
HETATM   33  H   UNK N   1      -1.395  -2.307  -0.400  0.00  0.00     0.222 HD
ENDBRANCH  28  32
ENDBRANCH  27  28
ENDBRANCH  26  27
ENDBRANCH  12  26
BRANCH  16  34
HETATM   34  S   UNK N   1       1.470   3.950   1.788  0.00  0.00    -0.114 SA
HETATM   35  H   UNK N   1       2.734   3.822   2.274  0.00  0.00     0.114 HD
ENDBRANCH  16  34
BRANCH  16  36
HETATM   36  O   UNK N   1      -1.281   3.223   0.780  0.00  0.00    -0.253 OA
ATOM     37  HO  UNK N   1      -1.828   3.134   1.551  1.00  0.00     0.253 HD
ENDBRANCH  16  36
BRANCH  16  38
HETATM   38  O   UNK N   1      -0.610   1.422   2.435  0.00  0.00    -0.253 OA
ATOM     39  HO  UNK N   1      -1.158   1.333   3.206  1.00  0.00     0.253 HD
ENDBRANCH  16  38
TORSDOF 8
