REMARK  5 active torsions:
REMARK  status: ('A' for Active; 'I' for Inactive)
REMARK    1  A    between atoms: C_3  and  C_1 
REMARK    2  A    between atoms: C_4  and  C_2 
REMARK    3  A    between atoms: C_5  and  C_2 
REMARK    4  A    between atoms: C_6  and  C_4 
REMARK    5  A    between atoms: C_4  and  O_9 
ROOT
HETATM    1  C   UNK N   1       1.717   0.423   0.009  0.00  0.00     0.101 C 
HETATM    2  C   UNK N   1       0.349   0.459  -0.061  0.00  0.00     0.064 C 
ENDROOT
BRANCH   2   3
HETATM    3  C   UNK N   1      -0.458  -0.857   0.015  0.00  0.00     0.259 C 
BRANCH   3   4
HETATM    4  C   UNK N   1      -1.971  -0.911   0.171  0.00  0.00     0.207 C 
HETATM    5  O   UNK N   1      -2.525  -1.997   0.110  0.00  0.00    -0.646 OA
HETATM    6  O   UNK N   1      -2.709   0.166   0.486  0.00  0.00    -0.646 OA
ENDBRANCH   3   4
BRANCH   3   7
HETATM    7  O   UNK N   1      -0.123  -1.622  -1.106  0.00  0.00    -0.380 OA
HETATM    8  H   UNK N   1      -0.466  -2.088  -1.884  0.00  0.00     0.211 HD
ENDBRANCH   3   7
ENDBRANCH   2   3
BRANCH   2   9
HETATM    9  C   UNK N   1      -0.270   1.815  -0.285  0.00  0.00     0.208 C 
HETATM   10  O   UNK N   1      -1.447   1.940  -0.564  0.00  0.00    -0.644 OA
HETATM   11  O   UNK N   1       0.497   2.924  -0.257  0.00  0.00    -0.644 OA
ENDBRANCH   2   9
BRANCH   1  12
HETATM   12  C   UNK N   1       2.587  -0.776   0.194  0.00  0.00     0.199 C 
HETATM   13  O   UNK N   1       3.800  -0.629   0.169  0.00  0.00    -0.644 OA
HETATM   14  O   UNK N   1       2.090  -2.009   0.395  0.00  0.00    -0.644 OA
ENDBRANCH   1  12
TORSDOF 5
