MODEL 1
REMARK VINA RESULT:      -6.9      0.000      0.000
REMARK  20 active torsions:
REMARK  status: ('A' for Active; 'I' for Inactive)
REMARK    1  A    between atoms: C_9  and  C_5 
REMARK    2  A    between atoms: O_45  and  C_5 
REMARK    3  A    between atoms: C_10  and  C_6 
REMARK    4  A    between atoms: O_46  and  C_6 
REMARK    5  A    between atoms: C_17  and  C_8 
REMARK    6  A    between atoms: C_12  and  O_34 
REMARK    7  A    between atoms: C_13  and  O_35 
REMARK    8  A    between atoms: C_14  and  O_36 
REMARK    9  A    between atoms: C_15  and  O_49 
REMARK   10  A    between atoms: N_23  and  C_16 
REMARK   11  A    between atoms: O_37  and  C_17 
REMARK   12  A    between atoms: C_19  and  N_32 
REMARK   13  A    between atoms: C_20  and  N_33 
REMARK   14  A    between atoms: P_51  and  O_39 
REMARK   15  A    between atoms: P_52  and  O_41 
REMARK   16  A    between atoms: P_52  and  O_45 
REMARK   17  A    between atoms: P_53  and  O_46 
REMARK   18  A    between atoms: P_51  and  O_49 
REMARK   19  A    between atoms: P_52  and  O_50 
REMARK   20  A    between atoms: P_53  and  O_50 
ROOT
HETATM    1  O   UNK N   1      20.959  15.704   0.460  0.00  0.00    -0.632 OA
HETATM    2  O   UNK N   1      19.184  14.950   2.272  0.00  0.00    -0.307 OA
HETATM    3  P   UNK N   1      20.525  15.998   1.922  0.00  0.00     0.391 P 
HETATM    4  H   UNK N   1      18.496  14.272   2.371  0.00  0.00     0.222 HD
ENDROOT
BRANCH   3   5
HETATM    5  O   UNK N   1      20.024  17.658   1.964  0.00  0.00    -0.307 OA
HETATM    6  H   UNK N   1      19.278  18.067   1.496  0.00  0.00     0.222 HD
ENDBRANCH   3   5
BRANCH   3   7
HETATM    7  O   UNK N   1      21.928  15.717   2.944  0.00  0.00    -0.284 OA
BRANCH   7   8
HETATM    8  C   UNK N   1      21.883  16.587   4.056  0.00  0.00     0.214 C 
HETATM    9  C   UNK N   1      20.681  16.427   4.962  0.00  0.00     0.183 C 
HETATM   10  C   UNK N   1      21.231  17.227   6.133  0.00  0.00     0.180 C 
HETATM   11  O   UNK N   1      22.534  16.745   6.352  0.00  0.00    -0.353 OA
HETATM   12  C   UNK N   1      23.010  16.309   5.082  0.00  0.00     0.264 C 
BRANCH   9  13
HETATM   13  O   UNK N   1      20.509  15.078   5.301  0.00  0.00    -0.390 OA
HETATM   14  H   UNK N   1      20.202  14.230   4.944  0.00  0.00     0.210 HD
ENDBRANCH   9  13
BRANCH  10  15
HETATM   15  C   UNK N   1      20.381  17.259   7.400  0.00  0.00     0.216 C 
BRANCH  15  16
HETATM   16  O   UNK N   1      19.512  16.174   7.516  0.00  0.00    -0.287 OA
BRANCH  16  17
HETATM   17  P   UNK N   1      19.911  15.467   9.062  0.00  0.00     0.417 P 
HETATM   18  O   UNK N   1      20.687  16.811   9.003  0.00  0.00    -0.624 OA
HETATM   19  O   UNK N   1      19.937  14.263   7.807  0.00  0.00    -0.624 OA
BRANCH  17  20
HETATM   20  O   UNK N   1      21.584  14.864   9.138  0.00  0.00    -0.188 OA
BRANCH  20  21
HETATM   21  P   UNK N   1      21.733  13.147   9.573  0.00  0.00     0.402 P 
HETATM   22  O   UNK N   1      22.931  13.063  10.562  0.00  0.00    -0.631 OA
BRANCH  21  23
HETATM   23  O   UNK N   1      20.339  12.620  10.465  0.00  0.00    -0.307 OA
HETATM   24  H   UNK N   1      19.648  13.086  10.963  0.00  0.00     0.222 HD
ENDBRANCH  21  23
BRANCH  21  25
HETATM   25  O   UNK N   1      22.028  12.090   8.203  0.00  0.00    -0.294 OA
BRANCH  25  26
HETATM   26  C   UNK N   1      22.943  12.717   7.355  0.00  0.00     0.215 C 
BRANCH  26  27
HETATM   27  C   UNK N   1      22.487  12.614   5.905  0.00  0.00     0.180 C 
HETATM   28  C   UNK N   1      21.332  11.654   5.685  0.00  0.00     0.182 C 
HETATM   29  C   UNK N   1      21.371  11.575   4.179  0.00  0.00     0.198 C 
HETATM   30  C   UNK N   1      22.900  11.542   3.957  0.00  0.00     0.259 C 
HETATM   31  O   UNK N   1      23.521  12.093   5.116  0.00  0.00    -0.353 OA
BRANCH  28  32
HETATM   32  O   UNK N   1      20.114  12.130   6.177  0.00  0.00    -0.390 OA
HETATM   33  H   UNK N   1      19.187  12.111   5.892  0.00  0.00     0.210 HD
ENDBRANCH  28  32
BRANCH  29  34
HETATM   34  O   UNK N   1      20.823  12.749   3.642  0.00  0.00    -0.388 OA
HETATM   35  H   UNK N   1      20.262  13.258   3.037  0.00  0.00     0.210 HD
ENDBRANCH  29  34
BRANCH  30  36
HETATM   36  N   UNK N   1      23.313  12.304   2.767  0.00  0.00    -0.336 N 
HETATM   37  C   UNK N   1      22.614  12.230   1.597  0.00  0.00     0.093 A 
HETATM   38  C   UNK N   1      23.027  12.974   0.483  0.00  0.00     0.018 A 
HETATM   39  C   UNK N   1      24.154  13.797   0.581  0.00  0.00     0.018 A 
HETATM   40  C   UNK N   1      24.855  13.869   1.790  0.00  0.00     0.030 A 
HETATM   41  C   UNK N   1      24.412  13.107   2.863  0.00  0.00     0.108 A 
BRANCH  40  42
HETATM   42  C   UNK N   1      26.042  14.729   1.966  0.00  0.00     0.145 C 
HETATM   43  N   UNK N   1      27.179  14.220   2.268  0.00  0.00    -0.379 N 
HETATM   44  H   UNK N   1      27.338  13.269   2.466  0.00  0.00     0.158 HD
ATOM     45  HN  UNK N   1      27.982  14.849   2.308  1.00  0.00     0.158 HD
BRANCH  42  46
HETATM   46  O   UNK N   1      25.937  16.064   1.802  0.00  0.00    -0.346 OA
HETATM   47  H   UNK N   1      25.776  16.692   2.478  0.00  0.00     0.219 HD
ENDBRANCH  42  46
ENDBRANCH  40  42
ENDBRANCH  30  36
ENDBRANCH  26  27
ENDBRANCH  25  26
ENDBRANCH  21  25
ENDBRANCH  20  21
ENDBRANCH  17  20
ENDBRANCH  16  17
ENDBRANCH  15  16
ENDBRANCH  10  15
BRANCH  12  48
HETATM   48  N   UNK N   1      24.296  16.977   4.799  0.00  0.00    -0.281 N 
HETATM   49  C   UNK N   1      24.574  18.175   4.245  0.00  0.00     0.143 A 
HETATM   50  C   UNK N   1      25.911  18.380   4.268  0.00  0.00     0.123 A 
HETATM   51  N   UNK N   1      23.717  19.091   3.734  0.00  0.00    -0.336 N 
HETATM   52  C   UNK N   1      26.445  19.563   3.782  0.00  0.00     0.131 A 
HETATM   53  N   UNK N   1      26.533  17.324   4.815  0.00  0.00    -0.330 N 
HETATM   54  N   UNK N   1      25.585  20.491   3.268  0.00  0.00    -0.337 N 
HETATM   55  C   UNK N   1      24.232  20.257   3.236  0.00  0.00     0.183 A 
ATOM     56  HN  UNK N   1      25.953  21.369   2.902  1.00  0.00     0.168 HD
HETATM   57  C   UNK N   1      25.520  16.472   5.125  0.00  0.00     0.160 A 
ATOM     58  HN  UNK N   1      27.533  17.191   4.963  1.00  0.00     0.168 HD
HETATM   59 Br   UNK N   1      25.819  14.780   5.971  0.00  0.00    -0.010 Br
ATOM     60  HN  UNK N   1      22.712  18.915   3.721  1.00  0.00     0.168 HD
BRANCH  52  61
HETATM   61  N   UNK N   1      27.832  19.813   3.826  0.00  0.00    -0.383 N 
HETATM   62  H   UNK N   1      28.260  20.071   4.673  0.00  0.00     0.157 HD
HETATM   63  H   UNK N   1      28.371  19.730   3.007  0.00  0.00     0.157 HD
ENDBRANCH  52  61
ENDBRANCH  12  48
ENDBRANCH   7   8
ENDBRANCH   3   7
TORSDOF 20
ENDMDL
MODEL 2
REMARK VINA RESULT:      -6.8     11.664     14.692
REMARK  20 active torsions:
REMARK  status: ('A' for Active; 'I' for Inactive)
REMARK    1  A    between atoms: C_9  and  C_5 
REMARK    2  A    between atoms: O_45  and  C_5 
REMARK    3  A    between atoms: C_10  and  C_6 
REMARK    4  A    between atoms: O_46  and  C_6 
REMARK    5  A    between atoms: C_17  and  C_8 
REMARK    6  A    between atoms: C_12  and  O_34 
REMARK    7  A    between atoms: C_13  and  O_35 
REMARK    8  A    between atoms: C_14  and  O_36 
REMARK    9  A    between atoms: C_15  and  O_49 
REMARK   10  A    between atoms: N_23  and  C_16 
REMARK   11  A    between atoms: O_37  and  C_17 
REMARK   12  A    between atoms: C_19  and  N_32 
REMARK   13  A    between atoms: C_20  and  N_33 
REMARK   14  A    between atoms: P_51  and  O_39 
REMARK   15  A    between atoms: P_52  and  O_41 
REMARK   16  A    between atoms: P_52  and  O_45 
REMARK   17  A    between atoms: P_53  and  O_46 
REMARK   18  A    between atoms: P_51  and  O_49 
REMARK   19  A    between atoms: P_52  and  O_50 
REMARK   20  A    between atoms: P_53  and  O_50 
ROOT
HETATM    1  O   UNK N   1      38.904   8.575  13.519  0.00  0.00    -0.632 OA
HETATM    2  O   UNK N   1      39.085  10.951  14.671  0.00  0.00    -0.307 OA
HETATM    3  P   UNK N   1      38.014   9.728  14.057  0.00  0.00     0.391 P 
HETATM    4  H   UNK N   1      39.779  11.585  14.913  0.00  0.00     0.222 HD
ENDROOT
BRANCH   3   5
HETATM    5  O   UNK N   1      37.060   9.057  15.342  0.00  0.00    -0.307 OA
HETATM    6  H   UNK N   1      36.099   8.925  15.363  0.00  0.00     0.222 HD
ENDBRANCH   3   5
BRANCH   3   7
HETATM    7  O   UNK N   1      37.010  10.273  12.720  0.00  0.00    -0.284 OA
BRANCH   7   8
HETATM    8  C   UNK N   1      37.132  11.674  12.581  0.00  0.00     0.214 C 
HETATM    9  C   UNK N   1      37.329  12.174  11.166  0.00  0.00     0.183 C 
HETATM   10  C   UNK N   1      37.026  13.638  11.449  0.00  0.00     0.180 C 
HETATM   11  O   UNK N   1      35.838  13.648  12.200  0.00  0.00    -0.353 OA
HETATM   12  C   UNK N   1      35.825  12.428  12.935  0.00  0.00     0.264 C 
BRANCH   9  13
HETATM   13  O   UNK N   1      36.367  11.609  10.317  0.00  0.00    -0.390 OA
HETATM   14  H   UNK N   1      36.246  11.258   9.421  0.00  0.00     0.210 HD
ENDBRANCH   9  13
BRANCH  10  15
HETATM   15  C   UNK N   1      36.986  14.574  10.246  0.00  0.00     0.216 C 
BRANCH  15  16
HETATM   16  O   UNK N   1      36.599  15.877  10.565  0.00  0.00    -0.287 OA
BRANCH  16  17
HETATM   17  P   UNK N   1      34.995  16.025   9.892  0.00  0.00     0.417 P 
HETATM   18  O   UNK N   1      35.797  15.166   8.877  0.00  0.00    -0.624 OA
HETATM   19  O   UNK N   1      35.540  17.547  10.534  0.00  0.00    -0.624 OA
BRANCH  17  20
HETATM   20  O   UNK N   1      34.936  17.091   8.467  0.00  0.00    -0.188 OA
BRANCH  20  21
HETATM   21  P   UNK N   1      33.783  16.587   7.212  0.00  0.00     0.402 P 
HETATM   22  O   UNK N   1      34.600  16.512   5.891  0.00  0.00    -0.631 OA
BRANCH  21  23
HETATM   23  O   UNK N   1      33.217  14.973   7.517  0.00  0.00    -0.307 OA
HETATM   24  H   UNK N   1      33.040  14.468   8.325  0.00  0.00     0.222 HD
ENDBRANCH  21  23
BRANCH  21  25
HETATM   25  O   UNK N   1      32.432  17.689   7.006  0.00  0.00    -0.294 OA
BRANCH  25  26
HETATM   26  C   UNK N   1      31.805  17.849   8.244  0.00  0.00     0.215 C 
BRANCH  26  27
HETATM   27  C   UNK N   1      30.307  18.065   8.060  0.00  0.00     0.180 C 
HETATM   28  C   UNK N   1      29.459  17.529   9.199  0.00  0.00     0.182 C 
HETATM   29  C   UNK N   1      28.101  17.626   8.550  0.00  0.00     0.198 C 
HETATM   30  C   UNK N   1      28.459  17.166   7.119  0.00  0.00     0.259 C 
HETATM   31  O   UNK N   1      29.859  17.359   6.936  0.00  0.00    -0.353 OA
BRANCH  28  32
HETATM   32  O   UNK N   1      29.562  18.282  10.370  0.00  0.00    -0.390 OA
HETATM   33  H   UNK N   1      29.325  19.181  10.650  0.00  0.00     0.210 HD
ENDBRANCH  28  32
BRANCH  29  34
HETATM   34  O   UNK N   1      27.689  18.967   8.546  0.00  0.00    -0.388 OA
HETATM   35  H   UNK N   1      27.512  19.831   8.948  0.00  0.00     0.210 HD
ENDBRANCH  29  34
BRANCH  30  36
HETATM   36  N   UNK N   1      27.718  17.910   6.086  0.00  0.00    -0.336 N 
HETATM   37  C   UNK N   1      28.334  18.841   5.301  0.00  0.00     0.093 A 
HETATM   38  C   UNK N   1      27.604  19.526   4.321  0.00  0.00     0.018 A 
HETATM   39  C   UNK N   1      26.244  19.245   4.149  0.00  0.00     0.018 A 
HETATM   40  C   UNK N   1      25.630  18.282   4.956  0.00  0.00     0.030 A 
HETATM   41  C   UNK N   1      26.392  17.635   5.918  0.00  0.00     0.108 A 
BRANCH  40  42
HETATM   42  C   UNK N   1      24.203  17.925   4.815  0.00  0.00     0.145 C 
HETATM   43  N   UNK N   1      23.513  18.367   3.830  0.00  0.00    -0.379 N 
HETATM   44  H   UNK N   1      23.838  19.004   3.153  0.00  0.00     0.158 HD
ATOM     45  HN  UNK N   1      22.553  18.033   3.740  1.00  0.00     0.158 HD
BRANCH  42  46
HETATM   46  O   UNK N   1      23.617  17.122   5.727  0.00  0.00    -0.346 OA
HETATM   47  H   UNK N   1      23.597  17.261   6.653  0.00  0.00     0.219 HD
ENDBRANCH  42  46
ENDBRANCH  40  42
ENDBRANCH  30  36
ENDBRANCH  26  27
ENDBRANCH  25  26
ENDBRANCH  21  25
ENDBRANCH  20  21
ENDBRANCH  17  20
ENDBRANCH  16  17
ENDBRANCH  15  16
ENDBRANCH  10  15
BRANCH  12  48
HETATM   48  N   UNK N   1      35.646  12.735  14.368  0.00  0.00    -0.281 N 
HETATM   49  C   UNK N   1      36.180  13.700  15.145  0.00  0.00     0.143 A 
HETATM   50  C   UNK N   1      35.648  13.621  16.386  0.00  0.00     0.123 A 
HETATM   51  N   UNK N   1      37.097  14.641  14.816  0.00  0.00    -0.336 N 
HETATM   52  C   UNK N   1      36.016  14.533  17.363  0.00  0.00     0.131 A 
HETATM   53  N   UNK N   1      34.777  12.603  16.453  0.00  0.00    -0.330 N 
HETATM   54  N   UNK N   1      36.938  15.486  17.036  0.00  0.00    -0.337 N 
HETATM   55  C   UNK N   1      37.482  15.538  15.776  0.00  0.00     0.183 A 
ATOM     56  HN  UNK N   1      37.227  16.167  17.738  1.00  0.00     0.168 HD
HETATM   57  C   UNK N   1      34.799  12.069  15.203  0.00  0.00     0.160 A 
ATOM     58  HN  UNK N   1      34.225  12.300  17.256  1.00  0.00     0.168 HD
HETATM   59 Br   UNK N   1      33.710  10.577  14.700  0.00  0.00    -0.010 Br
ATOM     60  HN  UNK N   1      37.491  14.680  13.876  1.00  0.00     0.168 HD
BRANCH  52  61
HETATM   61  N   UNK N   1      35.450  14.492  18.653  0.00  0.00    -0.383 N 
HETATM   62  H   UNK N   1      34.532  14.815  18.800  0.00  0.00     0.157 HD
HETATM   63  H   UNK N   1      35.974  14.139  19.408  0.00  0.00     0.157 HD
ENDBRANCH  52  61
ENDBRANCH  12  48
ENDBRANCH   7   8
ENDBRANCH   3   7
TORSDOF 20
ENDMDL
MODEL 3
REMARK VINA RESULT:      -6.7      5.223      8.659
REMARK  20 active torsions:
REMARK  status: ('A' for Active; 'I' for Inactive)
REMARK    1  A    between atoms: C_9  and  C_5 
REMARK    2  A    between atoms: O_45  and  C_5 
REMARK    3  A    between atoms: C_10  and  C_6 
REMARK    4  A    between atoms: O_46  and  C_6 
REMARK    5  A    between atoms: C_17  and  C_8 
REMARK    6  A    between atoms: C_12  and  O_34 
REMARK    7  A    between atoms: C_13  and  O_35 
REMARK    8  A    between atoms: C_14  and  O_36 
REMARK    9  A    between atoms: C_15  and  O_49 
REMARK   10  A    between atoms: N_23  and  C_16 
REMARK   11  A    between atoms: O_37  and  C_17 
REMARK   12  A    between atoms: C_19  and  N_32 
REMARK   13  A    between atoms: C_20  and  N_33 
REMARK   14  A    between atoms: P_51  and  O_39 
REMARK   15  A    between atoms: P_52  and  O_41 
REMARK   16  A    between atoms: P_52  and  O_45 
REMARK   17  A    between atoms: P_53  and  O_46 
REMARK   18  A    between atoms: P_51  and  O_49 
REMARK   19  A    between atoms: P_52  and  O_50 
REMARK   20  A    between atoms: P_53  and  O_50 
ROOT
HETATM    1  O   UNK N   1      19.892  14.804   6.989  0.00  0.00    -0.632 OA
HETATM    2  O   UNK N   1      21.267  14.973   9.243  0.00  0.00    -0.307 OA
HETATM    3  P   UNK N   1      21.264  15.286   7.534  0.00  0.00     0.391 P 
HETATM    4  H   UNK N   1      21.178  14.687  10.166  0.00  0.00     0.222 HD
ENDROOT
BRANCH   3   5
HETATM    5  O   UNK N   1      21.344  16.992   7.230  0.00  0.00    -0.307 OA
HETATM    6  H   UNK N   1      21.819  17.448   6.516  0.00  0.00     0.222 HD
ENDBRANCH   3   5
BRANCH   3   7
HETATM    7  O   UNK N   1      22.508  14.411   6.652  0.00  0.00    -0.284 OA
BRANCH   7   8
HETATM    8  C   UNK N   1      23.194  15.301   5.796  0.00  0.00     0.214 C 
HETATM    9  C   UNK N   1      24.690  15.093   5.703  0.00  0.00     0.183 C 
HETATM   10  C   UNK N   1      24.913  15.947   4.464  0.00  0.00     0.180 C 
HETATM   11  O   UNK N   1      23.937  15.543   3.536  0.00  0.00    -0.353 OA
HETATM   12  C   UNK N   1      22.820  15.107   4.305  0.00  0.00     0.264 C 
BRANCH   9  13
HETATM   13  O   UNK N   1      24.975  13.745   5.452  0.00  0.00    -0.390 OA
HETATM   14  H   UNK N   1      25.622  13.164   5.021  0.00  0.00     0.210 HD
ENDBRANCH   9  13
BRANCH  10  15
HETATM   15  C   UNK N   1      26.324  15.960   3.886  0.00  0.00     0.216 C 
BRANCH  15  16
HETATM   16  O   UNK N   1      27.300  15.531   4.786  0.00  0.00    -0.287 OA
BRANCH  16  17
HETATM   17  P   UNK N   1      28.560  14.871   3.773  0.00  0.00     0.417 P 
HETATM   18  O   UNK N   1      29.022  14.619   5.234  0.00  0.00    -0.624 OA
HETATM   19  O   UNK N   1      28.021  16.410   3.167  0.00  0.00    -0.624 OA
BRANCH  17  20
HETATM   20  O   UNK N   1      30.052  15.842   3.799  0.00  0.00    -0.188 OA
BRANCH  20  21
HETATM   21  P   UNK N   1      31.538  14.925   3.470  0.00  0.00     0.402 P 
HETATM   22  O   UNK N   1      31.110  13.733   2.567  0.00  0.00    -0.631 OA
BRANCH  21  23
HETATM   23  O   UNK N   1      32.641  15.872   2.519  0.00  0.00    -0.307 OA
HETATM   24  H   UNK N   1      32.645  16.166   1.595  0.00  0.00     0.222 HD
ENDBRANCH  21  23
BRANCH  21  25
HETATM   25  O   UNK N   1      32.330  14.314   4.913  0.00  0.00    -0.294 OA
BRANCH  25  26
HETATM   26  C   UNK N   1      33.324  15.223   5.284  0.00  0.00     0.215 C 
BRANCH  26  27
HETATM   27  C   UNK N   1      32.831  16.122   6.411  0.00  0.00     0.180 C 
HETATM   28  C   UNK N   1      33.824  16.296   7.545  0.00  0.00     0.182 C 
HETATM   29  C   UNK N   1      32.915  16.943   8.561  0.00  0.00     0.198 C 
HETATM   30  C   UNK N   1      31.629  16.118   8.326  0.00  0.00     0.259 C 
HETATM   31  O   UNK N   1      31.708  15.549   7.022  0.00  0.00    -0.353 OA
BRANCH  28  32
HETATM   32  O   UNK N   1      34.920  17.092   7.207  0.00  0.00    -0.390 OA
HETATM   33  H   UNK N   1      35.149  17.703   6.488  0.00  0.00     0.210 HD
ENDBRANCH  28  32
BRANCH  29  34
HETATM   34  O   UNK N   1      32.709  18.284   8.205  0.00  0.00    -0.388 OA
HETATM   35  H   UNK N   1      32.840  19.242   8.282  0.00  0.00     0.210 HD
ENDBRANCH  29  34
BRANCH  30  36
HETATM   36  N   UNK N   1      30.408  16.935   8.435  0.00  0.00    -0.336 N 
HETATM   37  C   UNK N   1      29.898  17.292   9.649  0.00  0.00     0.093 A 
HETATM   38  C   UNK N   1      28.739  18.077   9.721  0.00  0.00     0.018 A 
HETATM   39  C   UNK N   1      28.115  18.496   8.541  0.00  0.00     0.018 A 
HETATM   40  C   UNK N   1      28.655  18.129   7.304  0.00  0.00     0.030 A 
HETATM   41  C   UNK N   1      29.800  17.344   7.285  0.00  0.00     0.108 A 
BRANCH  40  42
HETATM   42  C   UNK N   1      28.056  18.551   6.022  0.00  0.00     0.145 C 
HETATM   43  N   UNK N   1      28.733  18.494   4.934  0.00  0.00    -0.379 N 
HETATM   44  H   UNK N   1      29.683  18.242   4.872  0.00  0.00     0.158 HD
ATOM     45  HN  UNK N   1      28.250  18.728   4.066  1.00  0.00     0.158 HD
BRANCH  42  46
HETATM   46  O   UNK N   1      26.782  18.994   5.987  0.00  0.00    -0.346 OA
HETATM   47  H   UNK N   1      26.028  18.488   5.759  0.00  0.00     0.219 HD
ENDBRANCH  42  46
ENDBRANCH  40  42
ENDBRANCH  30  36
ENDBRANCH  26  27
ENDBRANCH  25  26
ENDBRANCH  21  25
ENDBRANCH  20  21
ENDBRANCH  17  20
ENDBRANCH  16  17
ENDBRANCH  15  16
ENDBRANCH  10  15
BRANCH  12  48
HETATM   48  N   UNK N   1      21.617  15.839   3.859  0.00  0.00    -0.281 N 
HETATM   49  C   UNK N   1      21.406  17.153   3.638  0.00  0.00     0.143 A 
HETATM   50  C   UNK N   1      20.154  17.331   3.160  0.00  0.00     0.123 A 
HETATM   51  N   UNK N   1      22.256  18.191   3.827  0.00  0.00    -0.336 N 
HETATM   52  C   UNK N   1      19.708  18.599   2.822  0.00  0.00     0.131 A 
HETATM   53  N   UNK N   1      19.518  16.152   3.075  0.00  0.00    -0.330 N 
HETATM   54  N   UNK N   1      20.562  19.649   3.008  0.00  0.00    -0.337 N 
HETATM   55  C   UNK N   1      21.824  19.451   3.513  0.00  0.00     0.183 A 
ATOM     56  HN  UNK N   1      20.258  20.592   2.769  1.00  0.00     0.168 HD
HETATM   57  C   UNK N   1      20.435  15.252   3.518  0.00  0.00     0.160 A 
ATOM     58  HN  UNK N   1      18.567  15.973   2.753  1.00  0.00     0.168 HD
HETATM   59 Br   UNK N   1      20.081  13.372   3.593  0.00  0.00    -0.010 Br
ATOM     60  HN  UNK N   1      23.195  18.036   4.194  1.00  0.00     0.168 HD
BRANCH  52  61
HETATM   61  N   UNK N   1      18.419  18.805   2.290  0.00  0.00    -0.383 N 
HETATM   62  H   UNK N   1      17.732  19.264   2.825  0.00  0.00     0.157 HD
HETATM   63  H   UNK N   1      18.207  18.489   1.382  0.00  0.00     0.157 HD
ENDBRANCH  52  61
ENDBRANCH  12  48
ENDBRANCH   7   8
ENDBRANCH   3   7
TORSDOF 20
ENDMDL
MODEL 4
REMARK VINA RESULT:      -6.7      4.870      8.147
REMARK  20 active torsions:
REMARK  status: ('A' for Active; 'I' for Inactive)
REMARK    1  A    between atoms: C_9  and  C_5 
REMARK    2  A    between atoms: O_45  and  C_5 
REMARK    3  A    between atoms: C_10  and  C_6 
REMARK    4  A    between atoms: O_46  and  C_6 
REMARK    5  A    between atoms: C_17  and  C_8 
REMARK    6  A    between atoms: C_12  and  O_34 
REMARK    7  A    between atoms: C_13  and  O_35 
REMARK    8  A    between atoms: C_14  and  O_36 
REMARK    9  A    between atoms: C_15  and  O_49 
REMARK   10  A    between atoms: N_23  and  C_16 
REMARK   11  A    between atoms: O_37  and  C_17 
REMARK   12  A    between atoms: C_19  and  N_32 
REMARK   13  A    between atoms: C_20  and  N_33 
REMARK   14  A    between atoms: P_51  and  O_39 
REMARK   15  A    between atoms: P_52  and  O_41 
REMARK   16  A    between atoms: P_52  and  O_45 
REMARK   17  A    between atoms: P_53  and  O_46 
REMARK   18  A    between atoms: P_51  and  O_49 
REMARK   19  A    between atoms: P_52  and  O_50 
REMARK   20  A    between atoms: P_53  and  O_50 
ROOT
HETATM    1  O   UNK N   1      34.548  16.197   7.177  0.00  0.00    -0.632 OA
HETATM    2  O   UNK N   1      33.752  17.929   5.342  0.00  0.00    -0.307 OA
HETATM    3  P   UNK N   1      33.645  17.448   7.009  0.00  0.00     0.391 P 
HETATM    4  H   UNK N   1      33.836  18.054   4.383  0.00  0.00     0.222 HD
ENDROOT
BRANCH   3   5
HETATM    5  O   UNK N   1      34.309  18.677   8.037  0.00  0.00    -0.307 OA
HETATM    6  H   UNK N   1      35.226  18.994   8.072  0.00  0.00     0.222 HD
ENDBRANCH   3   5
BRANCH   3   7
HETATM    7  O   UNK N   1      32.024  16.987   7.509  0.00  0.00    -0.284 OA
BRANCH   7   8
HETATM    8  C   UNK N   1      31.212  16.806   6.368  0.00  0.00     0.214 C 
HETATM    9  C   UNK N   1      31.479  15.546   5.572  0.00  0.00     0.183 C 
HETATM   10  C   UNK N   1      30.202  15.583   4.744  0.00  0.00     0.180 C 
HETATM   11  O   UNK N   1      29.157  15.810   5.657  0.00  0.00    -0.353 OA
HETATM   12  C   UNK N   1      29.722  16.569   6.723  0.00  0.00     0.264 C 
BRANCH   9  13
HETATM   13  O   UNK N   1      31.502  14.434   6.423  0.00  0.00    -0.390 OA
HETATM   14  H   UNK N   1      31.529  13.464   6.418  0.00  0.00     0.210 HD
ENDBRANCH   9  13
BRANCH  10  15
HETATM   15  C   UNK N   1      29.948  14.395   3.822  0.00  0.00     0.216 C 
BRANCH  15  16
HETATM   16  O   UNK N   1      29.081  14.682   2.768  0.00  0.00    -0.287 OA
BRANCH  16  17
HETATM   17  P   UNK N   1      27.567  13.954   3.245  0.00  0.00     0.417 P 
HETATM   18  O   UNK N   1      28.201  12.971   2.223  0.00  0.00    -0.624 OA
HETATM   19  O   UNK N   1      27.373  15.661   2.974  0.00  0.00    -0.624 OA
BRANCH  17  20
HETATM   20  O   UNK N   1      26.337  14.005   1.960  0.00  0.00    -0.188 OA
BRANCH  20  21
HETATM   21  P   UNK N   1      25.039  12.801   2.128  0.00  0.00     0.402 P 
HETATM   22  O   UNK N   1      24.529  12.524   0.686  0.00  0.00    -0.631 OA
BRANCH  21  23
HETATM   23  O   UNK N   1      25.678  11.294   2.707  0.00  0.00    -0.307 OA
HETATM   24  H   UNK N   1      26.108  11.023   3.533  0.00  0.00     0.222 HD
ENDBRANCH  21  23
BRANCH  21  25
HETATM   25  O   UNK N   1      23.702  13.335   3.132  0.00  0.00    -0.294 OA
BRANCH  25  26
HETATM   26  C   UNK N   1      24.228  13.924   4.285  0.00  0.00     0.215 C 
BRANCH  26  27
HETATM   27  C   UNK N   1      23.887  15.409   4.329  0.00  0.00     0.180 C 
HETATM   28  C   UNK N   1      24.549  16.163   5.466  0.00  0.00     0.182 C 
HETATM   29  C   UNK N   1      23.767  17.451   5.386  0.00  0.00     0.198 C 
HETATM   30  C   UNK N   1      22.357  16.885   5.100  0.00  0.00     0.259 C 
HETATM   31  O   UNK N   1      22.514  15.576   4.558  0.00  0.00    -0.353 OA
BRANCH  28  32
HETATM   32  O   UNK N   1      25.922  16.345   5.287  0.00  0.00    -0.390 OA
HETATM   33  H   UNK N   1      26.555  16.240   4.559  0.00  0.00     0.210 HD
ENDBRANCH  28  32
BRANCH  29  34
HETATM   34  O   UNK N   1      24.226  18.200   4.292  0.00  0.00    -0.388 OA
HETATM   35  H   UNK N   1      24.162  18.585   3.404  0.00  0.00     0.210 HD
ENDBRANCH  29  34
BRANCH  30  36
HETATM   36  N   UNK N   1      21.595  17.721   4.156  0.00  0.00    -0.336 N 
HETATM   37  C   UNK N   1      21.338  19.035   4.419  0.00  0.00     0.093 A 
HETATM   38  C   UNK N   1      20.618  19.807   3.497  0.00  0.00     0.018 A 
HETATM   39  C   UNK N   1      20.170  19.224   2.307  0.00  0.00     0.018 A 
HETATM   40  C   UNK N   1      20.448  17.878   2.050  0.00  0.00     0.030 A 
HETATM   41  C   UNK N   1      21.159  17.152   2.996  0.00  0.00     0.108 A 
BRANCH  40  42
HETATM   42  C   UNK N   1      20.020  17.204   0.807  0.00  0.00     0.145 C 
HETATM   43  N   UNK N   1      19.423  16.071   0.850  0.00  0.00    -0.379 N 
HETATM   44  H   UNK N   1      19.268  15.545   1.668  0.00  0.00     0.158 HD
ATOM     45  HN  UNK N   1      19.084  15.682  -0.031  1.00  0.00     0.158 HD
BRANCH  42  46
HETATM   46  O   UNK N   1      20.249  17.787  -0.388  0.00  0.00    -0.346 OA
HETATM   47  H   UNK N   1      20.986  17.632  -0.945  0.00  0.00     0.219 HD
ENDBRANCH  42  46
ENDBRANCH  40  42
ENDBRANCH  30  36
ENDBRANCH  26  27
ENDBRANCH  25  26
ENDBRANCH  21  25
ENDBRANCH  20  21
ENDBRANCH  17  20
ENDBRANCH  16  17
ENDBRANCH  15  16
ENDBRANCH  10  15
BRANCH  12  48
HETATM   48  N   UNK N   1      28.920  17.793   6.915  0.00  0.00    -0.281 N 
HETATM   49  C   UNK N   1      28.254  18.569   6.035  0.00  0.00     0.143 A 
HETATM   50  C   UNK N   1      27.599  19.545   6.704  0.00  0.00     0.123 A 
HETATM   51  N   UNK N   1      28.188  18.455   4.686  0.00  0.00    -0.336 N 
HETATM   52  C   UNK N   1      26.811  20.455   6.017  0.00  0.00     0.131 A 
HETATM   53  N   UNK N   1      27.834  19.442   8.021  0.00  0.00    -0.330 N 
HETATM   54  N   UNK N   1      26.739  20.343   4.658  0.00  0.00    -0.337 N 
HETATM   55  C   UNK N   1      27.427  19.357   3.994  0.00  0.00     0.183 A 
ATOM     56  HN  UNK N   1      26.167  21.002   4.129  1.00  0.00     0.168 HD
HETATM   57  C   UNK N   1      28.654  18.364   8.125  0.00  0.00     0.160 A 
ATOM     58  HN  UNK N   1      27.479  20.035   8.771  1.00  0.00     0.168 HD
HETATM   59 Br   UNK N   1      29.305  17.721   9.808  0.00  0.00    -0.010 Br
ATOM     60  HN  UNK N   1      28.695  17.715   4.200  1.00  0.00     0.168 HD
BRANCH  52  61
HETATM   61  N   UNK N   1      26.092  21.460   6.696  0.00  0.00    -0.383 N 
HETATM   62  H   UNK N   1      25.951  22.337   6.273  0.00  0.00     0.157 HD
HETATM   63  H   UNK N   1      25.731  21.283   7.595  0.00  0.00     0.157 HD
ENDBRANCH  52  61
ENDBRANCH  12  48
ENDBRANCH   7   8
ENDBRANCH   3   7
TORSDOF 20
ENDMDL
MODEL 5
REMARK VINA RESULT:      -6.5      4.911      8.580
REMARK  20 active torsions:
REMARK  status: ('A' for Active; 'I' for Inactive)
REMARK    1  A    between atoms: C_9  and  C_5 
REMARK    2  A    between atoms: O_45  and  C_5 
REMARK    3  A    between atoms: C_10  and  C_6 
REMARK    4  A    between atoms: O_46  and  C_6 
REMARK    5  A    between atoms: C_17  and  C_8 
REMARK    6  A    between atoms: C_12  and  O_34 
REMARK    7  A    between atoms: C_13  and  O_35 
REMARK    8  A    between atoms: C_14  and  O_36 
REMARK    9  A    between atoms: C_15  and  O_49 
REMARK   10  A    between atoms: N_23  and  C_16 
REMARK   11  A    between atoms: O_37  and  C_17 
REMARK   12  A    between atoms: C_19  and  N_32 
REMARK   13  A    between atoms: C_20  and  N_33 
REMARK   14  A    between atoms: P_51  and  O_39 
REMARK   15  A    between atoms: P_52  and  O_41 
REMARK   16  A    between atoms: P_52  and  O_45 
REMARK   17  A    between atoms: P_53  and  O_46 
REMARK   18  A    between atoms: P_51  and  O_49 
REMARK   19  A    between atoms: P_52  and  O_50 
REMARK   20  A    between atoms: P_53  and  O_50 
ROOT
HETATM    1  O   UNK N   1      17.833  13.800   4.927  0.00  0.00    -0.632 OA
HETATM    2  O   UNK N   1      18.896  14.483   2.601  0.00  0.00    -0.307 OA
HETATM    3  P   UNK N   1      19.208  14.078   4.263  0.00  0.00     0.391 P 
HETATM    4  H   UNK N   1      18.593  14.760   1.723  0.00  0.00     0.222 HD
ENDROOT
BRANCH   3   5
HETATM    5  O   UNK N   1      20.114  12.602   4.367  0.00  0.00    -0.307 OA
HETATM    6  H   UNK N   1      21.048  12.460   4.143  0.00  0.00     0.222 HD
ENDBRANCH   3   5
BRANCH   3   7
HETATM    7  O   UNK N   1      19.971  15.374   5.175  0.00  0.00    -0.284 OA
BRANCH   7   8
HETATM    8  C   UNK N   1      21.305  15.019   5.472  0.00  0.00     0.214 C 
HETATM    9  C   UNK N   1      22.358  15.619   4.565  0.00  0.00     0.183 C 
HETATM   10  C   UNK N   1      23.556  15.304   5.448  0.00  0.00     0.180 C 
HETATM   11  O   UNK N   1      23.204  15.727   6.741  0.00  0.00    -0.353 OA
HETATM   12  C   UNK N   1      21.789  15.588   6.830  0.00  0.00     0.264 C 
BRANCH   9  13
HETATM   13  O   UNK N   1      22.161  17.001   4.446  0.00  0.00    -0.390 OA
HETATM   14  H   UNK N   1      22.083  17.712   3.790  0.00  0.00     0.210 HD
ENDBRANCH   9  13
BRANCH  10  15
HETATM   15  C   UNK N   1      24.907  15.841   4.986  0.00  0.00     0.216 C 
BRANCH  15  16
HETATM   16  O   UNK N   1      25.543  15.023   4.052  0.00  0.00    -0.287 OA
BRANCH  16  17
HETATM   17  P   UNK N   1      26.520  13.945   5.018  0.00  0.00     0.417 P 
HETATM   18  O   UNK N   1      27.409  15.190   4.751  0.00  0.00    -0.624 OA
HETATM   19  O   UNK N   1      25.667  13.066   3.783  0.00  0.00    -0.624 OA
BRANCH  17  20
HETATM   20  O   UNK N   1      27.842  13.191   4.096  0.00  0.00    -0.188 OA
BRANCH  20  21
HETATM   21  P   UNK N   1      28.116  13.893   2.486  0.00  0.00     0.402 P 
HETATM   22  O   UNK N   1      28.289  12.685   1.521  0.00  0.00    -0.631 OA
BRANCH  21  23
HETATM   23  O   UNK N   1      26.702  14.741   1.941  0.00  0.00    -0.307 OA
HETATM   24  H   UNK N   1      25.840  14.455   1.600  0.00  0.00     0.222 HD
ENDBRANCH  21  23
BRANCH  21  25
HETATM   25  O   UNK N   1      29.533  14.925   2.394  0.00  0.00    -0.294 OA
BRANCH  25  26
HETATM   26  C   UNK N   1      30.542  14.354   3.171  0.00  0.00     0.215 C 
BRANCH  26  27
HETATM   27  C   UNK N   1      31.197  15.408   4.055  0.00  0.00     0.180 C 
HETATM   28  C   UNK N   1      32.676  15.615   3.783  0.00  0.00     0.182 C 
HETATM   29  C   UNK N   1      33.028  16.444   4.994  0.00  0.00     0.198 C 
HETATM   30  C   UNK N   1      32.187  15.714   6.066  0.00  0.00     0.259 C 
HETATM   31  O   UNK N   1      31.148  15.004   5.396  0.00  0.00    -0.353 OA
BRANCH  28  32
HETATM   32  O   UNK N   1      32.932  16.271   2.577  0.00  0.00    -0.390 OA
HETATM   33  H   UNK N   1      33.632  16.842   2.224  0.00  0.00     0.210 HD
ENDBRANCH  28  32
BRANCH  29  34
HETATM   34  O   UNK N   1      32.557  17.752   4.808  0.00  0.00    -0.388 OA
HETATM   35  H   UNK N   1      32.275  18.515   4.281  0.00  0.00     0.210 HD
ENDBRANCH  29  34
BRANCH  30  36
HETATM   36  N   UNK N   1      31.597  16.641   7.047  0.00  0.00    -0.336 N 
HETATM   37  C   UNK N   1      32.375  17.493   7.776  0.00  0.00     0.093 A 
HETATM   38  C   UNK N   1      31.784  18.370   8.696  0.00  0.00     0.018 A 
HETATM   39  C   UNK N   1      30.395  18.370   8.856  0.00  0.00     0.018 A 
HETATM   40  C   UNK N   1      29.611  17.497   8.095  0.00  0.00     0.030 A 
HETATM   41  C   UNK N   1      30.242  16.642   7.202  0.00  0.00     0.108 A 
BRANCH  40  42
HETATM   42  C   UNK N   1      28.138  17.457   8.202  0.00  0.00     0.145 C 
HETATM   43  N   UNK N   1      27.434  16.859   7.314  0.00  0.00    -0.379 N 
HETATM   44  H   UNK N   1      27.789  16.454   6.490  0.00  0.00     0.158 HD
ATOM     45  HN  UNK N   1      26.428  16.798   7.472  1.00  0.00     0.158 HD
BRANCH  42  46
HETATM   46  O   UNK N   1      27.523  18.049   9.248  0.00  0.00    -0.346 OA
HETATM   47  H   UNK N   1      26.600  18.174   9.346  0.00  0.00     0.219 HD
ENDBRANCH  42  46
ENDBRANCH  40  42
ENDBRANCH  30  36
ENDBRANCH  26  27
ENDBRANCH  25  26
ENDBRANCH  21  25
ENDBRANCH  20  21
ENDBRANCH  17  20
ENDBRANCH  16  17
ENDBRANCH  15  16
ENDBRANCH  10  15
BRANCH  12  48
HETATM   48  N   UNK N   1      21.463  14.762   8.009  0.00  0.00    -0.281 N 
HETATM   49  C   UNK N   1      22.051  13.658   8.513  0.00  0.00     0.143 A 
HETATM   50  C   UNK N   1      21.431  13.304   9.662  0.00  0.00     0.123 A 
HETATM   51  N   UNK N   1      23.102  12.959   8.021  0.00  0.00    -0.336 N 
HETATM   52  C   UNK N   1      21.878  12.213  10.390  0.00  0.00     0.131 A 
HETATM   53  N   UNK N   1      20.422  14.150   9.923  0.00  0.00    -0.330 N 
HETATM   54  N   UNK N   1      22.939  11.506   9.900  0.00  0.00    -0.337 N 
HETATM   55  C   UNK N   1      23.544  11.869   8.721  0.00  0.00     0.183 A 
ATOM     56  HN  UNK N   1      23.286  10.698  10.415  1.00  0.00     0.168 HD
HETATM   57  C   UNK N   1      20.457  15.031   8.890  0.00  0.00     0.160 A 
ATOM     58  HN  UNK N   1      19.778  14.134  10.714  1.00  0.00     0.168 HD
HETATM   59 Br   UNK N   1      19.239  16.502   8.748  0.00  0.00    -0.010 Br
ATOM     60  HN  UNK N   1      23.553  13.239   7.149  1.00  0.00     0.168 HD
BRANCH  52  61
HETATM   61  N   UNK N   1      21.269  11.845  11.607  0.00  0.00    -0.383 N 
HETATM   62  H   UNK N   1      20.982  10.916  11.755  0.00  0.00     0.157 HD
HETATM   63  H   UNK N   1      21.132  12.521  12.310  0.00  0.00     0.157 HD
ENDBRANCH  52  61
ENDBRANCH  12  48
ENDBRANCH   7   8
ENDBRANCH   3   7
TORSDOF 20
ENDMDL
MODEL 6
REMARK VINA RESULT:      -6.5     11.285     14.079
REMARK  20 active torsions:
REMARK  status: ('A' for Active; 'I' for Inactive)
REMARK    1  A    between atoms: C_9  and  C_5 
REMARK    2  A    between atoms: O_45  and  C_5 
REMARK    3  A    between atoms: C_10  and  C_6 
REMARK    4  A    between atoms: O_46  and  C_6 
REMARK    5  A    between atoms: C_17  and  C_8 
REMARK    6  A    between atoms: C_12  and  O_34 
REMARK    7  A    between atoms: C_13  and  O_35 
REMARK    8  A    between atoms: C_14  and  O_36 
REMARK    9  A    between atoms: C_15  and  O_49 
REMARK   10  A    between atoms: N_23  and  C_16 
REMARK   11  A    between atoms: O_37  and  C_17 
REMARK   12  A    between atoms: C_19  and  N_32 
REMARK   13  A    between atoms: C_20  and  N_33 
REMARK   14  A    between atoms: P_51  and  O_39 
REMARK   15  A    between atoms: P_52  and  O_41 
REMARK   16  A    between atoms: P_52  and  O_45 
REMARK   17  A    between atoms: P_53  and  O_46 
REMARK   18  A    between atoms: P_51  and  O_49 
REMARK   19  A    between atoms: P_52  and  O_50 
REMARK   20  A    between atoms: P_53  and  O_50 
ROOT
HETATM    1  O   UNK N   1      28.972  11.293   3.200  0.00  0.00    -0.632 OA
HETATM    2  O   UNK N   1      31.553  11.442   2.637  0.00  0.00    -0.307 OA
HETATM    3  P   UNK N   1      30.287  11.931   3.723  0.00  0.00     0.391 P 
HETATM    4  H   UNK N   1      32.154  11.164   1.928  0.00  0.00     0.222 HD
ENDROOT
BRANCH   3   5
HETATM    5  O   UNK N   1      30.559  11.274   5.305  0.00  0.00    -0.307 OA
HETATM    6  H   UNK N   1      29.942  11.250   6.054  0.00  0.00     0.222 HD
ENDBRANCH   3   5
BRANCH   3   7
HETATM    7  O   UNK N   1      30.034  13.670   3.777  0.00  0.00    -0.284 OA
BRANCH   7   8
HETATM    8  C   UNK N   1      30.996  14.260   4.627  0.00  0.00     0.214 C 
HETATM    9  C   UNK N   1      32.440  14.009   4.251  0.00  0.00     0.183 C 
HETATM   10  C   UNK N   1      33.046  15.084   5.141  0.00  0.00     0.180 C 
HETATM   11  O   UNK N   1      32.295  16.248   4.907  0.00  0.00    -0.353 OA
HETATM   12  C   UNK N   1      30.984  15.808   4.562  0.00  0.00     0.264 C 
BRANCH   9  13
HETATM   13  O   UNK N   1      32.643  14.296   2.895  0.00  0.00    -0.390 OA
HETATM   14  H   UNK N   1      32.748  15.033   2.273  0.00  0.00     0.210 HD
ENDBRANCH   9  13
BRANCH  10  15
HETATM   15  C   UNK N   1      34.551  15.305   5.021  0.00  0.00     0.216 C 
BRANCH  15  16
HETATM   16  O   UNK N   1      35.089  16.060   6.064  0.00  0.00    -0.287 OA
BRANCH  16  17
HETATM   17  P   UNK N   1      34.694  15.152   7.501  0.00  0.00     0.417 P 
HETATM   18  O   UNK N   1      34.466  16.644   7.872  0.00  0.00    -0.624 OA
HETATM   19  O   UNK N   1      36.142  14.537   6.760  0.00  0.00    -0.624 OA
BRANCH  17  20
HETATM   20  O   UNK N   1      35.903  15.340   8.795  0.00  0.00    -0.188 OA
BRANCH  20  21
HETATM   21  P   UNK N   1      35.274  16.047  10.300  0.00  0.00     0.402 P 
HETATM   22  O   UNK N   1      35.639  17.557  10.244  0.00  0.00    -0.631 OA
BRANCH  21  23
HETATM   23  O   UNK N   1      33.539  15.975  10.329  0.00  0.00    -0.307 OA
HETATM   24  H   UNK N   1      32.854  16.078   9.650  0.00  0.00     0.222 HD
ENDBRANCH  21  23
BRANCH  21  25
HETATM   25  O   UNK N   1      35.948  15.333  11.755  0.00  0.00    -0.294 OA
BRANCH  25  26
HETATM   26  C   UNK N   1      35.213  14.185  12.060  0.00  0.00     0.215 C 
BRANCH  26  27
HETATM   27  C   UNK N   1      35.792  13.490  13.287  0.00  0.00     0.180 C 
HETATM   28  C   UNK N   1      36.629  12.265  12.969  0.00  0.00     0.182 C 
HETATM   29  C   UNK N   1      36.753  11.693  14.360  0.00  0.00     0.198 C 
HETATM   30  C   UNK N   1      35.321  11.956  14.880  0.00  0.00     0.259 C 
HETATM   31  O   UNK N   1      34.754  12.999  14.090  0.00  0.00    -0.353 OA
BRANCH  28  32
HETATM   32  O   UNK N   1      37.864  12.571  12.392  0.00  0.00    -0.390 OA
HETATM   33  H   UNK N   1      38.748  12.812  12.711  0.00  0.00     0.210 HD
ENDBRANCH  28  32
BRANCH  29  34
HETATM   34  O   UNK N   1      37.685  12.448  15.086  0.00  0.00    -0.388 OA
HETATM   35  H   UNK N   1      38.213  13.238  15.281  0.00  0.00     0.210 HD
ENDBRANCH  29  34
BRANCH  30  36
HETATM   36  N   UNK N   1      35.301  12.347  16.300  0.00  0.00    -0.336 N 
HETATM   37  C   UNK N   1      35.278  13.658  16.677  0.00  0.00     0.093 A 
HETATM   38  C   UNK N   1      35.250  13.998  18.036  0.00  0.00     0.018 A 
HETATM   39  C   UNK N   1      35.241  12.986  19.001  0.00  0.00     0.018 A 
HETATM   40  C   UNK N   1      35.258  11.647  18.599  0.00  0.00     0.030 A 
HETATM   41  C   UNK N   1      35.292  11.359  17.242  0.00  0.00     0.108 A 
BRANCH  40  42
HETATM   42  C   UNK N   1      35.233  10.529  19.565  0.00  0.00     0.145 C 
HETATM   43  N   UNK N   1      35.072   9.323  19.165  0.00  0.00    -0.379 N 
HETATM   44  H   UNK N   1      34.891   9.055  18.234  0.00  0.00     0.158 HD
ATOM     45  HN  UNK N   1      35.134   8.582  19.864  1.00  0.00     0.158 HD
BRANCH  42  46
HETATM   46  O   UNK N   1      35.388  10.775  20.883  0.00  0.00    -0.346 OA
HETATM   47  H   UNK N   1      34.701  10.920  21.502  0.00  0.00     0.219 HD
ENDBRANCH  42  46
ENDBRANCH  40  42
ENDBRANCH  30  36
ENDBRANCH  26  27
ENDBRANCH  25  26
ENDBRANCH  21  25
ENDBRANCH  20  21
ENDBRANCH  17  20
ENDBRANCH  16  17
ENDBRANCH  15  16
ENDBRANCH  10  15
BRANCH  12  48
HETATM   48  N   UNK N   1      30.009  16.467   5.453  0.00  0.00    -0.281 N 
HETATM   49  C   UNK N   1      30.143  16.986   6.691  0.00  0.00     0.143 A 
HETATM   50  C   UNK N   1      28.975  17.555   7.067  0.00  0.00     0.123 A 
HETATM   51  N   UNK N   1      31.235  16.991   7.493  0.00  0.00    -0.336 N 
HETATM   52  C   UNK N   1      28.871  18.190   8.295  0.00  0.00     0.131 A 
HETATM   53  N   UNK N   1      28.055  17.407   6.102  0.00  0.00    -0.330 N 
HETATM   54  N   UNK N   1      29.969  18.200   9.107  0.00  0.00    -0.337 N 
HETATM   55  C   UNK N   1      31.141  17.599   8.716  0.00  0.00     0.183 A 
ATOM     56  HN  UNK N   1      29.917  18.658  10.016  1.00  0.00     0.168 HD
HETATM   57  C   UNK N   1      28.712  16.729   5.124  0.00  0.00     0.160 A 
ATOM     58  HN  UNK N   1      27.087  17.729   6.101  1.00  0.00     0.168 HD
HETATM   59 Br   UNK N   1      27.883  16.254   3.464  0.00  0.00    -0.010 Br
ATOM     60  HN  UNK N   1      32.105  16.551   7.193  1.00  0.00     0.168 HD
BRANCH  52  61
HETATM   61  N   UNK N   1      27.674  18.819   8.695  0.00  0.00    -0.383 N 
HETATM   62  H   UNK N   1      26.805  18.448   8.419  0.00  0.00     0.157 HD
HETATM   63  H   UNK N   1      27.709  19.632   9.250  0.00  0.00     0.157 HD
ENDBRANCH  52  61
ENDBRANCH  12  48
ENDBRANCH   7   8
ENDBRANCH   3   7
TORSDOF 20
ENDMDL
MODEL 7
REMARK VINA RESULT:      -6.5      7.768     10.294
REMARK  20 active torsions:
REMARK  status: ('A' for Active; 'I' for Inactive)
REMARK    1  A    between atoms: C_9  and  C_5 
REMARK    2  A    between atoms: O_45  and  C_5 
REMARK    3  A    between atoms: C_10  and  C_6 
REMARK    4  A    between atoms: O_46  and  C_6 
REMARK    5  A    between atoms: C_17  and  C_8 
REMARK    6  A    between atoms: C_12  and  O_34 
REMARK    7  A    between atoms: C_13  and  O_35 
REMARK    8  A    between atoms: C_14  and  O_36 
REMARK    9  A    between atoms: C_15  and  O_49 
REMARK   10  A    between atoms: N_23  and  C_16 
REMARK   11  A    between atoms: O_37  and  C_17 
REMARK   12  A    between atoms: C_19  and  N_32 
REMARK   13  A    between atoms: C_20  and  N_33 
REMARK   14  A    between atoms: P_51  and  O_39 
REMARK   15  A    between atoms: P_52  and  O_41 
REMARK   16  A    between atoms: P_52  and  O_45 
REMARK   17  A    between atoms: P_53  and  O_46 
REMARK   18  A    between atoms: P_51  and  O_49 
REMARK   19  A    between atoms: P_52  and  O_50 
REMARK   20  A    between atoms: P_53  and  O_50 
ROOT
HETATM    1  O   UNK N   1      19.495  13.745   5.690  0.00  0.00    -0.632 OA
HETATM    2  O   UNK N   1      17.707  15.695   5.677  0.00  0.00    -0.307 OA
HETATM    3  P   UNK N   1      19.198  15.106   5.005  0.00  0.00     0.391 P 
HETATM    4  H   UNK N   1      16.913  15.950   6.173  0.00  0.00     0.222 HD
ENDROOT
BRANCH   3   5
HETATM    5  O   UNK N   1      19.011  14.777   3.312  0.00  0.00    -0.307 OA
HETATM    6  H   UNK N   1      19.705  14.565   2.667  0.00  0.00     0.222 HD
ENDBRANCH   3   5
BRANCH   3   7
HETATM    7  O   UNK N   1      20.575  16.153   5.315  0.00  0.00    -0.284 OA
BRANCH   7   8
HETATM    8  C   UNK N   1      21.734  15.366   5.496  0.00  0.00     0.214 C 
HETATM    9  C   UNK N   1      22.885  15.673   4.563  0.00  0.00     0.183 C 
HETATM   10  C   UNK N   1      23.953  14.917   5.339  0.00  0.00     0.180 C 
HETATM   11  O   UNK N   1      23.812  15.317   6.679  0.00  0.00    -0.353 OA
HETATM   12  C   UNK N   1      22.433  15.631   6.854  0.00  0.00     0.264 C 
BRANCH   9  13
HETATM   13  O   UNK N   1      23.142  17.051   4.551  0.00  0.00    -0.390 OA
HETATM   14  H   UNK N   1      22.700  17.914   4.547  0.00  0.00     0.210 HD
ENDBRANCH   9  13
BRANCH  10  15
HETATM   15  C   UNK N   1      25.384  15.032   4.823  0.00  0.00     0.216 C 
BRANCH  15  16
HETATM   16  O   UNK N   1      25.989  16.253   5.124  0.00  0.00    -0.287 OA
BRANCH  16  17
HETATM   17  P   UNK N   1      27.440  15.813   5.990  0.00  0.00     0.417 P 
HETATM   18  O   UNK N   1      27.392  17.366   6.014  0.00  0.00    -0.624 OA
HETATM   19  O   UNK N   1      27.261  14.849   4.553  0.00  0.00    -0.624 OA
BRANCH  17  20
HETATM   20  O   UNK N   1      28.927  16.185   5.085  0.00  0.00    -0.188 OA
BRANCH  20  21
HETATM   21  P   UNK N   1      30.361  16.463   6.098  0.00  0.00     0.402 P 
HETATM   22  O   UNK N   1      31.342  17.295   5.224  0.00  0.00    -0.631 OA
BRANCH  21  23
HETATM   23  O   UNK N   1      29.961  17.468   7.457  0.00  0.00    -0.307 OA
HETATM   24  H   UNK N   1      30.479  18.058   8.028  0.00  0.00     0.222 HD
ENDBRANCH  21  23
BRANCH  21  25
HETATM   25  O   UNK N   1      31.152  14.989   6.629  0.00  0.00    -0.294 OA
BRANCH  25  26
HETATM   26  C   UNK N   1      32.529  15.221   6.670  0.00  0.00     0.215 C 
BRANCH  26  27
HETATM   27  C   UNK N   1      33.058  15.045   8.088  0.00  0.00     0.180 C 
HETATM   28  C   UNK N   1      33.300  16.348   8.827  0.00  0.00     0.182 C 
HETATM   29  C   UNK N   1      34.080  15.815  10.003  0.00  0.00     0.198 C 
HETATM   30  C   UNK N   1      34.959  14.768   9.281  0.00  0.00     0.259 C 
HETATM   31  O   UNK N   1      34.318  14.432   8.054  0.00  0.00    -0.353 OA
BRANCH  28  32
HETATM   32  O   UNK N   1      32.122  17.000   9.202  0.00  0.00    -0.390 OA
HETATM   33  H   UNK N   1      31.242  16.735   9.514  0.00  0.00     0.210 HD
ENDBRANCH  28  32
BRANCH  29  34
HETATM   34  O   UNK N   1      33.199  15.186  10.893  0.00  0.00    -0.388 OA
HETATM   35  H   UNK N   1      32.546  14.519  11.156  0.00  0.00     0.210 HD
ENDBRANCH  29  34
BRANCH  30  36
HETATM   36  N   UNK N   1      35.157  13.550  10.085  0.00  0.00    -0.336 N 
HETATM   37  C   UNK N   1      34.646  12.347   9.691  0.00  0.00     0.093 A 
HETATM   38  C   UNK N   1      34.859  11.204  10.472  0.00  0.00     0.018 A 
HETATM   39  C   UNK N   1      35.603  11.302  11.653  0.00  0.00     0.018 A 
HETATM   40  C   UNK N   1      36.127  12.540  12.039  0.00  0.00     0.030 A 
HETATM   41  C   UNK N   1      35.883  13.646  11.236  0.00  0.00     0.108 A 
BRANCH  40  42
HETATM   42  C   UNK N   1      36.934  12.711  13.264  0.00  0.00     0.145 C 
HETATM   43  N   UNK N   1      37.692  11.767  13.684  0.00  0.00    -0.379 N 
HETATM   44  H   UNK N   1      37.748  10.868  13.287  0.00  0.00     0.158 HD
ATOM     45  HN  UNK N   1      38.283  11.961  14.494  1.00  0.00     0.158 HD
BRANCH  42  46
HETATM   46  O   UNK N   1      36.882  13.873  13.948  0.00  0.00    -0.346 OA
HETATM   47  H   UNK N   1      37.615  14.341  14.296  0.00  0.00     0.219 HD
ENDBRANCH  42  46
ENDBRANCH  40  42
ENDBRANCH  30  36
ENDBRANCH  26  27
ENDBRANCH  25  26
ENDBRANCH  21  25
ENDBRANCH  20  21
ENDBRANCH  17  20
ENDBRANCH  16  17
ENDBRANCH  15  16
ENDBRANCH  10  15
BRANCH  12  48
HETATM   48  N   UNK N   1      21.908  14.855   7.994  0.00  0.00    -0.281 N 
HETATM   49  C   UNK N   1      22.311  13.688   8.538  0.00  0.00     0.143 A 
HETATM   50  C   UNK N   1      21.555  13.416   9.626  0.00  0.00     0.123 A 
HETATM   51  N   UNK N   1      23.307  12.864   8.132  0.00  0.00    -0.336 N 
HETATM   52  C   UNK N   1      21.800  12.279  10.381  0.00  0.00     0.131 A 
HETATM   53  N   UNK N   1      20.638  14.379   9.806  0.00  0.00    -0.330 N 
HETATM   54  N   UNK N   1      22.804  11.447   9.978  0.00  0.00    -0.337 N 
HETATM   55  C   UNK N   1      23.549  11.730   8.859  0.00  0.00     0.183 A 
ATOM     56  HN  UNK N   1      23.003  10.603  10.515  1.00  0.00     0.168 HD
HETATM   57  C   UNK N   1      20.870  15.247   8.787  0.00  0.00     0.160 A 
ATOM     58  HN  UNK N   1      19.931  14.445  10.539  1.00  0.00     0.168 HD
HETATM   59 Br   UNK N   1      19.859  16.856   8.553  0.00  0.00    -0.010 Br
ATOM     60  HN  UNK N   1      23.862  13.084   7.305  1.00  0.00     0.168 HD
BRANCH  52  61
HETATM   61  N   UNK N   1      21.048  11.993  11.538  0.00  0.00    -0.383 N 
HETATM   62  H   UNK N   1      21.372  11.326  12.185  0.00  0.00     0.157 HD
HETATM   63  H   UNK N   1      20.197  12.461  11.698  0.00  0.00     0.157 HD
ENDBRANCH  52  61
ENDBRANCH  12  48
ENDBRANCH   7   8
ENDBRANCH   3   7
TORSDOF 20
ENDMDL
MODEL 8
REMARK VINA RESULT:      -6.5     10.407     13.378
REMARK  20 active torsions:
REMARK  status: ('A' for Active; 'I' for Inactive)
REMARK    1  A    between atoms: C_9  and  C_5 
REMARK    2  A    between atoms: O_45  and  C_5 
REMARK    3  A    between atoms: C_10  and  C_6 
REMARK    4  A    between atoms: O_46  and  C_6 
REMARK    5  A    between atoms: C_17  and  C_8 
REMARK    6  A    between atoms: C_12  and  O_34 
REMARK    7  A    between atoms: C_13  and  O_35 
REMARK    8  A    between atoms: C_14  and  O_36 
REMARK    9  A    between atoms: C_15  and  O_49 
REMARK   10  A    between atoms: N_23  and  C_16 
REMARK   11  A    between atoms: O_37  and  C_17 
REMARK   12  A    between atoms: C_19  and  N_32 
REMARK   13  A    between atoms: C_20  and  N_33 
REMARK   14  A    between atoms: P_51  and  O_39 
REMARK   15  A    between atoms: P_52  and  O_41 
REMARK   16  A    between atoms: P_52  and  O_45 
REMARK   17  A    between atoms: P_53  and  O_46 
REMARK   18  A    between atoms: P_51  and  O_49 
REMARK   19  A    between atoms: P_52  and  O_50 
REMARK   20  A    between atoms: P_53  and  O_50 
ROOT
HETATM    1  O   UNK N   1      37.951  10.668  10.941  0.00  0.00    -0.632 OA
HETATM    2  O   UNK N   1      39.385  11.207   8.783  0.00  0.00    -0.307 OA
HETATM    3  P   UNK N   1      38.293  11.838   9.979  0.00  0.00     0.391 P 
HETATM    4  H   UNK N   1      39.928  10.726   8.138  0.00  0.00     0.222 HD
ENDROOT
BRANCH   3   5
HETATM    5  O   UNK N   1      39.078  13.052  10.938  0.00  0.00    -0.307 OA
HETATM    6  H   UNK N   1      38.675  13.650  11.587  0.00  0.00     0.222 HD
ENDBRANCH   3   5
BRANCH   3   7
HETATM    7  O   UNK N   1      36.774  12.420   9.312  0.00  0.00    -0.284 OA
BRANCH   7   8
HETATM    8  C   UNK N   1      36.370  13.583  10.003  0.00  0.00     0.214 C 
HETATM    9  C   UNK N   1      35.919  14.737   9.133  0.00  0.00     0.183 C 
HETATM   10  C   UNK N   1      35.255  15.546  10.238  0.00  0.00     0.180 C 
HETATM   11  O   UNK N   1      34.443  14.642  10.944  0.00  0.00    -0.353 OA
HETATM   12  C   UNK N   1      35.077  13.371  10.830  0.00  0.00     0.264 C 
BRANCH   9  13
HETATM   13  O   UNK N   1      34.980  14.292   8.192  0.00  0.00    -0.390 OA
HETATM   14  H   UNK N   1      34.809  13.581   7.556  0.00  0.00     0.210 HD
ENDBRANCH   9  13
BRANCH  10  15
HETATM   15  C   UNK N   1      34.518  16.811   9.811  0.00  0.00     0.216 C 
BRANCH  15  16
HETATM   16  O   UNK N   1      34.255  16.869   8.442  0.00  0.00    -0.287 OA
BRANCH  16  17
HETATM   17  P   UNK N   1      32.565  17.295   8.345  0.00  0.00     0.417 P 
HETATM   18  O   UNK N   1      32.665  15.848   7.790  0.00  0.00    -0.624 OA
HETATM   19  O   UNK N   1      33.566  18.617   7.821  0.00  0.00    -0.624 OA
BRANCH  17  20
HETATM   20  O   UNK N   1      32.011  17.563   6.675  0.00  0.00    -0.188 OA
BRANCH  20  21
HETATM   21  P   UNK N   1      33.149  17.023   5.421  0.00  0.00     0.402 P 
HETATM   22  O   UNK N   1      33.437  18.275   4.543  0.00  0.00    -0.631 OA
BRANCH  21  23
HETATM   23  O   UNK N   1      34.671  16.578   6.130  0.00  0.00    -0.307 OA
HETATM   24  H   UNK N   1      34.958  16.396   7.039  0.00  0.00     0.222 HD
ENDBRANCH  21  23
BRANCH  21  25
HETATM   25  O   UNK N   1      32.532  15.727   4.412  0.00  0.00    -0.294 OA
BRANCH  25  26
HETATM   26  C   UNK N   1      31.596  16.268   3.528  0.00  0.00     0.215 C 
BRANCH  26  27
HETATM   27  C   UNK N   1      30.263  16.491   4.232  0.00  0.00     0.180 C 
HETATM   28  C   UNK N   1      29.706  15.254   4.912  0.00  0.00     0.182 C 
HETATM   29  C   UNK N   1      28.311  15.749   5.202  0.00  0.00     0.198 C 
HETATM   30  C   UNK N   1      28.027  16.519   3.892  0.00  0.00     0.259 C 
HETATM   31  O   UNK N   1      29.281  16.839   3.294  0.00  0.00    -0.353 OA
BRANCH  28  32
HETATM   32  O   UNK N   1      30.408  14.890   6.063  0.00  0.00    -0.390 OA
HETATM   33  H   UNK N   1      31.146  15.252   6.579  0.00  0.00     0.210 HD
ENDBRANCH  28  32
BRANCH  29  34
HETATM   34  O   UNK N   1      28.353  16.631   6.291  0.00  0.00    -0.388 OA
HETATM   35  H   UNK N   1      28.734  17.011   7.098  0.00  0.00     0.210 HD
ENDBRANCH  29  34
BRANCH  30  36
HETATM   36  N   UNK N   1      27.260  17.755   4.121  0.00  0.00    -0.336 N 
HETATM   37  C   UNK N   1      27.872  18.974   4.165  0.00  0.00     0.093 A 
HETATM   38  C   UNK N   1      27.113  20.133   4.375  0.00  0.00     0.018 A 
HETATM   39  C   UNK N   1      25.727  20.033   4.533  0.00  0.00     0.018 A 
HETATM   40  C   UNK N   1      25.114  18.777   4.477  0.00  0.00     0.030 A 
HETATM   41  C   UNK N   1      25.908  17.657   4.274  0.00  0.00     0.108 A 
BRANCH  40  42
HETATM   42  C   UNK N   1      23.654  18.602   4.619  0.00  0.00     0.145 C 
HETATM   43  N   UNK N   1      22.851  19.062   3.732  0.00  0.00    -0.379 N 
HETATM   44  H   UNK N   1      23.118  19.603   2.954  0.00  0.00     0.158 HD
ATOM     45  HN  UNK N   1      21.858  18.852   3.841  1.00  0.00     0.158 HD
BRANCH  42  46
HETATM   46  O   UNK N   1      23.155  17.946   5.688  0.00  0.00    -0.346 OA
HETATM   47  H   UNK N   1      23.438  17.110   6.003  0.00  0.00     0.219 HD
ENDBRANCH  42  46
ENDBRANCH  40  42
ENDBRANCH  30  36
ENDBRANCH  26  27
ENDBRANCH  25  26
ENDBRANCH  21  25
ENDBRANCH  20  21
ENDBRANCH  17  20
ENDBRANCH  16  17
ENDBRANCH  15  16
ENDBRANCH  10  15
BRANCH  12  48
HETATM   48  N   UNK N   1      35.280  12.816  12.184  0.00  0.00    -0.281 N 
HETATM   49  C   UNK N   1      35.806  13.362  13.300  0.00  0.00     0.143 A 
HETATM   50  C   UNK N   1      35.706  12.480  14.320  0.00  0.00     0.123 A 
HETATM   51  N   UNK N   1      36.356  14.589  13.464  0.00  0.00    -0.336 N 
HETATM   52  C   UNK N   1      36.150  12.823  15.587  0.00  0.00     0.131 A 
HETATM   53  N   UNK N   1      35.135  11.342  13.894  0.00  0.00    -0.330 N 
HETATM   54  N   UNK N   1      36.702  14.060  15.759  0.00  0.00    -0.337 N 
HETATM   55  C   UNK N   1      36.813  14.936  14.706  0.00  0.00     0.183 A 
ATOM     56  HN  UNK N   1      37.038  14.337  16.681  1.00  0.00     0.168 HD
HETATM   57  C   UNK N   1      34.890  11.571  12.577  0.00  0.00     0.160 A 
ATOM     58  HN  UNK N   1      34.932  10.501  14.434  1.00  0.00     0.168 HD
HETATM   59 Br   UNK N   1      34.045  10.277  11.446  0.00  0.00    -0.010 Br
ATOM     60  HN  UNK N   1      36.427  15.238  12.680  1.00  0.00     0.168 HD
BRANCH  52  61
HETATM   61  N   UNK N   1      36.025  11.933  16.673  0.00  0.00    -0.383 N 
HETATM   62  H   UNK N   1      36.622  11.154  16.744  0.00  0.00     0.157 HD
HETATM   63  H   UNK N   1      35.339  12.091  17.361  0.00  0.00     0.157 HD
ENDBRANCH  52  61
ENDBRANCH  12  48
ENDBRANCH   7   8
ENDBRANCH   3   7
TORSDOF 20
ENDMDL
MODEL 9
REMARK VINA RESULT:      -6.2      7.049      9.906
REMARK  20 active torsions:
REMARK  status: ('A' for Active; 'I' for Inactive)
REMARK    1  A    between atoms: C_9  and  C_5 
REMARK    2  A    between atoms: O_45  and  C_5 
REMARK    3  A    between atoms: C_10  and  C_6 
REMARK    4  A    between atoms: O_46  and  C_6 
REMARK    5  A    between atoms: C_17  and  C_8 
REMARK    6  A    between atoms: C_12  and  O_34 
REMARK    7  A    between atoms: C_13  and  O_35 
REMARK    8  A    between atoms: C_14  and  O_36 
REMARK    9  A    between atoms: C_15  and  O_49 
REMARK   10  A    between atoms: N_23  and  C_16 
REMARK   11  A    between atoms: O_37  and  C_17 
REMARK   12  A    between atoms: C_19  and  N_32 
REMARK   13  A    between atoms: C_20  and  N_33 
REMARK   14  A    between atoms: P_51  and  O_39 
REMARK   15  A    between atoms: P_52  and  O_41 
REMARK   16  A    between atoms: P_52  and  O_45 
REMARK   17  A    between atoms: P_53  and  O_46 
REMARK   18  A    between atoms: P_51  and  O_49 
REMARK   19  A    between atoms: P_52  and  O_50 
REMARK   20  A    between atoms: P_53  and  O_50 
ROOT
HETATM    1  O   UNK N   1      20.375  13.650   8.408  0.00  0.00    -0.632 OA
HETATM    2  O   UNK N   1      21.035  16.207   8.575  0.00  0.00    -0.307 OA
HETATM    3  P   UNK N   1      20.759  14.859   7.513  0.00  0.00     0.391 P 
HETATM    4  H   UNK N   1      21.229  16.859   9.267  0.00  0.00     0.222 HD
ENDROOT
BRANCH   3   5
HETATM    5  O   UNK N   1      19.395  15.166   6.486  0.00  0.00    -0.307 OA
HETATM    6  H   UNK N   1      19.399  15.509   5.578  0.00  0.00     0.222 HD
ENDBRANCH   3   5
BRANCH   3   7
HETATM    7  O   UNK N   1      22.176  14.387   6.587  0.00  0.00    -0.284 OA
BRANCH   7   8
HETATM    8  C   UNK N   1      22.802  15.540   6.063  0.00  0.00     0.214 C 
HETATM    9  C   UNK N   1      24.296  15.632   6.288  0.00  0.00     0.183 C 
HETATM   10  C   UNK N   1      24.561  16.743   5.283  0.00  0.00     0.180 C 
HETATM   11  O   UNK N   1      23.898  16.362   4.103  0.00  0.00    -0.353 OA
HETATM   12  C   UNK N   1      22.777  15.584   4.514  0.00  0.00     0.264 C 
BRANCH   9  13
HETATM   13  O   UNK N   1      24.916  14.436   5.902  0.00  0.00    -0.390 OA
HETATM   14  H   UNK N   1      24.836  13.696   5.279  0.00  0.00     0.210 HD
ENDBRANCH   9  13
BRANCH  10  15
HETATM   15  C   UNK N   1      26.020  17.128   5.056  0.00  0.00     0.216 C 
BRANCH  15  16
HETATM   16  O   UNK N   1      26.927  16.252   5.654  0.00  0.00    -0.287 OA
BRANCH  16  17
HETATM   17  P   UNK N   1      28.120  15.957   4.414  0.00  0.00     0.417 P 
HETATM   18  O   UNK N   1      27.772  14.561   5.000  0.00  0.00    -0.624 OA
HETATM   19  O   UNK N   1      28.553  17.343   5.372  0.00  0.00    -0.624 OA
BRANCH  17  20
HETATM   20  O   UNK N   1      29.707  15.492   5.074  0.00  0.00    -0.188 OA
BRANCH  20  21
HETATM   21  P   UNK N   1      31.100  16.168   4.201  0.00  0.00     0.402 P 
HETATM   22  O   UNK N   1      30.810  15.930   2.692  0.00  0.00    -0.631 OA
BRANCH  21  23
HETATM   23  O   UNK N   1      31.172  17.891   4.408  0.00  0.00    -0.307 OA
HETATM   24  H   UNK N   1      30.510  18.567   4.622  0.00  0.00     0.222 HD
ENDBRANCH  21  23
BRANCH  21  25
HETATM   25  O   UNK N   1      32.633  15.427   4.629  0.00  0.00    -0.294 OA
BRANCH  25  26
HETATM   26  C   UNK N   1      33.421  16.389   5.265  0.00  0.00     0.215 C 
BRANCH  26  27
HETATM   27  C   UNK N   1      33.394  16.187   6.776  0.00  0.00     0.180 C 
HETATM   28  C   UNK N   1      33.080  17.445   7.564  0.00  0.00     0.182 C 
HETATM   29  C   UNK N   1      33.441  16.957   8.945  0.00  0.00     0.198 C 
HETATM   30  C   UNK N   1      34.712  16.142   8.612  0.00  0.00     0.259 C 
HETATM   31  O   UNK N   1      34.664  15.805   7.228  0.00  0.00    -0.353 OA
BRANCH  28  32
HETATM   32  O   UNK N   1      31.748  17.849   7.458  0.00  0.00    -0.390 OA
HETATM   33  H   UNK N   1      31.039  17.767   6.800  0.00  0.00     0.210 HD
ENDBRANCH  28  32
BRANCH  29  34
HETATM   34  O   UNK N   1      32.425  16.112   9.415  0.00  0.00    -0.388 OA
HETATM   35  H   UNK N   1      31.508  15.812   9.508  0.00  0.00     0.210 HD
ENDBRANCH  29  34
BRANCH  30  36
HETATM   36  N   UNK N   1      34.819  14.913   9.416  0.00  0.00    -0.336 N 
HETATM   37  C   UNK N   1      34.630  13.681   8.860  0.00  0.00     0.093 A 
HETATM   38  C   UNK N   1      34.747  12.528   9.649  0.00  0.00     0.018 A 
HETATM   39  C   UNK N   1      35.065  12.649  11.006  0.00  0.00     0.018 A 
HETATM   40  C   UNK N   1      35.263  13.919  11.559  0.00  0.00     0.030 A 
HETATM   41  C   UNK N   1      35.129  15.031  10.740  0.00  0.00     0.108 A 
BRANCH  40  42
HETATM   42  C   UNK N   1      35.616  14.117  12.980  0.00  0.00     0.145 C 
HETATM   43  N   UNK N   1      36.551  14.926  13.314  0.00  0.00    -0.379 N 
HETATM   44  H   UNK N   1      37.132  15.410  12.683  0.00  0.00     0.158 HD
ATOM     45  HN  UNK N   1      36.707  15.081  14.311  1.00  0.00     0.158 HD
BRANCH  42  46
HETATM   46  O   UNK N   1      34.945  13.447  13.940  0.00  0.00    -0.346 OA
HETATM   47  H   UNK N   1      34.014  13.403  14.034  0.00  0.00     0.219 HD
ENDBRANCH  42  46
ENDBRANCH  40  42
ENDBRANCH  30  36
ENDBRANCH  26  27
ENDBRANCH  25  26
ENDBRANCH  21  25
ENDBRANCH  20  21
ENDBRANCH  17  20
ENDBRANCH  16  17
ENDBRANCH  15  16
ENDBRANCH  10  15
BRANCH  12  48
HETATM   48  N   UNK N   1      21.554  16.160   3.921  0.00  0.00    -0.281 N 
HETATM   49  C   UNK N   1      21.179  17.440   3.719  0.00  0.00     0.143 A 
HETATM   50  C   UNK N   1      19.995  17.463   3.067  0.00  0.00     0.123 A 
HETATM   51  N   UNK N   1      21.828  18.577   4.068  0.00  0.00    -0.336 N 
HETATM   52  C   UNK N   1      19.415  18.671   2.713  0.00  0.00     0.131 A 
HETATM   53  N   UNK N   1      19.563  16.212   2.846  0.00  0.00    -0.330 N 
HETATM   54  N   UNK N   1      20.065  19.820   3.060  0.00  0.00    -0.337 N 
HETATM   55  C   UNK N   1      21.259  19.778   3.740  0.00  0.00     0.183 A 
ATOM     56  HN  UNK N   1      19.659  20.722   2.813  1.00  0.00     0.168 HD
HETATM   57  C   UNK N   1      20.534  15.429   3.387  0.00  0.00     0.160 A 
ATOM     58  HN  UNK N   1      18.705  15.916   2.381  1.00  0.00     0.168 HD
HETATM   59 Br   UNK N   1      20.461  13.516   3.342  0.00  0.00    -0.010 Br
ATOM     60  HN  UNK N   1      22.718  18.539   4.565  1.00  0.00     0.168 HD
BRANCH  52  61
HETATM   61  N   UNK N   1      18.198  18.719   2.003  0.00  0.00    -0.383 N 
HETATM   62  H   UNK N   1      17.353  18.494   2.456  0.00  0.00     0.157 HD
HETATM   63  H   UNK N   1      18.193  18.978   1.053  0.00  0.00     0.157 HD
ENDBRANCH  52  61
ENDBRANCH  12  48
ENDBRANCH   7   8
ENDBRANCH   3   7
TORSDOF 20
ENDMDL
