MODEL 1
REMARK VINA RESULT:      -8.3      0.000      0.000
REMARK  22 active torsions:
REMARK  status: ('A' for Active; 'I' for Inactive)
REMARK    1  A    between atoms: C_19  and  C_15 
REMARK    2  A    between atoms: C_23  and  C_15 
REMARK    3  A    between atoms: C_20  and  C_16 
REMARK    4  A    between atoms: C_24  and  C_16 
REMARK    5  A    between atoms: C_21  and  C_17 
REMARK    6  A    between atoms: O_46  and  C_17 
REMARK    7  A    between atoms: C_22  and  C_18 
REMARK    8  A    between atoms: O_47  and  C_18 
REMARK    9  A    between atoms: C_25  and  C_23 
REMARK   10  A    between atoms: C_23  and  N_30 
REMARK   11  A    between atoms: C_26  and  C_24 
REMARK   12  A    between atoms: C_24  and  N_32 
REMARK   13  A    between atoms: O_41  and  C_25 
REMARK   14  A    between atoms: O_42  and  C_26 
REMARK   15  A    between atoms: N_40  and  C_27 
REMARK   16  A    between atoms: C_27  and  O_43 
REMARK   17  A    between atoms: C_28  and  O_44 
REMARK   18  A    between atoms: O_46  and  C_28 
REMARK   19  A    between atoms: C_29  and  O_45 
REMARK   20  A    between atoms: O_47  and  C_29 
REMARK   21  A    between atoms: N_34  and  N_38 
REMARK   22  A    between atoms: N_36  and  N_40 
ROOT
HETATM    1  C   UNK N   1      35.507  16.179  10.709  0.00  0.00     0.251 C 
HETATM    2  N   UNK N   1      35.135  17.057   9.834  0.00  0.00    -0.262 N 
ATOM      3  HN  UNK N   1      35.868  17.625   9.408  1.00  0.00     0.190 HD
ENDROOT
BRANCH   1   4
HETATM    4  N   UNK N   1      34.608  15.272  11.331  0.00  0.00    -0.262 N 
HETATM    5  H   UNK N   1      33.830  15.633  11.814  0.00  0.00     0.190 HD
BRANCH   4   6
HETATM    6  N   UNK N   1      34.782  13.907  11.283  0.00  0.00    -0.279 N 
HETATM    7  C   UNK N   1      35.463  13.335  12.222  0.00  0.00     0.153 C 
ATOM      8  HN  UNK N   1      34.380  13.358  10.523  1.00  0.00     0.189 HD
BRANCH   7   9
HETATM    9  C   UNK N   1      35.709  11.834  12.253  0.00  0.00     0.162 C 
BRANCH   9  10
HETATM   10  C   UNK N   1      37.152  11.466  11.891  0.00  0.00     0.037 C 
BRANCH  10  11
HETATM   11  C   UNK N   1      37.539  11.872  10.462  0.00  0.00    -0.020 C 
HETATM   12  C   UNK N   1      38.107  10.671   9.739  0.00  0.00     0.009 C 
HETATM   13  C   UNK N   1      38.570  12.989  10.426  0.00  0.00     0.009 C 
ENDBRANCH  10  11
ENDBRANCH   9  10
BRANCH   9  14
HETATM   14  N   UNK N   1      35.400  11.319  13.576  0.00  0.00    -0.338 N 
HETATM   15  C   UNK N   1      34.271  10.787  13.900  0.00  0.00     0.259 C 
ATOM     16  HN  UNK N   1      36.122  11.385  14.294  1.00  0.00     0.164 HD
BRANCH  15  17
HETATM   17  O   UNK N   1      33.307  10.588  12.973  0.00  0.00    -0.327 OA
HETATM   18  H   UNK N   1      32.752  10.285  12.282  0.00  0.00     0.221 HD
ENDBRANCH  15  17
BRANCH  15  19
HETATM   19  O   UNK N   1      34.030  10.494  15.199  0.00  0.00    -0.312 OA
BRANCH  19  20
HETATM   20  C   UNK N   1      35.053  10.183  16.074  0.00  0.00     0.218 C 
BRANCH  20  21
HETATM   21  C   UNK N   1      35.110  11.155  17.230  0.00  0.00    -0.034 A 
HETATM   22  C   UNK N   1      35.063  12.530  16.974  0.00  0.00     0.009 A 
HETATM   23  C   UNK N   1      35.128  13.445  18.030  0.00  0.00     0.001 A 
HETATM   24  C   UNK N   1      35.243  12.991  19.348  0.00  0.00     0.000 A 
HETATM   25  C   UNK N   1      35.289  11.622  19.613  0.00  0.00     0.001 A 
HETATM   26  C   UNK N   1      35.219  10.708  18.559  0.00  0.00     0.009 A 
ENDBRANCH  20  21
ENDBRANCH  19  20
ENDBRANCH  15  19
ENDBRANCH   9  14
ENDBRANCH   7   9
BRANCH   7  27
HETATM   27  O   UNK N   1      36.018  14.098  13.188  0.00  0.00    -0.347 OA
HETATM   28  H   UNK N   1      36.717  14.720  13.236  0.00  0.00     0.219 HD
ENDBRANCH   7  27
ENDBRANCH   4   6
ENDBRANCH   1   4
BRANCH   1  29
HETATM   29  O   UNK N   1      36.803  16.139  11.068  0.00  0.00    -0.330 OA
HETATM   30  H   UNK N   1      37.473  16.121  10.414  0.00  0.00     0.221 HD
ENDBRANCH   1  29
BRANCH   2  31
HETATM   31  N   UNK N   1      33.839  17.296   9.423  0.00  0.00    -0.279 N 
HETATM   32  C   UNK N   1      33.526  17.822   8.282  0.00  0.00     0.153 C 
ATOM     33  HN  UNK N   1      33.081  17.043  10.057  1.00  0.00     0.189 HD
BRANCH  32  34
HETATM   34  C   UNK N   1      32.078  17.948   7.900  0.00  0.00     0.162 C 
BRANCH  34  35
HETATM   35  C   UNK N   1      31.788  17.166   6.608  0.00  0.00     0.037 C 
BRANCH  35  36
HETATM   36  C   UNK N   1      31.391  15.689   6.780  0.00  0.00    -0.020 C 
HETATM   37  C   UNK N   1      32.542  14.718   6.584  0.00  0.00     0.009 C 
HETATM   38  C   UNK N   1      30.216  15.311   5.899  0.00  0.00     0.009 C 
ENDBRANCH  35  36
ENDBRANCH  34  35
BRANCH  34  39
HETATM   39  N   UNK N   1      31.262  17.391   8.964  0.00  0.00    -0.338 N 
HETATM   40  C   UNK N   1      30.066  17.785   9.238  0.00  0.00     0.259 C 
ATOM     41  HN  UNK N   1      31.660  16.642   9.530  1.00  0.00     0.164 HD
BRANCH  40  42
HETATM   42  O   UNK N   1      29.386  17.179  10.232  0.00  0.00    -0.327 OA
HETATM   43  H   UNK N   1      28.944  17.484  11.000  0.00  0.00     0.221 HD
ENDBRANCH  40  42
BRANCH  40  44
HETATM   44  O   UNK N   1      29.508  18.813   8.550  0.00  0.00    -0.312 OA
BRANCH  44  45
HETATM   45  C   UNK N   1      28.160  18.919   8.279  0.00  0.00     0.218 C 
BRANCH  45  46
HETATM   46  C   UNK N   1      27.911  19.316   6.860  0.00  0.00    -0.034 A 
HETATM   47  C   UNK N   1      27.229  20.503   6.564  0.00  0.00     0.009 A 
HETATM   48  C   UNK N   1      26.983  20.856   5.236  0.00  0.00     0.001 A 
HETATM   49  C   UNK N   1      27.405  20.016   4.200  0.00  0.00     0.000 A 
HETATM   50  C   UNK N   1      28.079  18.827   4.494  0.00  0.00     0.001 A 
HETATM   51  C   UNK N   1      28.334  18.478   5.823  0.00  0.00     0.009 A 
ENDBRANCH  45  46
ENDBRANCH  44  45
ENDBRANCH  40  44
ENDBRANCH  34  39
ENDBRANCH  32  34
BRANCH  32  52
HETATM   52  O   UNK N   1      34.476  18.219   7.410  0.00  0.00    -0.347 OA
HETATM   53  H   UNK N   1      35.015  18.762   6.869  0.00  0.00     0.219 HD
ENDBRANCH  32  52
ENDBRANCH   2  31
TORSDOF 22
ENDMDL
MODEL 2
REMARK VINA RESULT:      -8.3     11.154     14.195
REMARK  22 active torsions:
REMARK  status: ('A' for Active; 'I' for Inactive)
REMARK    1  A    between atoms: C_19  and  C_15 
REMARK    2  A    between atoms: C_23  and  C_15 
REMARK    3  A    between atoms: C_20  and  C_16 
REMARK    4  A    between atoms: C_24  and  C_16 
REMARK    5  A    between atoms: C_21  and  C_17 
REMARK    6  A    between atoms: O_46  and  C_17 
REMARK    7  A    between atoms: C_22  and  C_18 
REMARK    8  A    between atoms: O_47  and  C_18 
REMARK    9  A    between atoms: C_25  and  C_23 
REMARK   10  A    between atoms: C_23  and  N_30 
REMARK   11  A    between atoms: C_26  and  C_24 
REMARK   12  A    between atoms: C_24  and  N_32 
REMARK   13  A    between atoms: O_41  and  C_25 
REMARK   14  A    between atoms: O_42  and  C_26 
REMARK   15  A    between atoms: N_40  and  C_27 
REMARK   16  A    between atoms: C_27  and  O_43 
REMARK   17  A    between atoms: C_28  and  O_44 
REMARK   18  A    between atoms: O_46  and  C_28 
REMARK   19  A    between atoms: C_29  and  O_45 
REMARK   20  A    between atoms: O_47  and  C_29 
REMARK   21  A    between atoms: N_34  and  N_38 
REMARK   22  A    between atoms: N_36  and  N_40 
ROOT
HETATM    1  C   UNK N   1      20.874  20.554   1.907  0.00  0.00     0.251 C 
HETATM    2  N   UNK N   1      22.166  20.589   1.973  0.00  0.00    -0.262 N 
ATOM      3  HN  UNK N   1      22.652  21.116   1.246  1.00  0.00     0.190 HD
ENDROOT
BRANCH   1   4
HETATM    4  N   UNK N   1      20.062  19.920   2.886  0.00  0.00    -0.262 N 
HETATM    5  H   UNK N   1      19.602  20.478   3.553  0.00  0.00     0.190 HD
BRANCH   4   6
HETATM    6  N   UNK N   1      19.895  18.555   2.938  0.00  0.00    -0.279 N 
HETATM    7  C   UNK N   1      20.367  17.910   3.954  0.00  0.00     0.153 C 
ATOM      8  HN  UNK N   1      19.406  18.062   2.191  1.00  0.00     0.189 HD
BRANCH   7   9
HETATM    9  C   UNK N   1      20.232  16.401   4.098  0.00  0.00     0.162 C 
BRANCH   9  10
HETATM   10  C   UNK N   1      21.335  15.637   3.356  0.00  0.00     0.037 C 
BRANCH  10  11
HETATM   11  C   UNK N   1      20.796  14.736   2.235  0.00  0.00    -0.020 C 
HETATM   12  C   UNK N   1      20.709  15.532   0.953  0.00  0.00     0.009 C 
HETATM   13  C   UNK N   1      19.419  14.170   2.547  0.00  0.00     0.009 C 
ENDBRANCH  10  11
ENDBRANCH   9  10
BRANCH   9  14
HETATM   14  N   UNK N   1      20.266  16.043   5.506  0.00  0.00    -0.338 N 
HETATM   15  C   UNK N   1      19.216  15.850   6.229  0.00  0.00     0.259 C 
ATOM     16  HN  UNK N   1      21.179  15.939   5.950  1.00  0.00     0.164 HD
BRANCH  15  17
HETATM   17  O   UNK N   1      17.980  15.884   5.680  0.00  0.00    -0.327 OA
HETATM   18  H   UNK N   1      17.111  15.715   5.374  0.00  0.00     0.221 HD
ENDBRANCH  15  17
BRANCH  15  19
HETATM   19  O   UNK N   1      19.357  15.686   7.564  0.00  0.00    -0.312 OA
BRANCH  19  20
HETATM   20  C   UNK N   1      20.561  15.917   8.200  0.00  0.00     0.218 C 
BRANCH  20  21
HETATM   21  C   UNK N   1      21.158  14.639   8.742  0.00  0.00    -0.034 A 
HETATM   22  C   UNK N   1      22.274  14.080   8.110  0.00  0.00     0.009 A 
HETATM   23  C   UNK N   1      22.832  12.890   8.589  0.00  0.00     0.001 A 
HETATM   24  C   UNK N   1      22.276  12.251   9.702  0.00  0.00     0.000 A 
HETATM   25  C   UNK N   1      21.164  12.802  10.340  0.00  0.00     0.001 A 
HETATM   26  C   UNK N   1      20.610  13.992   9.864  0.00  0.00     0.009 A 
ENDBRANCH  20  21
ENDBRANCH  19  20
ENDBRANCH  15  19
ENDBRANCH   9  14
ENDBRANCH   7   9
BRANCH   7  27
HETATM   27  O   UNK N   1      21.048  18.588   4.904  0.00  0.00    -0.347 OA
HETATM   28  H   UNK N   1      21.668  18.371   5.572  0.00  0.00     0.219 HD
ENDBRANCH   7  27
ENDBRANCH   4   6
ENDBRANCH   1   4
BRANCH   1  29
HETATM   29  O   UNK N   1      20.268  21.120   0.848  0.00  0.00    -0.330 OA
HETATM   30  H   UNK N   1      20.525  21.974   0.560  0.00  0.00     0.221 HD
ENDBRANCH   1  29
BRANCH   2  31
HETATM   31  N   UNK N   1      22.948  19.981   2.935  0.00  0.00    -0.279 N 
HETATM   32  C   UNK N   1      24.229  20.133   3.029  0.00  0.00     0.153 C 
ATOM     33  HN  UNK N   1      22.486  19.374   3.613  1.00  0.00     0.189 HD
BRANCH  32  34
HETATM   34  C   UNK N   1      24.965  19.499   4.175  0.00  0.00     0.162 C 
BRANCH  34  35
HETATM   35  C   UNK N   1      25.591  20.574   5.080  0.00  0.00     0.037 C 
BRANCH  35  36
HETATM   36  C   UNK N   1      27.007  20.281   5.606  0.00  0.00    -0.020 C 
HETATM   37  C   UNK N   1      27.636  21.441   6.356  0.00  0.00     0.009 C 
HETATM   38  C   UNK N   1      27.931  19.792   4.506  0.00  0.00     0.009 C 
ENDBRANCH  35  36
ENDBRANCH  34  35
BRANCH  34  39
HETATM   39  N   UNK N   1      24.025  18.726   4.967  0.00  0.00    -0.338 N 
HETATM   40  C   UNK N   1      24.154  17.469   5.217  0.00  0.00     0.259 C 
ATOM     41  HN  UNK N   1      23.211  19.209   5.348  1.00  0.00     0.164 HD
BRANCH  40  42
HETATM   42  O   UNK N   1      23.234  16.854   5.988  0.00  0.00    -0.327 OA
HETATM   43  H   UNK N   1      22.615  17.151   6.626  0.00  0.00     0.221 HD
ENDBRANCH  40  42
BRANCH  40  44
HETATM   44  O   UNK N   1      25.190  16.767   4.692  0.00  0.00    -0.312 OA
BRANCH  44  45
HETATM   45  C   UNK N   1      25.350  15.405   4.832  0.00  0.00     0.218 C 
BRANCH  45  46
HETATM   46  C   UNK N   1      24.915  14.668   3.608  0.00  0.00    -0.034 A 
HETATM   47  C   UNK N   1      25.031  15.259   2.343  0.00  0.00     0.009 A 
HETATM   48  C   UNK N   1      24.604  14.569   1.206  0.00  0.00     0.001 A 
HETATM   49  C   UNK N   1      24.044  13.294   1.333  0.00  0.00     0.000 A 
HETATM   50  C   UNK N   1      23.919  12.706   2.595  0.00  0.00     0.001 A 
HETATM   51  C   UNK N   1      24.356  13.391   3.732  0.00  0.00     0.009 A 
ENDBRANCH  45  46
ENDBRANCH  44  45
ENDBRANCH  40  44
ENDBRANCH  34  39
ENDBRANCH  32  34
BRANCH  32  52
HETATM   52  O   UNK N   1      24.912  20.888   2.143  0.00  0.00    -0.347 OA
HETATM   53  H   UNK N   1      25.278  21.203   1.340  0.00  0.00     0.219 HD
ENDBRANCH  32  52
ENDBRANCH   2  31
TORSDOF 22
ENDMDL
MODEL 3
REMARK VINA RESULT:      -8.1      9.743     13.894
REMARK  22 active torsions:
REMARK  status: ('A' for Active; 'I' for Inactive)
REMARK    1  A    between atoms: C_19  and  C_15 
REMARK    2  A    between atoms: C_23  and  C_15 
REMARK    3  A    between atoms: C_20  and  C_16 
REMARK    4  A    between atoms: C_24  and  C_16 
REMARK    5  A    between atoms: C_21  and  C_17 
REMARK    6  A    between atoms: O_46  and  C_17 
REMARK    7  A    between atoms: C_22  and  C_18 
REMARK    8  A    between atoms: O_47  and  C_18 
REMARK    9  A    between atoms: C_25  and  C_23 
REMARK   10  A    between atoms: C_23  and  N_30 
REMARK   11  A    between atoms: C_26  and  C_24 
REMARK   12  A    between atoms: C_24  and  N_32 
REMARK   13  A    between atoms: O_41  and  C_25 
REMARK   14  A    between atoms: O_42  and  C_26 
REMARK   15  A    between atoms: N_40  and  C_27 
REMARK   16  A    between atoms: C_27  and  O_43 
REMARK   17  A    between atoms: C_28  and  O_44 
REMARK   18  A    between atoms: O_46  and  C_28 
REMARK   19  A    between atoms: C_29  and  O_45 
REMARK   20  A    between atoms: O_47  and  C_29 
REMARK   21  A    between atoms: N_34  and  N_38 
REMARK   22  A    between atoms: N_36  and  N_40 
ROOT
HETATM    1  C   UNK N   1      20.799  20.491   2.011  0.00  0.00     0.251 C 
HETATM    2  N   UNK N   1      22.086  20.569   2.128  0.00  0.00    -0.262 N 
ATOM      3  HN  UNK N   1      22.573  21.185   1.477  1.00  0.00     0.190 HD
ENDROOT
BRANCH   1   4
HETATM    4  N   UNK N   1      19.982  19.731   2.891  0.00  0.00    -0.262 N 
HETATM    5  H   UNK N   1      19.539  20.190   3.640  0.00  0.00     0.190 HD
BRANCH   4   6
HETATM    6  N   UNK N   1      19.787  18.377   2.736  0.00  0.00    -0.279 N 
HETATM    7  C   UNK N   1      20.236  17.577   3.647  0.00  0.00     0.153 C 
ATOM      8  HN  UNK N   1      19.297  18.013   1.919  1.00  0.00     0.189 HD
BRANCH   7   9
HETATM    9  C   UNK N   1      20.069  16.067   3.561  0.00  0.00     0.162 C 
BRANCH   9  10
HETATM   10  C   UNK N   1      20.495  15.503   2.201  0.00  0.00     0.037 C 
BRANCH  10  11
HETATM   11  C   UNK N   1      19.679  14.275   1.774  0.00  0.00    -0.020 C 
HETATM   12  C   UNK N   1      20.613  13.103   1.566  0.00  0.00     0.009 C 
HETATM   13  C   UNK N   1      18.899  14.504   0.488  0.00  0.00     0.009 C 
ENDBRANCH  10  11
ENDBRANCH   9  10
BRANCH   9  14
HETATM   14  N   UNK N   1      20.851  15.433   4.609  0.00  0.00    -0.338 N 
HETATM   15  C   UNK N   1      20.370  14.595   5.464  0.00  0.00     0.259 C 
ATOM     16  HN  UNK N   1      21.843  15.666   4.672  1.00  0.00     0.164 HD
BRANCH  15  17
HETATM   17  O   UNK N   1      19.088  14.176   5.378  0.00  0.00    -0.327 OA
HETATM   18  H   UNK N   1      18.178  14.050   5.194  0.00  0.00     0.221 HD
ENDBRANCH  15  17
BRANCH  15  19
HETATM   19  O   UNK N   1      21.144  14.194   6.498  0.00  0.00    -0.312 OA
BRANCH  19  20
HETATM   20  C   UNK N   1      20.705  14.271   7.806  0.00  0.00     0.218 C 
BRANCH  20  21
HETATM   21  C   UNK N   1      21.463  13.322   8.705  0.00  0.00    -0.034 A 
HETATM   22  C   UNK N   1      22.427  12.474   8.150  0.00  0.00     0.009 A 
HETATM   23  C   UNK N   1      23.130  11.579   8.964  0.00  0.00     0.001 A 
HETATM   24  C   UNK N   1      22.870  11.526  10.338  0.00  0.00     0.000 A 
HETATM   25  C   UNK N   1      21.912  12.369  10.900  0.00  0.00     0.001 A 
HETATM   26  C   UNK N   1      21.214  13.265  10.088  0.00  0.00     0.009 A 
ENDBRANCH  20  21
ENDBRANCH  19  20
ENDBRANCH  15  19
ENDBRANCH   9  14
ENDBRANCH   7   9
BRANCH   7  27
HETATM   27  O   UNK N   1      20.920  18.090   4.692  0.00  0.00    -0.347 OA
HETATM   28  H   UNK N   1      21.800  18.371   4.848  0.00  0.00     0.219 HD
ENDBRANCH   7  27
ENDBRANCH   4   6
ENDBRANCH   1   4
BRANCH   1  29
HETATM   29  O   UNK N   1      20.207  21.138   0.991  0.00  0.00    -0.330 OA
HETATM   30  H   UNK N   1      20.713  21.686   0.423  0.00  0.00     0.221 HD
ENDBRANCH   1  29
BRANCH   2  31
HETATM   31  N   UNK N   1      22.859  19.897   3.054  0.00  0.00    -0.279 N 
HETATM   32  C   UNK N   1      24.140  20.041   3.169  0.00  0.00     0.153 C 
ATOM     33  HN  UNK N   1      22.392  19.247   3.686  1.00  0.00     0.189 HD
BRANCH  32  34
HETATM   34  C   UNK N   1      24.867  19.331   4.275  0.00  0.00     0.162 C 
BRANCH  34  35
HETATM   35  C   UNK N   1      25.510  20.342   5.239  0.00  0.00     0.037 C 
BRANCH  35  36
HETATM   36  C   UNK N   1      27.003  20.133   5.548  0.00  0.00    -0.020 C 
HETATM   37  C   UNK N   1      27.648  21.297   6.278  0.00  0.00     0.009 C 
HETATM   38  C   UNK N   1      27.796  19.778   4.304  0.00  0.00     0.009 C 
ENDBRANCH  35  36
ENDBRANCH  34  35
BRANCH  34  39
HETATM   39  N   UNK N   1      23.915  18.529   5.023  0.00  0.00    -0.338 N 
HETATM   40  C   UNK N   1      24.111  17.301   5.360  0.00  0.00     0.259 C 
ATOM     41  HN  UNK N   1      23.035  18.966   5.299  1.00  0.00     0.164 HD
BRANCH  40  42
HETATM   42  O   UNK N   1      23.170  16.658   6.079  0.00  0.00    -0.327 OA
HETATM   43  H   UNK N   1      22.284  16.403   5.913  0.00  0.00     0.221 HD
ENDBRANCH  40  42
BRANCH  40  44
HETATM   44  O   UNK N   1      25.242  16.657   4.974  0.00  0.00    -0.312 OA
BRANCH  44  45
HETATM   45  C   UNK N   1      25.962  15.808   5.788  0.00  0.00     0.218 C 
BRANCH  45  46
HETATM   46  C   UNK N   1      27.314  16.358   6.103  0.00  0.00    -0.034 A 
HETATM   47  C   UNK N   1      28.371  16.209   5.196  0.00  0.00     0.009 A 
HETATM   48  C   UNK N   1      29.637  16.710   5.507  0.00  0.00     0.001 A 
HETATM   49  C   UNK N   1      29.854  17.347   6.733  0.00  0.00     0.000 A 
HETATM   50  C   UNK N   1      28.802  17.489   7.644  0.00  0.00     0.001 A 
HETATM   51  C   UNK N   1      27.533  16.998   7.328  0.00  0.00     0.009 A 
ENDBRANCH  45  46
ENDBRANCH  44  45
ENDBRANCH  40  44
ENDBRANCH  34  39
ENDBRANCH  32  34
BRANCH  32  52
HETATM   52  O   UNK N   1      24.830  20.852   2.340  0.00  0.00    -0.347 OA
HETATM   53  H   UNK N   1      25.478  21.445   2.011  0.00  0.00     0.219 HD
ENDBRANCH  32  52
ENDBRANCH   2  31
TORSDOF 22
ENDMDL
MODEL 4
REMARK VINA RESULT:      -8.0      1.750      2.597
REMARK  22 active torsions:
REMARK  status: ('A' for Active; 'I' for Inactive)
REMARK    1  A    between atoms: C_19  and  C_15 
REMARK    2  A    between atoms: C_23  and  C_15 
REMARK    3  A    between atoms: C_20  and  C_16 
REMARK    4  A    between atoms: C_24  and  C_16 
REMARK    5  A    between atoms: C_21  and  C_17 
REMARK    6  A    between atoms: O_46  and  C_17 
REMARK    7  A    between atoms: C_22  and  C_18 
REMARK    8  A    between atoms: O_47  and  C_18 
REMARK    9  A    between atoms: C_25  and  C_23 
REMARK   10  A    between atoms: C_23  and  N_30 
REMARK   11  A    between atoms: C_26  and  C_24 
REMARK   12  A    between atoms: C_24  and  N_32 
REMARK   13  A    between atoms: O_41  and  C_25 
REMARK   14  A    between atoms: O_42  and  C_26 
REMARK   15  A    between atoms: N_40  and  C_27 
REMARK   16  A    between atoms: C_27  and  O_43 
REMARK   17  A    between atoms: C_28  and  O_44 
REMARK   18  A    between atoms: O_46  and  C_28 
REMARK   19  A    between atoms: C_29  and  O_45 
REMARK   20  A    between atoms: O_47  and  C_29 
REMARK   21  A    between atoms: N_34  and  N_38 
REMARK   22  A    between atoms: N_36  and  N_40 
ROOT
HETATM    1  C   UNK N   1      35.771  15.912  10.338  0.00  0.00     0.251 C 
HETATM    2  N   UNK N   1      35.150  17.014  10.065  0.00  0.00    -0.262 N 
ATOM      3  HN  UNK N   1      35.658  17.884  10.228  1.00  0.00     0.190 HD
ENDROOT
BRANCH   1   4
HETATM    4  N   UNK N   1      35.217  14.626  10.096  0.00  0.00    -0.262 N 
HETATM    5  H   UNK N   1      34.992  14.373   9.171  0.00  0.00     0.190 HD
BRANCH   4   6
HETATM    6  N   UNK N   1      34.980  13.719  11.104  0.00  0.00    -0.279 N 
HETATM    7  C   UNK N   1      35.223  12.469  10.884  0.00  0.00     0.153 C 
ATOM      8  HN  UNK N   1      34.622  14.028  12.007  1.00  0.00     0.189 HD
BRANCH   7   9
HETATM    9  C   UNK N   1      34.991  11.394  11.936  0.00  0.00     0.162 C 
BRANCH   9  10
HETATM   10  C   UNK N   1      36.070  10.306  11.914  0.00  0.00     0.037 C 
BRANCH  10  11
HETATM   11  C   UNK N   1      35.501   8.895  11.701  0.00  0.00    -0.020 C 
HETATM   12  C   UNK N   1      34.103   9.002  11.134  0.00  0.00     0.009 C 
HETATM   13  C   UNK N   1      35.440   8.085  12.986  0.00  0.00     0.009 C 
ENDBRANCH  10  11
ENDBRANCH   9  10
BRANCH   9  14
HETATM   14  N   UNK N   1      34.955  12.006  13.253  0.00  0.00    -0.338 N 
HETATM   15  C   UNK N   1      34.133  11.664  14.187  0.00  0.00     0.259 C 
ATOM     16  HN  UNK N   1      35.620  12.753  13.452  1.00  0.00     0.164 HD
BRANCH  15  17
HETATM   17  O   UNK N   1      33.287  10.622  14.019  0.00  0.00    -0.327 OA
HETATM   18  H   UNK N   1      32.723   9.945  13.703  0.00  0.00     0.221 HD
ENDBRANCH  15  17
BRANCH  15  19
HETATM   19  O   UNK N   1      34.071  12.409  15.315  0.00  0.00    -0.312 OA
BRANCH  19  20
HETATM   20  C   UNK N   1      35.010  12.281  16.320  0.00  0.00     0.218 C 
BRANCH  20  21
HETATM   21  C   UNK N   1      35.788  13.561  16.521  0.00  0.00    -0.034 A 
HETATM   22  C   UNK N   1      35.616  14.292  17.701  0.00  0.00     0.009 A 
HETATM   23  C   UNK N   1      36.318  15.486  17.898  0.00  0.00     0.001 A 
HETATM   24  C   UNK N   1      37.195  15.957  16.915  0.00  0.00     0.000 A 
HETATM   25  C   UNK N   1      37.374  15.234  15.735  0.00  0.00     0.001 A 
HETATM   26  C   UNK N   1      36.676  14.040  15.541  0.00  0.00     0.009 A 
ENDBRANCH  20  21
ENDBRANCH  19  20
ENDBRANCH  15  19
ENDBRANCH   9  14
ENDBRANCH   7   9
BRANCH   7  27
HETATM   27  O   UNK N   1      35.655  12.089   9.661  0.00  0.00    -0.347 OA
HETATM   28  H   UNK N   1      36.159  11.379   9.317  0.00  0.00     0.219 HD
ENDBRANCH   7  27
ENDBRANCH   4   6
ENDBRANCH   1   4
BRANCH   1  29
HETATM   29  O   UNK N   1      36.989  15.984  10.904  0.00  0.00    -0.330 OA
HETATM   30  H   UNK N   1      37.149  15.575  11.732  0.00  0.00     0.221 HD
ENDBRANCH   1  29
BRANCH   2  31
HETATM   31  N   UNK N   1      33.865  17.122   9.572  0.00  0.00    -0.279 N 
HETATM   32  C   UNK N   1      33.536  17.858   8.560  0.00  0.00     0.153 C 
ATOM     33  HN  UNK N   1      33.129  16.589  10.035  1.00  0.00     0.189 HD
BRANCH  32  34
HETATM   34  C   UNK N   1      32.123  17.824   8.051  0.00  0.00     0.162 C 
BRANCH  34  35
HETATM   35  C   UNK N   1      32.002  16.874   6.848  0.00  0.00     0.037 C 
BRANCH  35  36
HETATM   36  C   UNK N   1      32.706  17.319   5.554  0.00  0.00    -0.020 C 
HETATM   37  C   UNK N   1      31.755  17.617   4.409  0.00  0.00     0.009 C 
HETATM   38  C   UNK N   1      33.773  16.332   5.120  0.00  0.00     0.009 C 
ENDBRANCH  35  36
ENDBRANCH  34  35
BRANCH  34  39
HETATM   39  N   UNK N   1      31.255  17.338   9.107  0.00  0.00    -0.338 N 
HETATM   40  C   UNK N   1      30.062  17.775   9.320  0.00  0.00     0.259 C 
ATOM     41  HN  UNK N   1      31.612  16.604   9.720  1.00  0.00     0.164 HD
BRANCH  40  42
HETATM   42  O   UNK N   1      29.330  17.232  10.314  0.00  0.00    -0.327 OA
HETATM   43  H   UNK N   1      28.543  16.725  10.342  0.00  0.00     0.221 HD
ENDBRANCH  40  42
BRANCH  40  44
HETATM   44  O   UNK N   1      29.557  18.785   8.568  0.00  0.00    -0.312 OA
BRANCH  44  45
HETATM   45  C   UNK N   1      28.271  18.809   8.071  0.00  0.00     0.218 C 
BRANCH  45  46
HETATM   46  C   UNK N   1      28.201  18.238   6.692  0.00  0.00    -0.034 A 
HETATM   47  C   UNK N   1      28.262  16.853   6.493  0.00  0.00     0.009 A 
HETATM   48  C   UNK N   1      28.215  16.329   5.199  0.00  0.00     0.001 A 
HETATM   49  C   UNK N   1      28.122  17.189   4.100  0.00  0.00     0.000 A 
HETATM   50  C   UNK N   1      28.070  18.572   4.297  0.00  0.00     0.001 A 
HETATM   51  C   UNK N   1      28.106  19.096   5.592  0.00  0.00     0.009 A 
ENDBRANCH  45  46
ENDBRANCH  44  45
ENDBRANCH  40  44
ENDBRANCH  34  39
ENDBRANCH  32  34
BRANCH  32  52
HETATM   52  O   UNK N   1      34.449  18.622   7.924  0.00  0.00    -0.347 OA
HETATM   53  H   UNK N   1      35.257  18.918   7.552  0.00  0.00     0.219 HD
ENDBRANCH  32  52
ENDBRANCH   2  31
TORSDOF 22
ENDMDL
MODEL 5
REMARK VINA RESULT:      -8.0      2.386     10.649
REMARK  22 active torsions:
REMARK  status: ('A' for Active; 'I' for Inactive)
REMARK    1  A    between atoms: C_19  and  C_15 
REMARK    2  A    between atoms: C_23  and  C_15 
REMARK    3  A    between atoms: C_20  and  C_16 
REMARK    4  A    between atoms: C_24  and  C_16 
REMARK    5  A    between atoms: C_21  and  C_17 
REMARK    6  A    between atoms: O_46  and  C_17 
REMARK    7  A    between atoms: C_22  and  C_18 
REMARK    8  A    between atoms: O_47  and  C_18 
REMARK    9  A    between atoms: C_25  and  C_23 
REMARK   10  A    between atoms: C_23  and  N_30 
REMARK   11  A    between atoms: C_26  and  C_24 
REMARK   12  A    between atoms: C_24  and  N_32 
REMARK   13  A    between atoms: O_41  and  C_25 
REMARK   14  A    between atoms: O_42  and  C_26 
REMARK   15  A    between atoms: N_40  and  C_27 
REMARK   16  A    between atoms: C_27  and  O_43 
REMARK   17  A    between atoms: C_28  and  O_44 
REMARK   18  A    between atoms: O_46  and  C_28 
REMARK   19  A    between atoms: C_29  and  O_45 
REMARK   20  A    between atoms: O_47  and  C_29 
REMARK   21  A    between atoms: N_34  and  N_38 
REMARK   22  A    between atoms: N_36  and  N_40 
ROOT
HETATM    1  C   UNK N   1      34.616  17.277   9.098  0.00  0.00     0.251 C 
HETATM    2  N   UNK N   1      34.951  17.169  10.343  0.00  0.00    -0.262 N 
ATOM      3  HN  UNK N   1      34.769  17.975  10.943  1.00  0.00     0.190 HD
ENDROOT
BRANCH   1   4
HETATM    4  N   UNK N   1      34.744  16.214   8.163  0.00  0.00    -0.262 N 
HETATM    5  H   UNK N   1      35.455  15.547   8.299  0.00  0.00     0.190 HD
BRANCH   4   6
HETATM    6  N   UNK N   1      33.912  16.082   7.075  0.00  0.00    -0.279 N 
HETATM    7  C   UNK N   1      34.430  15.766   5.933  0.00  0.00     0.153 C 
ATOM      8  HN  UNK N   1      32.907  16.229   7.167  1.00  0.00     0.189 HD
BRANCH   7   9
HETATM    9  C   UNK N   1      33.592  15.599   4.674  0.00  0.00     0.162 C 
BRANCH   9  10
HETATM   10  C   UNK N   1      33.722  14.200   4.061  0.00  0.00     0.037 C 
BRANCH  10  11
HETATM   11  C   UNK N   1      33.440  14.174   2.551  0.00  0.00    -0.020 C 
HETATM   12  C   UNK N   1      32.294  13.226   2.275  0.00  0.00     0.009 C 
HETATM   13  C   UNK N   1      34.643  13.728   1.735  0.00  0.00     0.009 C 
ENDBRANCH  10  11
ENDBRANCH   9  10
BRANCH   9  14
HETATM   14  N   UNK N   1      32.196  15.857   4.984  0.00  0.00    -0.338 N 
HETATM   15  C   UNK N   1      31.488  16.775   4.419  0.00  0.00     0.259 C 
ATOM     16  HN  UNK N   1      31.748  15.277   5.694  1.00  0.00     0.164 HD
BRANCH  15  17
HETATM   17  O   UNK N   1      31.993  17.518   3.408  0.00  0.00    -0.327 OA
HETATM   18  H   UNK N   1      32.215  18.177   2.781  0.00  0.00     0.221 HD
ENDBRANCH  15  17
BRANCH  15  19
HETATM   19  O   UNK N   1      30.251  17.041   4.899  0.00  0.00    -0.312 OA
BRANCH  19  20
HETATM   20  C   UNK N   1      29.691  16.292   5.916  0.00  0.00     0.218 C 
BRANCH  20  21
HETATM   21  C   UNK N   1      29.558  17.096   7.189  0.00  0.00    -0.034 A 
HETATM   22  C   UNK N   1      30.710  17.534   7.848  0.00  0.00     0.009 A 
HETATM   23  C   UNK N   1      30.607  18.268   9.035  0.00  0.00     0.001 A 
HETATM   24  C   UNK N   1      29.349  18.565   9.571  0.00  0.00     0.000 A 
HETATM   25  C   UNK N   1      28.194  18.133   8.919  0.00  0.00     0.001 A 
HETATM   26  C   UNK N   1      28.297  17.405   7.732  0.00  0.00     0.009 A 
ENDBRANCH  20  21
ENDBRANCH  19  20
ENDBRANCH  15  19
ENDBRANCH   9  14
ENDBRANCH   7   9
BRANCH   7  27
HETATM   27  O   UNK N   1      35.770  15.623   5.837  0.00  0.00    -0.347 OA
HETATM   28  H   UNK N   1      36.507  15.810   6.383  0.00  0.00     0.219 HD
ENDBRANCH   7  27
ENDBRANCH   4   6
ENDBRANCH   1   4
BRANCH   1  29
HETATM   29  O   UNK N   1      34.150  18.460   8.658  0.00  0.00    -0.330 OA
HETATM   30  H   UNK N   1      33.682  19.027   9.238  0.00  0.00     0.221 HD
ENDBRANCH   1  29
BRANCH   2  31
HETATM   31  N   UNK N   1      35.530  16.065  10.937  0.00  0.00    -0.279 N 
HETATM   32  C   UNK N   1      34.865  15.041  11.365  0.00  0.00     0.153 C 
ATOM     33  HN  UNK N   1      36.544  16.056  11.044  1.00  0.00     0.189 HD
BRANCH  32  34
HETATM   34  C   UNK N   1      35.607  13.853  11.907  0.00  0.00     0.162 C 
BRANCH  34  35
HETATM   35  C   UNK N   1      36.398  13.150  10.790  0.00  0.00     0.037 C 
BRANCH  35  36
HETATM   36  C   UNK N   1      36.177  11.634  10.650  0.00  0.00    -0.020 C 
HETATM   37  C   UNK N   1      34.733  11.246  10.383  0.00  0.00     0.009 C 
HETATM   38  C   UNK N   1      36.725  10.868  11.838  0.00  0.00     0.009 C 
ENDBRANCH  35  36
ENDBRANCH  34  35
BRANCH  34  39
HETATM   39  N   UNK N   1      36.548  14.307  12.916  0.00  0.00    -0.338 N 
HETATM   40  C   UNK N   1      36.376  14.156  14.183  0.00  0.00     0.259 C 
ATOM     41  HN  UNK N   1      37.397  14.775  12.600  1.00  0.00     0.164 HD
BRANCH  40  42
HETATM   42  O   UNK N   1      37.327  14.592  15.033  0.00  0.00    -0.327 OA
HETATM   43  H   UNK N   1      38.164  14.265  15.298  0.00  0.00     0.221 HD
ENDBRANCH  40  42
BRANCH  40  44
HETATM   44  O   UNK N   1      35.239  13.586  14.659  0.00  0.00    -0.312 OA
BRANCH  44  45
HETATM   45  C   UNK N   1      35.164  12.295  15.135  0.00  0.00     0.218 C 
BRANCH  45  46
HETATM   46  C   UNK N   1      35.263  12.248  16.626  0.00  0.00    -0.034 A 
HETATM   47  C   UNK N   1      35.535  11.041  17.282  0.00  0.00     0.009 A 
HETATM   48  C   UNK N   1      35.607  11.004  18.677  0.00  0.00     0.001 A 
HETATM   49  C   UNK N   1      35.390  12.169  19.418  0.00  0.00     0.000 A 
HETATM   50  C   UNK N   1      35.110  13.373  18.765  0.00  0.00     0.001 A 
HETATM   51  C   UNK N   1      35.049  13.413  17.369  0.00  0.00     0.009 A 
ENDBRANCH  45  46
ENDBRANCH  44  45
ENDBRANCH  40  44
ENDBRANCH  34  39
ENDBRANCH  32  34
BRANCH  32  52
HETATM   52  O   UNK N   1      33.518  15.001  11.293  0.00  0.00    -0.347 OA
HETATM   53  H   UNK N   1      32.613  15.185  11.455  0.00  0.00     0.219 HD
ENDBRANCH  32  52
ENDBRANCH   2  31
TORSDOF 22
ENDMDL
MODEL 6
REMARK VINA RESULT:      -7.9      2.096     12.021
REMARK  22 active torsions:
REMARK  status: ('A' for Active; 'I' for Inactive)
REMARK    1  A    between atoms: C_19  and  C_15 
REMARK    2  A    between atoms: C_23  and  C_15 
REMARK    3  A    between atoms: C_20  and  C_16 
REMARK    4  A    between atoms: C_24  and  C_16 
REMARK    5  A    between atoms: C_21  and  C_17 
REMARK    6  A    between atoms: O_46  and  C_17 
REMARK    7  A    between atoms: C_22  and  C_18 
REMARK    8  A    between atoms: O_47  and  C_18 
REMARK    9  A    between atoms: C_25  and  C_23 
REMARK   10  A    between atoms: C_23  and  N_30 
REMARK   11  A    between atoms: C_26  and  C_24 
REMARK   12  A    between atoms: C_24  and  N_32 
REMARK   13  A    between atoms: O_41  and  C_25 
REMARK   14  A    between atoms: O_42  and  C_26 
REMARK   15  A    between atoms: N_40  and  C_27 
REMARK   16  A    between atoms: C_27  and  O_43 
REMARK   17  A    between atoms: C_28  and  O_44 
REMARK   18  A    between atoms: O_46  and  C_28 
REMARK   19  A    between atoms: C_29  and  O_45 
REMARK   20  A    between atoms: O_47  and  C_29 
REMARK   21  A    between atoms: N_34  and  N_38 
REMARK   22  A    between atoms: N_36  and  N_40 
ROOT
HETATM    1  C   UNK N   1      34.545  17.361   8.946  0.00  0.00     0.251 C 
HETATM    2  N   UNK N   1      34.682  17.286  10.230  0.00  0.00    -0.262 N 
ATOM      3  HN  UNK N   1      34.758  18.168  10.739  1.00  0.00     0.190 HD
ENDROOT
BRANCH   1   4
HETATM    4  N   UNK N   1      34.356  16.223   8.116  0.00  0.00    -0.262 N 
HETATM    5  H   UNK N   1      34.662  15.345   8.440  0.00  0.00     0.190 HD
BRANCH   4   6
HETATM    6  N   UNK N   1      33.763  16.299   6.877  0.00  0.00    -0.279 N 
HETATM    7  C   UNK N   1      32.497  16.056   6.779  0.00  0.00     0.153 C 
ATOM      8  HN  UNK N   1      34.311  16.543   6.052  1.00  0.00     0.189 HD
BRANCH   7   9
HETATM    9  C   UNK N   1      31.755  16.115   5.452  0.00  0.00     0.162 C 
BRANCH   9  10
HETATM   10  C   UNK N   1      31.945  14.845   4.614  0.00  0.00     0.037 C 
BRANCH  10  11
HETATM   11  C   UNK N   1      32.774  15.079   3.342  0.00  0.00    -0.020 C 
HETATM   12  C   UNK N   1      34.117  14.401   3.490  0.00  0.00     0.009 C 
HETATM   13  C   UNK N   1      33.007  16.555   3.055  0.00  0.00     0.009 C 
ENDBRANCH  10  11
ENDBRANCH   9  10
BRANCH   9  14
HETATM   14  N   UNK N   1      30.337  16.318   5.697  0.00  0.00    -0.338 N 
HETATM   15  C   UNK N   1      29.642  17.270   5.173  0.00  0.00     0.259 C 
ATOM     16  HN  UNK N   1      29.863  15.669   6.325  1.00  0.00     0.164 HD
BRANCH  15  17
HETATM   17  O   UNK N   1      30.188  18.109   4.264  0.00  0.00    -0.327 OA
HETATM   18  H   UNK N   1      30.724  18.696   3.769  0.00  0.00     0.221 HD
ENDBRANCH  15  17
BRANCH  15  19
HETATM   19  O   UNK N   1      28.373  17.468   5.598  0.00  0.00    -0.312 OA
BRANCH  19  20
HETATM   20  C   UNK N   1      27.894  18.732   5.888  0.00  0.00     0.218 C 
BRANCH  20  21
HETATM   21  C   UNK N   1      26.848  19.173   4.890  0.00  0.00    -0.034 A 
HETATM   22  C   UNK N   1      27.150  20.199   3.988  0.00  0.00     0.009 A 
HETATM   23  C   UNK N   1      26.190  20.629   3.066  0.00  0.00     0.001 A 
HETATM   24  C   UNK N   1      24.922  20.038   3.042  0.00  0.00     0.000 A 
HETATM   25  C   UNK N   1      24.614  19.013   3.938  0.00  0.00     0.001 A 
HETATM   26  C   UNK N   1      25.573  18.581   4.855  0.00  0.00     0.009 A 
ENDBRANCH  20  21
ENDBRANCH  19  20
ENDBRANCH  15  19
ENDBRANCH   9  14
ENDBRANCH   7   9
BRANCH   7  27
HETATM   27  O   UNK N   1      31.811  15.692   7.884  0.00  0.00    -0.347 OA
HETATM   28  H   UNK N   1      31.997  15.202   8.660  0.00  0.00     0.219 HD
ENDBRANCH   7  27
ENDBRANCH   4   6
ENDBRANCH   1   4
BRANCH   1  29
HETATM   29  O   UNK N   1      34.610  18.571   8.361  0.00  0.00    -0.330 OA
HETATM   30  H   UNK N   1      33.849  19.116   8.321  0.00  0.00     0.221 HD
ENDBRANCH   1  29
BRANCH   2  31
HETATM   31  N   UNK N   1      34.734  16.126  10.976  0.00  0.00    -0.279 N 
HETATM   32  C   UNK N   1      35.833  15.557  11.356  0.00  0.00     0.153 C 
ATOM     33  HN  UNK N   1      33.852  15.690  11.245  1.00  0.00     0.189 HD
BRANCH  32  34
HETATM   34  C   UNK N   1      35.770  14.349  12.246  0.00  0.00     0.162 C 
BRANCH  34  35
HETATM   35  C   UNK N   1      36.133  13.077  11.462  0.00  0.00     0.037 C 
BRANCH  35  36
HETATM   36  C   UNK N   1      37.579  12.574  11.612  0.00  0.00    -0.020 C 
HETATM   37  C   UNK N   1      38.471  12.906  10.428  0.00  0.00     0.009 C 
HETATM   38  C   UNK N   1      37.635  11.091  11.924  0.00  0.00     0.009 C 
ENDBRANCH  35  36
ENDBRANCH  34  35
BRANCH  34  39
HETATM   39  N   UNK N   1      36.728  14.510  13.325  0.00  0.00    -0.338 N 
HETATM   40  C   UNK N   1      36.582  14.004  14.501  0.00  0.00     0.259 C 
ATOM     41  HN  UNK N   1      37.568  15.057  13.140  1.00  0.00     0.164 HD
BRANCH  40  42
HETATM   42  O   UNK N   1      37.549  14.193  15.422  0.00  0.00    -0.327 OA
HETATM   43  H   UNK N   1      38.140  14.895  15.612  0.00  0.00     0.221 HD
ENDBRANCH  40  42
BRANCH  40  44
HETATM   44  O   UNK N   1      35.459  13.311  14.816  0.00  0.00    -0.312 OA
BRANCH  44  45
HETATM   45  C   UNK N   1      34.723  13.514  15.964  0.00  0.00     0.218 C 
BRANCH  45  46
HETATM   46  C   UNK N   1      35.123  12.571  17.052  0.00  0.00    -0.034 A 
HETATM   47  C   UNK N   1      35.082  12.975  18.393  0.00  0.00     0.009 A 
HETATM   48  C   UNK N   1      35.476  12.093  19.402  0.00  0.00     0.001 A 
HETATM   49  C   UNK N   1      35.927  10.811  19.071  0.00  0.00     0.000 A 
HETATM   50  C   UNK N   1      35.978  10.410  17.733  0.00  0.00     0.001 A 
HETATM   51  C   UNK N   1      35.573  11.288  16.724  0.00  0.00     0.009 A 
ENDBRANCH  45  46
ENDBRANCH  44  45
ENDBRANCH  40  44
ENDBRANCH  34  39
ENDBRANCH  32  34
BRANCH  32  52
HETATM   52  O   UNK N   1      37.037  16.055  11.003  0.00  0.00    -0.347 OA
HETATM   53  H   UNK N   1      37.949  16.271  11.017  0.00  0.00     0.219 HD
ENDBRANCH  32  52
ENDBRANCH   2  31
TORSDOF 22
ENDMDL
MODEL 7
REMARK VINA RESULT:      -7.9      1.715      4.716
REMARK  22 active torsions:
REMARK  status: ('A' for Active; 'I' for Inactive)
REMARK    1  A    between atoms: C_19  and  C_15 
REMARK    2  A    between atoms: C_23  and  C_15 
REMARK    3  A    between atoms: C_20  and  C_16 
REMARK    4  A    between atoms: C_24  and  C_16 
REMARK    5  A    between atoms: C_21  and  C_17 
REMARK    6  A    between atoms: O_46  and  C_17 
REMARK    7  A    between atoms: C_22  and  C_18 
REMARK    8  A    between atoms: O_47  and  C_18 
REMARK    9  A    between atoms: C_25  and  C_23 
REMARK   10  A    between atoms: C_23  and  N_30 
REMARK   11  A    between atoms: C_26  and  C_24 
REMARK   12  A    between atoms: C_24  and  N_32 
REMARK   13  A    between atoms: O_41  and  C_25 
REMARK   14  A    between atoms: O_42  and  C_26 
REMARK   15  A    between atoms: N_40  and  C_27 
REMARK   16  A    between atoms: C_27  and  O_43 
REMARK   17  A    between atoms: C_28  and  O_44 
REMARK   18  A    between atoms: O_46  and  C_28 
REMARK   19  A    between atoms: C_29  and  O_45 
REMARK   20  A    between atoms: O_47  and  C_29 
REMARK   21  A    between atoms: N_34  and  N_38 
REMARK   22  A    between atoms: N_36  and  N_40 
ROOT
HETATM    1  C   UNK N   1      35.697  16.289  10.712  0.00  0.00     0.251 C 
HETATM    2  N   UNK N   1      35.269  16.939   9.678  0.00  0.00    -0.262 N 
ATOM      3  HN  UNK N   1      35.974  17.321   9.046  1.00  0.00     0.190 HD
ENDROOT
BRANCH   1   4
HETATM    4  N   UNK N   1      34.833  15.644  11.637  0.00  0.00    -0.262 N 
HETATM    5  H   UNK N   1      34.093  16.158  12.033  0.00  0.00     0.190 HD
BRANCH   4   6
HETATM    6  N   UNK N   1      34.991  14.326  12.002  0.00  0.00    -0.279 N 
HETATM    7  C   UNK N   1      35.799  14.043  12.970  0.00  0.00     0.153 C 
ATOM      8  HN  UNK N   1      34.479  13.588  11.519  1.00  0.00     0.189 HD
BRANCH   7   9
HETATM    9  C   UNK N   1      36.039  12.616  13.443  0.00  0.00     0.162 C 
BRANCH   9  10
HETATM   10  C   UNK N   1      34.798  11.994  14.093  0.00  0.00     0.037 C 
BRANCH  10  11
HETATM   11  C   UNK N   1      34.963  11.751  15.600  0.00  0.00    -0.020 C 
HETATM   12  C   UNK N   1      34.805  13.062  16.337  0.00  0.00     0.009 C 
HETATM   13  C   UNK N   1      36.318  11.158  15.955  0.00  0.00     0.009 C 
ENDBRANCH  10  11
ENDBRANCH   9  10
BRANCH   9  14
HETATM   14  N   UNK N   1      36.453  11.796  12.317  0.00  0.00    -0.338 N 
HETATM   15  C   UNK N   1      37.318  12.162  11.434  0.00  0.00     0.259 C 
ATOM     16  HN  UNK N   1      36.031  10.872  12.219  1.00  0.00     0.164 HD
BRANCH  15  17
HETATM   17  O   UNK N   1      37.980  13.335  11.557  0.00  0.00    -0.327 OA
HETATM   18  H   UNK N   1      38.604  14.032  11.598  0.00  0.00     0.221 HD
ENDBRANCH  15  17
BRANCH  15  19
HETATM   19  O   UNK N   1      37.506  11.393  10.337  0.00  0.00    -0.312 OA
BRANCH  19  20
HETATM   20  C   UNK N   1      37.384  11.907   9.061  0.00  0.00     0.218 C 
BRANCH  20  21
HETATM   21  C   UNK N   1      35.952  12.271   8.742  0.00  0.00    -0.034 A 
HETATM   22  C   UNK N   1      35.659  13.553   8.267  0.00  0.00     0.009 A 
HETATM   23  C   UNK N   1      34.338  13.912   7.979  0.00  0.00     0.001 A 
HETATM   24  C   UNK N   1      33.302  12.991   8.168  0.00  0.00     0.000 A 
HETATM   25  C   UNK N   1      33.586  11.709   8.640  0.00  0.00     0.001 A 
HETATM   26  C   UNK N   1      34.905  11.350   8.923  0.00  0.00     0.009 A 
ENDBRANCH  20  21
ENDBRANCH  19  20
ENDBRANCH  15  19
ENDBRANCH   9  14
ENDBRANCH   7   9
BRANCH   7  27
HETATM   27  O   UNK N   1      36.495  15.040  13.558  0.00  0.00    -0.347 OA
HETATM   28  H   UNK N   1      36.474  15.478  14.386  0.00  0.00     0.219 HD
ENDBRANCH   7  27
ENDBRANCH   4   6
ENDBRANCH   1   4
BRANCH   1  29
HETATM   29  O   UNK N   1      37.022  16.244  10.939  0.00  0.00    -0.330 OA
HETATM   30  H   UNK N   1      37.558  15.630  10.476  0.00  0.00     0.221 HD
ENDBRANCH   1  29
BRANCH   2  31
HETATM   31  N   UNK N   1      33.947  17.164   9.349  0.00  0.00    -0.279 N 
HETATM   32  C   UNK N   1      33.548  17.565   8.185  0.00  0.00     0.153 C 
ATOM     33  HN  UNK N   1      33.241  17.002  10.068  1.00  0.00     0.189 HD
BRANCH  32  34
HETATM   34  C   UNK N   1      32.076  17.684   7.911  0.00  0.00     0.162 C 
BRANCH  34  35
HETATM   35  C   UNK N   1      31.499  16.336   7.448  0.00  0.00     0.037 C 
BRANCH  35  36
HETATM   36  C   UNK N   1      31.606  16.030   5.943  0.00  0.00    -0.020 C 
HETATM   37  C   UNK N   1      31.534  17.263   5.060  0.00  0.00     0.009 C 
HETATM   38  C   UNK N   1      30.588  14.995   5.501  0.00  0.00     0.009 C 
ENDBRANCH  35  36
ENDBRANCH  34  35
BRANCH  34  39
HETATM   39  N   UNK N   1      31.399  18.075   9.135  0.00  0.00    -0.338 N 
HETATM   40  C   UNK N   1      30.167  18.445   9.193  0.00  0.00     0.259 C 
ATOM     41  HN  UNK N   1      31.934  18.054  10.003  1.00  0.00     0.164 HD
BRANCH  40  42
HETATM   42  O   UNK N   1      29.631  18.760  10.389  0.00  0.00    -0.327 OA
HETATM   43  H   UNK N   1      29.877  18.596  11.277  0.00  0.00     0.221 HD
ENDBRANCH  40  42
BRANCH  40  44
HETATM   44  O   UNK N   1      29.425  18.539   8.060  0.00  0.00    -0.312 OA
BRANCH  44  45
HETATM   45  C   UNK N   1      28.165  19.096   8.007  0.00  0.00     0.218 C 
BRANCH  45  46
HETATM   46  C   UNK N   1      27.763  19.423   6.606  0.00  0.00    -0.034 A 
HETATM   47  C   UNK N   1      28.114  18.573   5.549  0.00  0.00     0.009 A 
HETATM   48  C   UNK N   1      27.750  18.897   4.240  0.00  0.00     0.001 A 
HETATM   49  C   UNK N   1      27.050  20.079   3.982  0.00  0.00     0.000 A 
HETATM   50  C   UNK N   1      26.706  20.933   5.034  0.00  0.00     0.001 A 
HETATM   51  C   UNK N   1      27.060  20.604   6.346  0.00  0.00     0.009 A 
ENDBRANCH  45  46
ENDBRANCH  44  45
ENDBRANCH  40  44
ENDBRANCH  34  39
ENDBRANCH  32  34
BRANCH  32  52
HETATM   52  O   UNK N   1      34.427  17.838   7.199  0.00  0.00    -0.347 OA
HETATM   53  H   UNK N   1      34.786  18.022   6.353  0.00  0.00     0.219 HD
ENDBRANCH  32  52
ENDBRANCH   2  31
TORSDOF 22
ENDMDL
MODEL 8
REMARK VINA RESULT:      -7.9      4.207      7.271
REMARK  22 active torsions:
REMARK  status: ('A' for Active; 'I' for Inactive)
REMARK    1  A    between atoms: C_19  and  C_15 
REMARK    2  A    between atoms: C_23  and  C_15 
REMARK    3  A    between atoms: C_20  and  C_16 
REMARK    4  A    between atoms: C_24  and  C_16 
REMARK    5  A    between atoms: C_21  and  C_17 
REMARK    6  A    between atoms: O_46  and  C_17 
REMARK    7  A    between atoms: C_22  and  C_18 
REMARK    8  A    between atoms: O_47  and  C_18 
REMARK    9  A    between atoms: C_25  and  C_23 
REMARK   10  A    between atoms: C_23  and  N_30 
REMARK   11  A    between atoms: C_26  and  C_24 
REMARK   12  A    between atoms: C_24  and  N_32 
REMARK   13  A    between atoms: O_41  and  C_25 
REMARK   14  A    between atoms: O_42  and  C_26 
REMARK   15  A    between atoms: N_40  and  C_27 
REMARK   16  A    between atoms: C_27  and  O_43 
REMARK   17  A    between atoms: C_28  and  O_44 
REMARK   18  A    between atoms: O_46  and  C_28 
REMARK   19  A    between atoms: C_29  and  O_45 
REMARK   20  A    between atoms: O_47  and  C_29 
REMARK   21  A    between atoms: N_34  and  N_38 
REMARK   22  A    between atoms: N_36  and  N_40 
ROOT
HETATM    1  C   UNK N   1      35.714  16.114  10.662  0.00  0.00     0.251 C 
HETATM    2  N   UNK N   1      35.259  17.127   9.998  0.00  0.00    -0.262 N 
ATOM      3  HN  UNK N   1      35.911  17.889   9.811  1.00  0.00     0.190 HD
ENDROOT
BRANCH   1   4
HETATM    4  N   UNK N   1      34.943  14.953  10.935  0.00  0.00    -0.262 N 
HETATM    5  H   UNK N   1      34.448  14.901  11.785  0.00  0.00     0.190 HD
BRANCH   4   6
HETATM    6  N   UNK N   1      34.859  13.895  10.058  0.00  0.00    -0.279 N 
HETATM    7  C   UNK N   1      33.758  13.716   9.406  0.00  0.00     0.153 C 
ATOM      8  HN  UNK N   1      35.651  13.267   9.924  1.00  0.00     0.189 HD
BRANCH   7   9
HETATM    9  C   UNK N   1      33.572  12.574   8.416  0.00  0.00     0.162 C 
BRANCH   9  10
HETATM   10  C   UNK N   1      33.015  11.308   9.076  0.00  0.00     0.037 C 
BRANCH  10  11
HETATM   11  C   UNK N   1      33.767  10.033   8.666  0.00  0.00    -0.020 C 
HETATM   12  C   UNK N   1      35.209  10.378   8.370  0.00  0.00     0.009 C 
HETATM   13  C   UNK N   1      33.167   9.366   7.438  0.00  0.00     0.009 C 
ENDBRANCH  10  11
ENDBRANCH   9  10
BRANCH   9  14
HETATM   14  N   UNK N   1      32.674  12.995   7.354  0.00  0.00    -0.338 N 
HETATM   15  C   UNK N   1      32.985  12.995   6.102  0.00  0.00     0.259 C 
ATOM     16  HN  UNK N   1      31.740  13.311   7.615  1.00  0.00     0.164 HD
BRANCH  15  17
HETATM   17  O   UNK N   1      34.173  12.503   5.683  0.00  0.00    -0.327 OA
HETATM   18  H   UNK N   1      34.892  12.122   5.218  0.00  0.00     0.221 HD
ENDBRANCH  15  17
BRANCH  15  19
HETATM   19  O   UNK N   1      32.138  13.563   5.213  0.00  0.00    -0.312 OA
BRANCH  19  20
HETATM   20  C   UNK N   1      31.062  12.870   4.693  0.00  0.00     0.218 C 
BRANCH  20  21
HETATM   21  C   UNK N   1      29.996  13.807   4.173  0.00  0.00    -0.034 A 
HETATM   22  C   UNK N   1      29.018  14.288   5.050  0.00  0.00     0.009 A 
HETATM   23  C   UNK N   1      28.016  15.146   4.584  0.00  0.00     0.001 A 
HETATM   24  C   UNK N   1      27.984  15.525   3.238  0.00  0.00     0.000 A 
HETATM   25  C   UNK N   1      28.956  15.051   2.357  0.00  0.00     0.001 A 
HETATM   26  C   UNK N   1      29.959  14.198   2.823  0.00  0.00     0.009 A 
ENDBRANCH  20  21
ENDBRANCH  19  20
ENDBRANCH  15  19
ENDBRANCH   9  14
ENDBRANCH   7   9
BRANCH   7  27
HETATM   27  O   UNK N   1      32.714  14.540   9.640  0.00  0.00    -0.347 OA
HETATM   28  H   UNK N   1      32.284  14.882  10.399  0.00  0.00     0.219 HD
ENDBRANCH   7  27
ENDBRANCH   4   6
ENDBRANCH   1   4
BRANCH   1  29
HETATM   29  O   UNK N   1      36.970  16.172  11.142  0.00  0.00    -0.330 OA
HETATM   30  H   UNK N   1      37.426  15.384  11.364  0.00  0.00     0.221 HD
ENDBRANCH   1  29
BRANCH   2  31
HETATM   31  N   UNK N   1      33.972  17.273   9.519  0.00  0.00    -0.279 N 
HETATM   32  C   UNK N   1      33.682  17.774   8.361  0.00  0.00     0.153 C 
ATOM     33  HN  UNK N   1      33.202  16.966  10.113  1.00  0.00     0.189 HD
BRANCH  32  34
HETATM   34  C   UNK N   1      32.252  17.796   7.904  0.00  0.00     0.162 C 
BRANCH  34  35
HETATM   35  C   UNK N   1      32.037  16.804   6.748  0.00  0.00     0.037 C 
BRANCH  35  36
HETATM   36  C   UNK N   1      32.291  17.346   5.330  0.00  0.00    -0.020 C 
HETATM   37  C   UNK N   1      31.047  17.395   4.460  0.00  0.00     0.009 C 
HETATM   38  C   UNK N   1      33.406  16.594   4.627  0.00  0.00     0.009 C 
ENDBRANCH  35  36
ENDBRANCH  34  35
BRANCH  34  39
HETATM   39  N   UNK N   1      31.399  17.401   9.010  0.00  0.00    -0.338 N 
HETATM   40  C   UNK N   1      30.139  17.661   9.079  0.00  0.00     0.259 C 
ATOM     41  HN  UNK N   1      31.824  16.885   9.781  1.00  0.00     0.164 HD
BRANCH  40  42
HETATM   42  O   UNK N   1      29.434  17.222  10.141  0.00  0.00    -0.327 OA
HETATM   43  H   UNK N   1      29.587  16.577  10.804  0.00  0.00     0.221 HD
ENDBRANCH  40  42
BRANCH  40  44
HETATM   44  O   UNK N   1      29.534  18.388   8.106  0.00  0.00    -0.312 OA
BRANCH  44  45
HETATM   45  C   UNK N   1      28.559  17.894   7.267  0.00  0.00     0.218 C 
BRANCH  45  46
HETATM   46  C   UNK N   1      27.972  18.967   6.408  0.00  0.00    -0.034 A 
HETATM   47  C   UNK N   1      27.472  20.143   6.982  0.00  0.00     0.009 A 
HETATM   48  C   UNK N   1      26.908  21.132   6.173  0.00  0.00     0.001 A 
HETATM   49  C   UNK N   1      26.829  20.941   4.790  0.00  0.00     0.000 A 
HETATM   50  C   UNK N   1      27.320  19.765   4.216  0.00  0.00     0.001 A 
HETATM   51  C   UNK N   1      27.894  18.779   5.024  0.00  0.00     0.009 A 
ENDBRANCH  45  46
ENDBRANCH  44  45
ENDBRANCH  40  44
ENDBRANCH  34  39
ENDBRANCH  32  34
BRANCH  32  52
HETATM   52  O   UNK N   1      34.646  18.239   7.539  0.00  0.00    -0.347 OA
HETATM   53  H   UNK N   1      35.074  18.652   6.815  0.00  0.00     0.219 HD
ENDBRANCH  32  52
ENDBRANCH   2  31
TORSDOF 22
ENDMDL
MODEL 9
REMARK VINA RESULT:      -7.8     11.264     14.859
REMARK  22 active torsions:
REMARK  status: ('A' for Active; 'I' for Inactive)
REMARK    1  A    between atoms: C_19  and  C_15 
REMARK    2  A    between atoms: C_23  and  C_15 
REMARK    3  A    between atoms: C_20  and  C_16 
REMARK    4  A    between atoms: C_24  and  C_16 
REMARK    5  A    between atoms: C_21  and  C_17 
REMARK    6  A    between atoms: O_46  and  C_17 
REMARK    7  A    between atoms: C_22  and  C_18 
REMARK    8  A    between atoms: O_47  and  C_18 
REMARK    9  A    between atoms: C_25  and  C_23 
REMARK   10  A    between atoms: C_23  and  N_30 
REMARK   11  A    between atoms: C_26  and  C_24 
REMARK   12  A    between atoms: C_24  and  N_32 
REMARK   13  A    between atoms: O_41  and  C_25 
REMARK   14  A    between atoms: O_42  and  C_26 
REMARK   15  A    between atoms: N_40  and  C_27 
REMARK   16  A    between atoms: C_27  and  O_43 
REMARK   17  A    between atoms: C_28  and  O_44 
REMARK   18  A    between atoms: O_46  and  C_28 
REMARK   19  A    between atoms: C_29  and  O_45 
REMARK   20  A    between atoms: O_47  and  C_29 
REMARK   21  A    between atoms: N_34  and  N_38 
REMARK   22  A    between atoms: N_36  and  N_40 
ROOT
HETATM    1  C   UNK N   1      20.814  20.480   1.538  0.00  0.00     0.251 C 
HETATM    2  N   UNK N   1      20.361  19.270   1.466  0.00  0.00    -0.262 N 
ATOM      3  HN  UNK N   1      19.795  19.036   0.651  1.00  0.00     0.190 HD
ENDROOT
BRANCH   1   4
HETATM    4  N   UNK N   1      21.673  20.929   2.577  0.00  0.00    -0.262 N 
HETATM    5  H   UNK N   1      21.285  21.433   3.328  0.00  0.00     0.190 HD
BRANCH   4   6
HETATM    6  N   UNK N   1      23.028  20.685   2.575  0.00  0.00    -0.279 N 
HETATM    7  C   UNK N   1      23.511  19.854   3.440  0.00  0.00     0.153 C 
ATOM      8  HN  UNK N   1      23.639  21.151   1.904  1.00  0.00     0.189 HD
BRANCH   7   9
HETATM    9  C   UNK N   1      24.994  19.524   3.515  0.00  0.00     0.162 C 
BRANCH   9  10
HETATM   10  C   UNK N   1      25.591  19.805   4.899  0.00  0.00     0.037 C 
BRANCH  10  11
HETATM   11  C   UNK N   1      26.883  20.634   4.842  0.00  0.00    -0.020 C 
HETATM   12  C   UNK N   1      28.070  19.701   4.753  0.00  0.00     0.009 C 
HETATM   13  C   UNK N   1      27.062  21.528   6.059  0.00  0.00     0.009 C 
ENDBRANCH  10  11
ENDBRANCH   9  10
BRANCH   9  14
HETATM   14  N   UNK N   1      25.197  18.124   3.182  0.00  0.00    -0.338 N 
HETATM   15  C   UNK N   1      25.124  17.159   4.035  0.00  0.00     0.259 C 
ATOM     16  HN  UNK N   1      25.411  17.891   2.212  1.00  0.00     0.164 HD
BRANCH  15  17
HETATM   17  O   UNK N   1      24.755  17.392   5.314  0.00  0.00    -0.327 OA
HETATM   18  H   UNK N   1      24.370  17.688   6.115  0.00  0.00     0.221 HD
ENDBRANCH  15  17
BRANCH  15  19
HETATM   19  O   UNK N   1      25.494  15.915   3.654  0.00  0.00    -0.312 OA
BRANCH  19  20
HETATM   20  C   UNK N   1      25.995  15.662   2.391  0.00  0.00     0.218 C 
BRANCH  20  21
HETATM   21  C   UNK N   1      25.356  14.440   1.773  0.00  0.00    -0.034 A 
HETATM   22  C   UNK N   1      25.837  13.170   2.109  0.00  0.00     0.009 A 
HETATM   23  C   UNK N   1      25.266  12.027   1.538  0.00  0.00     0.001 A 
HETATM   24  C   UNK N   1      24.213  12.149   0.625  0.00  0.00     0.000 A 
HETATM   25  C   UNK N   1      23.726  13.412   0.285  0.00  0.00     0.001 A 
HETATM   26  C   UNK N   1      24.293  14.551   0.859  0.00  0.00     0.009 A 
ENDBRANCH  20  21
ENDBRANCH  19  20
ENDBRANCH  15  19
ENDBRANCH   9  14
ENDBRANCH   7   9
BRANCH   7  27
HETATM   27  O   UNK N   1      22.680  19.290   4.343  0.00  0.00    -0.347 OA
HETATM   28  H   UNK N   1      21.845  18.866   4.316  0.00  0.00     0.219 HD
ENDBRANCH   7  27
ENDBRANCH   4   6
ENDBRANCH   1   4
BRANCH   1  29
HETATM   29  O   UNK N   1      20.433  21.366   0.600  0.00  0.00    -0.330 OA
HETATM   30  H   UNK N   1      21.036  22.014   0.292  0.00  0.00     0.221 HD
ENDBRANCH   1  29
BRANCH   2  31
HETATM   31  N   UNK N   1      20.575  18.266   2.390  0.00  0.00    -0.279 N 
HETATM   32  C   UNK N   1      20.140  17.055   2.257  0.00  0.00     0.153 C 
ATOM     33  HN  UNK N   1      21.108  18.494   3.229  1.00  0.00     0.189 HD
BRANCH  32  34
HETATM   34  C   UNK N   1      20.513  16.020   3.280  0.00  0.00     0.162 C 
BRANCH  34  35
HETATM   35  C   UNK N   1      21.253  14.845   2.618  0.00  0.00     0.037 C 
BRANCH  35  36
HETATM   36  C   UNK N   1      21.336  13.545   3.437  0.00  0.00    -0.020 C 
HETATM   37  C   UNK N   1      22.694  13.306   4.073  0.00  0.00     0.009 C 
HETATM   38  C   UNK N   1      20.904  12.336   2.628  0.00  0.00     0.009 C 
ENDBRANCH  35  36
ENDBRANCH  34  35
BRANCH  34  39
HETATM   39  N   UNK N   1      21.399  16.625   4.258  0.00  0.00    -0.338 N 
HETATM   40  C   UNK N   1      21.276  16.478   5.532  0.00  0.00     0.259 C 
ATOM     41  HN  UNK N   1      22.167  17.203   3.915  1.00  0.00     0.164 HD
BRANCH  40  42
HETATM   42  O   UNK N   1      22.173  17.064   6.351  0.00  0.00    -0.327 OA
HETATM   43  H   UNK N   1      22.237  17.168   7.280  0.00  0.00     0.221 HD
ENDBRANCH  40  42
BRANCH  40  44
HETATM   44  O   UNK N   1      20.243  15.763   6.044  0.00  0.00    -0.312 OA
BRANCH  44  45
HETATM   45  C   UNK N   1      19.930  15.710   7.385  0.00  0.00     0.218 C 
BRANCH  45  46
HETATM   46  C   UNK N   1      20.593  14.554   8.063  0.00  0.00    -0.034 A 
HETATM   47  C   UNK N   1      21.049  13.460   7.317  0.00  0.00     0.009 A 
HETATM   48  C   UNK N   1      21.649  12.375   7.960  0.00  0.00     0.001 A 
HETATM   49  C   UNK N   1      21.781  12.375   9.353  0.00  0.00     0.000 A 
HETATM   50  C   UNK N   1      21.319  13.463  10.100  0.00  0.00     0.001 A 
HETATM   51  C   UNK N   1      20.728  14.553   9.455  0.00  0.00     0.009 A 
ENDBRANCH  45  46
ENDBRANCH  44  45
ENDBRANCH  40  44
ENDBRANCH  34  39
ENDBRANCH  32  34
BRANCH  32  52
HETATM   52  O   UNK N   1      19.392  16.692   1.194  0.00  0.00    -0.347 OA
HETATM   53  H   UNK N   1      19.137  16.479   0.317  0.00  0.00     0.219 HD
ENDBRANCH  32  52
ENDBRANCH   2  31
TORSDOF 22
ENDMDL
