REMARK  5 active torsions:
REMARK  status: ('A' for Active; 'I' for Inactive)
REMARK    1  A    between atoms: C_2  and  N_1 
REMARK    2  A    between atoms: C_2  and  C_3 
REMARK    3  A    between atoms: C_2  and  C_5 
REMARK    4  A    between atoms: C_3  and  O_4 
REMARK    5  A    between atoms: C_5  and  O_6 
ROOT
HETATM    1  C   UNK N   1       1.640   0.792   0.000  0.00  0.00     0.197 C 
ENDROOT
BRANCH   1   2
HETATM    2  N   UNK N   1       3.027   0.366  -0.000  0.00  0.00    -0.416 N 
HETATM    3  H   UNK N   1       3.256  -0.628  -0.000  0.00  0.00     0.150 HD
HETATM    4  H   UNK N   1       3.774   1.060  -0.000  0.00  0.00     0.150 HD
ENDBRANCH   1   2
BRANCH   1   5
HETATM    5  C   UNK N   1       1.405   2.303  -0.000  0.00  0.00     0.199 C 
BRANCH   5   6
HETATM    6  O   UNK N   1       0.049   2.629   0.000  0.00  0.00    -0.398 OA
HETATM    7  H   UNK N   1      -0.226   3.559   0.000  0.00  0.00     0.209 HD
ENDBRANCH   5   6
ENDBRANCH   1   5
BRANCH   1   8
HETATM    8  C   UNK N   1       0.599  -0.297  -0.000  0.00  0.00     0.165 C 
HETATM    9  O   UNK N   1      -0.589  -0.027  -0.000  0.00  0.00    -0.648 OA
BRANCH   8  10
HETATM   10  O   UNK N   1       0.986  -1.589  -0.000  0.00  0.00    -0.775 OA
HETATM   11  H   UNK N   1       0.344  -2.271   0.000  0.00  0.00     0.167 HD
ENDBRANCH   8  10
ENDBRANCH   1   8
TORSDOF 5
