MODEL 1
REMARK VINA RESULT:      -4.5      0.000      0.000
REMARK  7 active torsions:
REMARK  status: ('A' for Active; 'I' for Inactive)
REMARK    1  A    between atoms: C_2  and  C_3 
REMARK    2  A    between atoms: C_3  and  C_4 
REMARK    3  A    between atoms: C_4  and  C_5 
REMARK    4  A    between atoms: C_5  and  C_6 
REMARK    5  A    between atoms: C_6  and  C_7 
REMARK    6  A    between atoms: C_7  and  C_8 
REMARK    7  A    between atoms: C_11  and  O_12 
ROOT
HETATM    1  C   UNK N   1      26.033  26.986  -6.798  0.00  0.00    -0.058 A 
HETATM    2  C   UNK N   1      24.931  26.936  -5.936  0.00  0.00     0.010 A 
HETATM    3  C   UNK N   1      24.933  27.678  -4.748  0.00  0.00     0.037 A 
HETATM    4  C   UNK N   1      26.036  28.471  -4.416  0.00  0.00     0.065 A 
HETATM    5  C   UNK N   1      27.138  28.526  -5.270  0.00  0.00     0.037 A 
HETATM    6  C   UNK N   1      27.137  27.789  -6.453  0.00  0.00     0.010 A 
ENDROOT
BRANCH   1   7
HETATM    7  C   UNK N   1      26.014  26.182  -8.072  0.00  0.00     0.038 C 
BRANCH   7   8
HETATM    8  C   UNK N   1      26.776  24.875  -7.911  0.00  0.00     0.005 C 
BRANCH   8   9
HETATM    9  C   UNK N   1      25.924  23.729  -7.423  0.00  0.00     0.000 C 
BRANCH   9  10
HETATM   10  C   UNK N   1      26.386  23.461  -6.007  0.00  0.00     0.000 C 
BRANCH  10  11
HETATM   11  C   UNK N   1      27.835  23.831  -5.794  0.00  0.00    -0.000 C 
BRANCH  11  12
HETATM   12  C   UNK N   1      27.947  24.461  -4.421  0.00  0.00    -0.005 C 
HETATM   13  C   UNK N   1      26.595  24.479  -3.745  0.00  0.00     0.005 C 
ENDBRANCH  11  12
ENDBRANCH  10  11
ENDBRANCH   9  10
ENDBRANCH   8   9
ENDBRANCH   7   8
ENDBRANCH   1   7
BRANCH   4  14
HETATM   14  O   UNK N   1      26.038  29.182  -3.278  0.00  0.00    -0.361 OA
HETATM   15  H   UNK N   1      26.108  28.745  -2.452  0.00  0.00     0.217 HD
ENDBRANCH   4  14
TORSDOF 7
ENDMDL
MODEL 2
REMARK VINA RESULT:      -4.4     26.462     28.168
REMARK  7 active torsions:
REMARK  status: ('A' for Active; 'I' for Inactive)
REMARK    1  A    between atoms: C_2  and  C_3 
REMARK    2  A    between atoms: C_3  and  C_4 
REMARK    3  A    between atoms: C_4  and  C_5 
REMARK    4  A    between atoms: C_5  and  C_6 
REMARK    5  A    between atoms: C_6  and  C_7 
REMARK    6  A    between atoms: C_7  and  C_8 
REMARK    7  A    between atoms: C_11  and  O_12 
ROOT
HETATM    1  C   UNK N   1      34.942  12.269  16.455  0.00  0.00    -0.058 A 
HETATM    2  C   UNK N   1      34.933  13.534  17.054  0.00  0.00     0.010 A 
HETATM    3  C   UNK N   1      35.174  13.663  18.428  0.00  0.00     0.037 A 
HETATM    4  C   UNK N   1      35.425  12.529  19.207  0.00  0.00     0.065 A 
HETATM    5  C   UNK N   1      35.436  11.265  18.617  0.00  0.00     0.037 A 
HETATM    6  C   UNK N   1      35.195  11.135  17.250  0.00  0.00     0.010 A 
ENDROOT
BRANCH   1   7
HETATM    7  C   UNK N   1      34.680  12.148  14.976  0.00  0.00     0.038 C 
BRANCH   7   8
HETATM    8  C   UNK N   1      33.706  11.018  14.678  0.00  0.00     0.005 C 
BRANCH   8   9
HETATM    9  C   UNK N   1      34.007  10.274  13.400  0.00  0.00     0.000 C 
BRANCH   9  10
HETATM   10  C   UNK N   1      35.482   9.942  13.468  0.00  0.00     0.000 C 
BRANCH  10  11
HETATM   11  C   UNK N   1      35.740   8.594  14.096  0.00  0.00    -0.000 C 
BRANCH  11  12
HETATM   12  C   UNK N   1      36.871   8.764  15.090  0.00  0.00    -0.005 C 
HETATM   13  C   UNK N   1      37.719   9.958  14.715  0.00  0.00     0.005 C 
ENDBRANCH  11  12
ENDBRANCH  10  11
ENDBRANCH   9  10
ENDBRANCH   8   9
ENDBRANCH   7   8
ENDBRANCH   1   7
BRANCH   4  14
HETATM   14  O   UNK N   1      35.656  12.652  20.523  0.00  0.00    -0.361 OA
HETATM   15  H   UNK N   1      34.940  12.655  21.127  0.00  0.00     0.217 HD
ENDBRANCH   4  14
TORSDOF 7
ENDMDL
MODEL 3
REMARK VINA RESULT:      -4.4     25.373     27.767
REMARK  7 active torsions:
REMARK  status: ('A' for Active; 'I' for Inactive)
REMARK    1  A    between atoms: C_2  and  C_3 
REMARK    2  A    between atoms: C_3  and  C_4 
REMARK    3  A    between atoms: C_4  and  C_5 
REMARK    4  A    between atoms: C_5  and  C_6 
REMARK    5  A    between atoms: C_6  and  C_7 
REMARK    6  A    between atoms: C_7  and  C_8 
REMARK    7  A    between atoms: C_11  and  O_12 
ROOT
HETATM    1  C   UNK N   1      34.971  10.883  16.817  0.00  0.00    -0.058 A 
HETATM    2  C   UNK N   1      34.949  12.281  16.749  0.00  0.00     0.010 A 
HETATM    3  C   UNK N   1      35.123  13.044  17.910  0.00  0.00     0.037 A 
HETATM    4  C   UNK N   1      35.320  12.414  19.143  0.00  0.00     0.065 A 
HETATM    5  C   UNK N   1      35.344  11.021  19.219  0.00  0.00     0.037 A 
HETATM    6  C   UNK N   1      35.171  10.260  18.064  0.00  0.00     0.010 A 
ENDROOT
BRANCH   1   7
HETATM    7  C   UNK N   1      34.782  10.076  15.558  0.00  0.00     0.038 C 
BRANCH   7   8
HETATM    8  C   UNK N   1      33.730  10.702  14.655  0.00  0.00     0.005 C 
BRANCH   8   9
HETATM    9  C   UNK N   1      34.027  10.560  13.183  0.00  0.00     0.000 C 
BRANCH   9  10
HETATM   10  C   UNK N   1      34.740  11.837  12.793  0.00  0.00     0.000 C 
BRANCH  10  11
HETATM   11  C   UNK N   1      36.223  11.633  12.600  0.00  0.00    -0.000 C 
BRANCH  11  12
HETATM   12  C   UNK N   1      36.938  12.524  13.596  0.00  0.00    -0.005 C 
HETATM   13  C   UNK N   1      36.232  13.857  13.702  0.00  0.00     0.005 C 
ENDBRANCH  11  12
ENDBRANCH  10  11
ENDBRANCH   9  10
ENDBRANCH   8   9
ENDBRANCH   7   8
ENDBRANCH   1   7
BRANCH   4  14
HETATM   14  O   UNK N   1      35.487  13.146  20.256  0.00  0.00    -0.361 OA
HETATM   15  H   UNK N   1      34.928  13.010  20.995  0.00  0.00     0.217 HD
ENDBRANCH   4  14
TORSDOF 7
ENDMDL
MODEL 4
REMARK VINA RESULT:      -4.4     12.926     15.632
REMARK  7 active torsions:
REMARK  status: ('A' for Active; 'I' for Inactive)
REMARK    1  A    between atoms: C_2  and  C_3 
REMARK    2  A    between atoms: C_3  and  C_4 
REMARK    3  A    between atoms: C_4  and  C_5 
REMARK    4  A    between atoms: C_5  and  C_6 
REMARK    5  A    between atoms: C_6  and  C_7 
REMARK    6  A    between atoms: C_7  and  C_8 
REMARK    7  A    between atoms: C_11  and  O_12 
ROOT
HETATM    1  C   UNK N   1      30.527  17.525   7.511  0.00  0.00    -0.058 A 
HETATM    2  C   UNK N   1      30.974  17.197   6.224  0.00  0.00     0.010 A 
HETATM    3  C   UNK N   1      32.339  17.259   5.917  0.00  0.00     0.037 A 
HETATM    4  C   UNK N   1      33.262  17.649   6.893  0.00  0.00     0.065 A 
HETATM    5  C   UNK N   1      32.825  17.977   8.176  0.00  0.00     0.037 A 
HETATM    6  C   UNK N   1      31.467  17.915   8.484  0.00  0.00     0.010 A 
ENDROOT
BRANCH   1   7
HETATM    7  C   UNK N   1      29.055  17.452   7.825  0.00  0.00     0.038 C 
BRANCH   7   8
HETATM    8  C   UNK N   1      28.231  18.178   6.772  0.00  0.00     0.005 C 
BRANCH   8   9
HETATM    9  C   UNK N   1      27.731  19.531   7.215  0.00  0.00     0.000 C 
BRANCH   9  10
HETATM   10  C   UNK N   1      27.748  20.391   5.970  0.00  0.00     0.000 C 
BRANCH  10  11
HETATM   11  C   UNK N   1      27.932  19.578   4.711  0.00  0.00    -0.000 C 
BRANCH  11  12
HETATM   12  C   UNK N   1      26.989  20.137   3.666  0.00  0.00    -0.005 C 
HETATM   13  C   UNK N   1      25.560  20.040   4.149  0.00  0.00     0.005 C 
ENDBRANCH  11  12
ENDBRANCH  10  11
ENDBRANCH   9  10
ENDBRANCH   8   9
ENDBRANCH   7   8
ENDBRANCH   1   7
BRANCH   4  14
HETATM   14  O   UNK N   1      34.570  17.709   6.598  0.00  0.00    -0.361 OA
HETATM   15  H   UNK N   1      34.851  17.691   5.704  0.00  0.00     0.217 HD
ENDBRANCH   4  14
TORSDOF 7
ENDMDL
MODEL 5
REMARK VINA RESULT:      -4.3      3.595      6.015
REMARK  7 active torsions:
REMARK  status: ('A' for Active; 'I' for Inactive)
REMARK    1  A    between atoms: C_2  and  C_3 
REMARK    2  A    between atoms: C_3  and  C_4 
REMARK    3  A    between atoms: C_4  and  C_5 
REMARK    4  A    between atoms: C_5  and  C_6 
REMARK    5  A    between atoms: C_6  and  C_7 
REMARK    6  A    between atoms: C_7  and  C_8 
REMARK    7  A    between atoms: C_11  and  O_12 
ROOT
HETATM    1  C   UNK N   1      29.367  22.898  -4.584  0.00  0.00    -0.058 A 
HETATM    2  C   UNK N   1      29.626  23.500  -3.347  0.00  0.00     0.010 A 
HETATM    3  C   UNK N   1      30.627  22.989  -2.512  0.00  0.00     0.037 A 
HETATM    4  C   UNK N   1      31.373  21.875  -2.910  0.00  0.00     0.065 A 
HETATM    5  C   UNK N   1      31.121  21.269  -4.141  0.00  0.00     0.037 A 
HETATM    6  C   UNK N   1      30.124  21.777  -4.974  0.00  0.00     0.010 A 
ENDROOT
BRANCH   1   7
HETATM    7  C   UNK N   1      28.286  23.461  -5.471  0.00  0.00     0.038 C 
BRANCH   7   8
HETATM    8  C   UNK N   1      27.382  24.412  -4.701  0.00  0.00     0.005 C 
BRANCH   8   9
HETATM    9  C   UNK N   1      25.934  24.353  -5.124  0.00  0.00     0.000 C 
BRANCH   9  10
HETATM   10  C   UNK N   1      25.894  24.972  -6.504  0.00  0.00     0.000 C 
BRANCH  10  11
HETATM   11  C   UNK N   1      25.987  26.478  -6.463  0.00  0.00    -0.000 C 
BRANCH  11  12
HETATM   12  C   UNK N   1      24.860  26.980  -5.584  0.00  0.00    -0.005 C 
HETATM   13  C   UNK N   1      25.400  27.925  -4.534  0.00  0.00     0.005 C 
ENDBRANCH  11  12
ENDBRANCH  10  11
ENDBRANCH   9  10
ENDBRANCH   8   9
ENDBRANCH   7   8
ENDBRANCH   1   7
BRANCH   4  14
HETATM   14  O   UNK N   1      32.333  21.385  -2.110  0.00  0.00    -0.361 OA
HETATM   15  H   UNK N   1      33.224  21.649  -2.230  0.00  0.00     0.217 HD
ENDBRANCH   4  14
TORSDOF 7
ENDMDL
MODEL 6
REMARK VINA RESULT:      -4.3      2.260      4.707
REMARK  7 active torsions:
REMARK  status: ('A' for Active; 'I' for Inactive)
REMARK    1  A    between atoms: C_2  and  C_3 
REMARK    2  A    between atoms: C_3  and  C_4 
REMARK    3  A    between atoms: C_4  and  C_5 
REMARK    4  A    between atoms: C_5  and  C_6 
REMARK    5  A    between atoms: C_6  and  C_7 
REMARK    6  A    between atoms: C_7  and  C_8 
REMARK    7  A    between atoms: C_11  and  O_12 
ROOT
HETATM    1  C   UNK N   1      26.037  27.841  -4.008  0.00  0.00    -0.058 A 
HETATM    2  C   UNK N   1      25.105  27.741  -5.049  0.00  0.00     0.010 A 
HETATM    3  C   UNK N   1      24.849  26.502  -5.648  0.00  0.00     0.037 A 
HETATM    4  C   UNK N   1      25.523  25.357  -5.210  0.00  0.00     0.065 A 
HETATM    5  C   UNK N   1      26.453  25.448  -4.173  0.00  0.00     0.037 A 
HETATM    6  C   UNK N   1      26.708  26.681  -3.576  0.00  0.00     0.010 A 
ENDROOT
BRANCH   1   7
HETATM    7  C   UNK N   1      26.300  29.182  -3.375  0.00  0.00     0.038 C 
BRANCH   7   8
HETATM    8  C   UNK N   1      27.703  29.677  -3.693  0.00  0.00     0.005 C 
BRANCH   8   9
HETATM    9  C   UNK N   1      27.833  30.307  -5.058  0.00  0.00     0.000 C 
BRANCH   9  10
HETATM   10  C   UNK N   1      28.760  29.397  -5.833  0.00  0.00     0.000 C 
BRANCH  10  11
HETATM   11  C   UNK N   1      28.127  28.872  -7.099  0.00  0.00    -0.000 C 
BRANCH  11  12
HETATM   12  C   UNK N   1      28.234  27.361  -7.070  0.00  0.00    -0.005 C 
HETATM   13  C   UNK N   1      27.406  26.759  -8.182  0.00  0.00     0.005 C 
ENDBRANCH  11  12
ENDBRANCH  10  11
ENDBRANCH   9  10
ENDBRANCH   8   9
ENDBRANCH   7   8
ENDBRANCH   1   7
BRANCH   4  14
HETATM   14  O   UNK N   1      25.278  24.169  -5.784  0.00  0.00    -0.361 OA
HETATM   15  H   UNK N   1      24.709  24.115  -6.526  0.00  0.00     0.217 HD
ENDBRANCH   4  14
TORSDOF 7
ENDMDL
MODEL 7
REMARK VINA RESULT:      -4.3     25.713     28.095
REMARK  7 active torsions:
REMARK  status: ('A' for Active; 'I' for Inactive)
REMARK    1  A    between atoms: C_2  and  C_3 
REMARK    2  A    between atoms: C_3  and  C_4 
REMARK    3  A    between atoms: C_4  and  C_5 
REMARK    4  A    between atoms: C_5  and  C_6 
REMARK    5  A    between atoms: C_6  and  C_7 
REMARK    6  A    between atoms: C_7  and  C_8 
REMARK    7  A    between atoms: C_11  and  O_12 
ROOT
HETATM    1  C   UNK N   1      35.278  12.657  17.178  0.00  0.00    -0.058 A 
HETATM    2  C   UNK N   1      35.146  13.450  18.325  0.00  0.00     0.010 A 
HETATM    3  C   UNK N   1      35.212  12.865  19.595  0.00  0.00     0.037 A 
HETATM    4  C   UNK N   1      35.410  11.486  19.725  0.00  0.00     0.065 A 
HETATM    5  C   UNK N   1      35.542  10.690  18.587  0.00  0.00     0.037 A 
HETATM    6  C   UNK N   1      35.477  11.271  17.322  0.00  0.00     0.010 A 
ENDROOT
BRANCH   1   7
HETATM    7  C   UNK N   1      35.205  13.303  15.818  0.00  0.00     0.038 C 
BRANCH   7   8
HETATM    8  C   UNK N   1      36.557  13.273  15.120  0.00  0.00     0.005 C 
BRANCH   8   9
HETATM    9  C   UNK N   1      36.489  12.831  13.679  0.00  0.00     0.000 C 
BRANCH   9  10
HETATM   10  C   UNK N   1      35.016  12.650  13.385  0.00  0.00     0.000 C 
BRANCH  10  11
HETATM   11  C   UNK N   1      34.720  11.331  12.711  0.00  0.00    -0.000 C 
BRANCH  11  12
HETATM   12  C   UNK N   1      34.102  10.418  13.750  0.00  0.00    -0.005 C 
HETATM   13  C   UNK N   1      35.120   9.406  14.225  0.00  0.00     0.005 C 
ENDBRANCH  11  12
ENDBRANCH  10  11
ENDBRANCH   9  10
ENDBRANCH   8   9
ENDBRANCH   7   8
ENDBRANCH   1   7
BRANCH   4  14
HETATM   14  O   UNK N   1      35.472  10.925  20.943  0.00  0.00    -0.361 OA
HETATM   15  H   UNK N   1      36.151  10.311  21.142  0.00  0.00     0.217 HD
ENDBRANCH   4  14
TORSDOF 7
ENDMDL
MODEL 8
REMARK VINA RESULT:      -4.3     25.497     27.876
REMARK  7 active torsions:
REMARK  status: ('A' for Active; 'I' for Inactive)
REMARK    1  A    between atoms: C_2  and  C_3 
REMARK    2  A    between atoms: C_3  and  C_4 
REMARK    3  A    between atoms: C_4  and  C_5 
REMARK    4  A    between atoms: C_5  and  C_6 
REMARK    5  A    between atoms: C_6  and  C_7 
REMARK    6  A    between atoms: C_7  and  C_8 
REMARK    7  A    between atoms: C_11  and  O_12 
ROOT
HETATM    1  C   UNK N   1      35.649  11.604  17.013  0.00  0.00    -0.058 A 
HETATM    2  C   UNK N   1      35.624  10.883  18.213  0.00  0.00     0.010 A 
HETATM    3  C   UNK N   1      35.329  11.532  19.418  0.00  0.00     0.037 A 
HETATM    4  C   UNK N   1      35.058  12.904  19.430  0.00  0.00     0.065 A 
HETATM    5  C   UNK N   1      35.081  13.630  18.238  0.00  0.00     0.037 A 
HETATM    6  C   UNK N   1      35.374  12.985  17.038  0.00  0.00     0.010 A 
ENDROOT
BRANCH   1   7
HETATM    7  C   UNK N   1      35.968  10.890  15.725  0.00  0.00     0.038 C 
BRANCH   7   8
HETATM    8  C   UNK N   1      34.833   9.966  15.311  0.00  0.00     0.005 C 
BRANCH   8   9
HETATM    9  C   UNK N   1      33.733  10.658  14.544  0.00  0.00     0.000 C 
BRANCH   9  10
HETATM   10  C   UNK N   1      34.440  11.542  13.540  0.00  0.00     0.000 C 
BRANCH  10  11
HETATM   11  C   UNK N   1      34.873  10.784  12.309  0.00  0.00    -0.000 C 
BRANCH  11  12
HETATM   12  C   UNK N   1      33.671  10.017  11.799  0.00  0.00    -0.005 C 
HETATM   13  C   UNK N   1      34.090   8.642  11.330  0.00  0.00     0.005 C 
ENDBRANCH  11  12
ENDBRANCH  10  11
ENDBRANCH   9  10
ENDBRANCH   8   9
ENDBRANCH   7   8
ENDBRANCH   1   7
BRANCH   4  14
HETATM   14  O   UNK N   1      34.776  13.527  20.585  0.00  0.00    -0.361 OA
HETATM   15  H   UNK N   1      34.884  14.454  20.656  0.00  0.00     0.217 HD
ENDBRANCH   4  14
TORSDOF 7
ENDMDL
MODEL 9
REMARK VINA RESULT:      -4.3     27.929     30.295
REMARK  7 active torsions:
REMARK  status: ('A' for Active; 'I' for Inactive)
REMARK    1  A    between atoms: C_2  and  C_3 
REMARK    2  A    between atoms: C_3  and  C_4 
REMARK    3  A    between atoms: C_4  and  C_5 
REMARK    4  A    between atoms: C_5  and  C_6 
REMARK    5  A    between atoms: C_6  and  C_7 
REMARK    6  A    between atoms: C_7  and  C_8 
REMARK    7  A    between atoms: C_11  and  O_12 
ROOT
HETATM    1  C   UNK N   1      35.240  11.063  17.864  0.00  0.00    -0.058 A 
HETATM    2  C   UNK N   1      35.242  11.526  19.186  0.00  0.00     0.010 A 
HETATM    3  C   UNK N   1      35.244  12.902  19.448  0.00  0.00     0.037 A 
HETATM    4  C   UNK N   1      35.244  13.819  18.393  0.00  0.00     0.065 A 
HETATM    5  C   UNK N   1      35.242  13.365  17.074  0.00  0.00     0.037 A 
HETATM    6  C   UNK N   1      35.240  11.997  16.810  0.00  0.00     0.010 A 
ENDROOT
BRANCH   1   7
HETATM    7  C   UNK N   1      35.238   9.580  17.599  0.00  0.00     0.038 C 
BRANCH   7   8
HETATM    8  C   UNK N   1      34.137   8.881  18.383  0.00  0.00     0.005 C 
BRANCH   8   9
HETATM    9  C   UNK N   1      34.638   7.791  19.299  0.00  0.00     0.000 C 
BRANCH   9  10
HETATM   10  C   UNK N   1      33.876   7.975  20.593  0.00  0.00     0.000 C 
BRANCH  10  11
HETATM   11  C   UNK N   1      32.748   8.969  20.461  0.00  0.00    -0.000 C 
BRANCH  11  12
HETATM   12  C   UNK N   1      31.510   8.337  21.063  0.00  0.00    -0.005 C 
HETATM   13  C   UNK N   1      30.647   7.742  19.974  0.00  0.00     0.005 C 
ENDBRANCH  11  12
ENDBRANCH  10  11
ENDBRANCH   9  10
ENDBRANCH   8   9
ENDBRANCH   7   8
ENDBRANCH   1   7
BRANCH   4  14
HETATM   14  O   UNK N   1      35.246  15.138  18.645  0.00  0.00    -0.361 OA
HETATM   15  H   UNK N   1      36.044  15.624  18.590  0.00  0.00     0.217 HD
ENDBRANCH   4  14
TORSDOF 7
ENDMDL
