MODEL 1
REMARK VINA RESULT:      -5.9      0.000      0.000
REMARK  7 active torsions:
REMARK  status: ('A' for Active; 'I' for Inactive)
REMARK    1  A    between atoms: C_2  and  N_1 
REMARK    2  A    between atoms: C_2  and  C_3 
REMARK    3  A    between atoms: C_2  and  C_14 
REMARK    4  A    between atoms: C_3  and  C_4 
REMARK    5  A    between atoms: C_7  and  O_8 
REMARK    6  A    between atoms: C_9  and  N_11 
REMARK    7  A    between atoms: C_14  and  O_15 
ROOT
HETATM    1  C   UNK N   1      30.801  17.442   7.514  0.00  0.00    -0.053 A 
HETATM    2  C   UNK N   1      30.987  17.070   6.180  0.00  0.00     0.010 A 
HETATM    3  C   UNK N   1      32.278  17.017   5.640  0.00  0.00     0.039 A 
HETATM    4  C   UNK N   1      33.390  17.332   6.430  0.00  0.00     0.098 A 
HETATM    5  C   UNK N   1      33.208  17.726   7.778  0.00  0.00     0.136 A 
HETATM    6  C   UNK N   1      31.911  17.760   8.298  0.00  0.00     0.046 A 
ENDROOT
BRANCH   1   7
HETATM    7  C   UNK N   1      29.438  17.348   8.138  0.00  0.00     0.074 C 
BRANCH   7   8
HETATM    8  C   UNK N   1      28.549  18.593   8.029  0.00  0.00     0.177 C 
BRANCH   8   9
HETATM    9  N   UNK N   1      27.567  18.622   9.105  0.00  0.00    -0.417 N 
HETATM   10  H   UNK N   1      27.708  19.234   9.909  0.00  0.00     0.150 HD
HETATM   11  H   UNK N   1      26.739  18.029   9.055  0.00  0.00     0.150 HD
ENDBRANCH   8   9
BRANCH   8  12
HETATM   12  C   UNK N   1      27.829  18.540   6.710  0.00  0.00     0.163 C 
HETATM   13  O   UNK N   1      28.071  19.372   5.850  0.00  0.00    -0.648 OA
BRANCH  12  14
HETATM   14  O   UNK N   1      26.929  17.569   6.459  0.00  0.00    -0.775 OA
HETATM   15  H   UNK N   1      26.025  17.720   6.261  0.00  0.00     0.167 HD
ENDBRANCH  12  14
ENDBRANCH   8  12
ENDBRANCH   7   8
ENDBRANCH   1   7
BRANCH   5  16
HETATM   16  N   UNK N   1      34.300  18.078   8.627  0.00  0.00    -0.113 N 
HETATM   17  O   UNK N   1      35.042  19.129   8.338  0.00  0.00    -0.532 OA
HETATM   18  O   UNK N   1      34.559  17.431   9.594  0.00  0.00    -0.532 OA
ENDBRANCH   5  16
BRANCH   4  19
HETATM   19  O   UNK N   1      34.618  17.255   5.888  0.00  0.00    -0.358 OA
HETATM   20  H   UNK N   1      35.346  16.973   6.408  0.00  0.00     0.217 HD
ENDBRANCH   4  19
TORSDOF 7
ENDMDL
MODEL 2
REMARK VINA RESULT:      -5.7     12.120     13.139
REMARK  7 active torsions:
REMARK  status: ('A' for Active; 'I' for Inactive)
REMARK    1  A    between atoms: C_2  and  N_1 
REMARK    2  A    between atoms: C_2  and  C_3 
REMARK    3  A    between atoms: C_2  and  C_14 
REMARK    4  A    between atoms: C_3  and  C_4 
REMARK    5  A    between atoms: C_7  and  O_8 
REMARK    6  A    between atoms: C_9  and  N_11 
REMARK    7  A    between atoms: C_14  and  O_15 
ROOT
HETATM    1  C   UNK N   1      29.004  23.022  -5.484  0.00  0.00    -0.053 A 
HETATM    2  C   UNK N   1      29.250  21.903  -6.282  0.00  0.00     0.010 A 
HETATM    3  C   UNK N   1      30.101  20.889  -5.824  0.00  0.00     0.039 A 
HETATM    4  C   UNK N   1      30.707  20.986  -4.565  0.00  0.00     0.098 A 
HETATM    5  C   UNK N   1      30.474  22.126  -3.758  0.00  0.00     0.136 A 
HETATM    6  C   UNK N   1      29.612  23.119  -4.232  0.00  0.00     0.046 A 
ENDROOT
BRANCH   1   7
HETATM    7  C   UNK N   1      27.973  24.032  -5.903  0.00  0.00     0.074 C 
BRANCH   7   8
HETATM    8  C   UNK N   1      26.540  23.790  -5.411  0.00  0.00     0.177 C 
BRANCH   8   9
HETATM    9  N   UNK N   1      25.572  24.213  -6.413  0.00  0.00    -0.417 N 
HETATM   10  H   UNK N   1      25.284  23.568  -7.149  0.00  0.00     0.150 HD
HETATM   11  H   UNK N   1      25.182  25.155  -6.380  0.00  0.00     0.150 HD
ENDBRANCH   8   9
BRANCH   8  12
HETATM   12  C   UNK N   1      26.333  24.597  -4.158  0.00  0.00     0.163 C 
HETATM   13  O   UNK N   1      26.056  25.783  -4.236  0.00  0.00    -0.648 OA
BRANCH  12  14
HETATM   14  O   UNK N   1      26.434  24.017  -2.945  0.00  0.00    -0.775 OA
HETATM   15  H   UNK N   1      26.707  24.459  -2.165  0.00  0.00     0.167 HD
ENDBRANCH  12  14
ENDBRANCH   8  12
ENDBRANCH   7   8
ENDBRANCH   1   7
BRANCH   5  16
HETATM   16  N   UNK N   1      31.077  22.293  -2.475  0.00  0.00    -0.113 N 
HETATM   17  O   UNK N   1      30.465  23.010  -1.553  0.00  0.00    -0.532 OA
HETATM   18  O   UNK N   1      32.133  21.799  -2.223  0.00  0.00    -0.532 OA
ENDBRANCH   5  16
BRANCH   4  19
HETATM   19  O   UNK N   1      31.504  19.989  -4.146  0.00  0.00    -0.358 OA
HETATM   20  H   UNK N   1      31.132  19.209  -3.781  0.00  0.00     0.217 HD
ENDBRANCH   4  19
TORSDOF 7
ENDMDL
MODEL 3
REMARK VINA RESULT:      -5.7      4.356      6.352
REMARK  7 active torsions:
REMARK  status: ('A' for Active; 'I' for Inactive)
REMARK    1  A    between atoms: C_2  and  N_1 
REMARK    2  A    between atoms: C_2  and  C_3 
REMARK    3  A    between atoms: C_2  and  C_14 
REMARK    4  A    between atoms: C_3  and  C_4 
REMARK    5  A    between atoms: C_7  and  O_8 
REMARK    6  A    between atoms: C_9  and  N_11 
REMARK    7  A    between atoms: C_14  and  O_15 
ROOT
HETATM    1  C   UNK N   1      35.099  15.223   9.516  0.00  0.00    -0.053 A 
HETATM    2  C   UNK N   1      36.220  14.697   8.868  0.00  0.00     0.010 A 
HETATM    3  C   UNK N   1      37.188  13.999   9.600  0.00  0.00     0.039 A 
HETATM    4  C   UNK N   1      37.042  13.821  10.981  0.00  0.00     0.098 A 
HETATM    5  C   UNK N   1      35.917  14.366  11.646  0.00  0.00     0.136 A 
HETATM    6  C   UNK N   1      34.957  15.047  10.893  0.00  0.00     0.046 A 
ENDROOT
BRANCH   1   7
HETATM    7  C   UNK N   1      33.984  15.832   8.714  0.00  0.00     0.074 C 
BRANCH   7   8
HETATM    8  C   UNK N   1      33.678  17.311   8.981  0.00  0.00     0.177 C 
BRANCH   8   9
HETATM    9  N   UNK N   1      32.263  17.591   8.779  0.00  0.00    -0.417 N 
HETATM   10  H   UNK N   1      31.851  18.442   9.163  0.00  0.00     0.150 HD
HETATM   11  H   UNK N   1      31.684  16.935   8.255  0.00  0.00     0.150 HD
ENDBRANCH   8   9
BRANCH   8  12
HETATM   12  C   UNK N   1      34.484  18.137   8.016  0.00  0.00     0.163 C 
HETATM   13  O   UNK N   1      34.531  17.824   6.838  0.00  0.00    -0.648 OA
BRANCH  12  14
HETATM   14  O   UNK N   1      35.144  19.235   8.438  0.00  0.00    -0.775 OA
HETATM   15  H   UNK N   1      35.431  19.930   7.880  0.00  0.00     0.167 HD
ENDBRANCH  12  14
ENDBRANCH   8  12
ENDBRANCH   7   8
ENDBRANCH   1   7
BRANCH   5  16
HETATM   16  N   UNK N   1      35.721  14.234  13.054  0.00  0.00    -0.113 N 
HETATM   17  O   UNK N   1      34.711  13.520  13.510  0.00  0.00    -0.532 OA
HETATM   18  O   UNK N   1      36.453  14.768  13.829  0.00  0.00    -0.532 OA
ENDBRANCH   5  16
BRANCH   4  19
HETATM   19  O   UNK N   1      37.980  13.131  11.653  0.00  0.00    -0.358 OA
HETATM   20  H   UNK N   1      37.736  12.403  12.191  0.00  0.00     0.217 HD
ENDBRANCH   4  19
TORSDOF 7
ENDMDL
MODEL 4
REMARK VINA RESULT:      -5.7      1.988      2.274
REMARK  7 active torsions:
REMARK  status: ('A' for Active; 'I' for Inactive)
REMARK    1  A    between atoms: C_2  and  N_1 
REMARK    2  A    between atoms: C_2  and  C_3 
REMARK    3  A    between atoms: C_2  and  C_14 
REMARK    4  A    between atoms: C_3  and  C_4 
REMARK    5  A    between atoms: C_7  and  O_8 
REMARK    6  A    between atoms: C_9  and  N_11 
REMARK    7  A    between atoms: C_14  and  O_15 
ROOT
HETATM    1  C   UNK N   1      31.595  17.052   7.629  0.00  0.00    -0.053 A 
HETATM    2  C   UNK N   1      31.721  15.668   7.482  0.00  0.00     0.010 A 
HETATM    3  C   UNK N   1      32.906  15.028   7.865  0.00  0.00     0.039 A 
HETATM    4  C   UNK N   1      33.970  15.765   8.400  0.00  0.00     0.098 A 
HETATM    5  C   UNK N   1      33.855  17.170   8.536  0.00  0.00     0.136 A 
HETATM    6  C   UNK N   1      32.658  17.785   8.158  0.00  0.00     0.046 A 
ENDROOT
BRANCH   1   7
HETATM    7  C   UNK N   1      30.274  17.718   7.368  0.00  0.00     0.074 C 
BRANCH   7   8
HETATM    8  C   UNK N   1      29.055  17.124   8.086  0.00  0.00     0.177 C 
BRANCH   8   9
HETATM    9  N   UNK N   1      27.949  16.937   7.156  0.00  0.00    -0.417 N 
HETATM   10  H   UNK N   1      27.774  16.017   6.750  0.00  0.00     0.150 HD
HETATM   11  H   UNK N   1      27.351  17.725   6.911  0.00  0.00     0.150 HD
ENDBRANCH   8   9
BRANCH   8  12
HETATM   12  C   UNK N   1      28.633  18.084   9.164  0.00  0.00     0.163 C 
HETATM   13  O   UNK N   1      29.476  18.692   9.803  0.00  0.00    -0.648 OA
BRANCH  12  14
HETATM   14  O   UNK N   1      27.326  18.295   9.420  0.00  0.00    -0.775 OA
HETATM   15  H   UNK N   1      26.848  17.889  10.117  0.00  0.00     0.167 HD
ENDBRANCH  12  14
ENDBRANCH   8  12
ENDBRANCH   7   8
ENDBRANCH   1   7
BRANCH   5  16
HETATM   16  N   UNK N   1      34.910  17.979   9.056  0.00  0.00    -0.113 N 
HETATM   17  O   UNK N   1      35.226  19.108   8.454  0.00  0.00    -0.532 OA
HETATM   18  O   UNK N   1      35.519  17.646  10.025  0.00  0.00    -0.532 OA
ENDBRANCH   5  16
BRANCH   4  19
HETATM   19  O   UNK N   1      35.088  15.120   8.775  0.00  0.00    -0.358 OA
HETATM   20  H   UNK N   1      35.510  14.527   8.185  0.00  0.00     0.217 HD
ENDBRANCH   4  19
TORSDOF 7
ENDMDL
MODEL 5
REMARK VINA RESULT:      -5.6      7.389      9.536
REMARK  7 active torsions:
REMARK  status: ('A' for Active; 'I' for Inactive)
REMARK    1  A    between atoms: C_2  and  N_1 
REMARK    2  A    between atoms: C_2  and  C_3 
REMARK    3  A    between atoms: C_2  and  C_14 
REMARK    4  A    between atoms: C_3  and  C_4 
REMARK    5  A    between atoms: C_7  and  O_8 
REMARK    6  A    between atoms: C_9  and  N_11 
REMARK    7  A    between atoms: C_14  and  O_15 
ROOT
HETATM    1  C   UNK N   1      35.723  13.662  13.506  0.00  0.00    -0.053 A 
HETATM    2  C   UNK N   1      34.978  12.561  13.937  0.00  0.00     0.010 A 
HETATM    3  C   UNK N   1      34.859  12.289  15.305  0.00  0.00     0.039 A 
HETATM    4  C   UNK N   1      35.479  13.115  16.250  0.00  0.00     0.098 A 
HETATM    5  C   UNK N   1      36.249  14.223  15.820  0.00  0.00     0.136 A 
HETATM    6  C   UNK N   1      36.344  14.482  14.450  0.00  0.00     0.046 A 
ENDROOT
BRANCH   1   7
HETATM    7  C   UNK N   1      35.724  14.048  12.054  0.00  0.00     0.074 C 
BRANCH   7   8
HETATM    8  C   UNK N   1      34.972  15.335  11.689  0.00  0.00     0.177 C 
BRANCH   8   9
HETATM    9  N   UNK N   1      33.801  15.036  10.877  0.00  0.00    -0.417 N 
HETATM   10  H   UNK N   1      33.175  15.788  10.588  0.00  0.00     0.150 HD
HETATM   11  H   UNK N   1      33.606  14.074  10.599  0.00  0.00     0.150 HD
ENDBRANCH   8   9
BRANCH   8  12
HETATM   12  C   UNK N   1      35.905  16.213  10.900  0.00  0.00     0.163 C 
HETATM   13  O   UNK N   1      35.492  17.250  10.406  0.00  0.00    -0.648 OA
BRANCH  12  14
HETATM   14  O   UNK N   1      37.200  15.874  10.747  0.00  0.00    -0.775 OA
HETATM   15  H   UNK N   1      37.586  15.596   9.939  0.00  0.00     0.167 HD
ENDBRANCH  12  14
ENDBRANCH   8  12
ENDBRANCH   7   8
ENDBRANCH   1   7
BRANCH   5  16
HETATM   16  N   UNK N   1      36.920  15.090  16.733  0.00  0.00    -0.113 N 
HETATM   17  O   UNK N   1      36.412  15.297  17.932  0.00  0.00    -0.532 OA
HETATM   18  O   UNK N   1      37.932  15.641  16.426  0.00  0.00    -0.532 OA
ENDBRANCH   5  16
BRANCH   4  19
HETATM   19  O   UNK N   1      35.330  12.837  17.557  0.00  0.00    -0.358 OA
HETATM   20  H   UNK N   1      34.682  13.286  18.064  0.00  0.00     0.217 HD
ENDBRANCH   4  19
TORSDOF 7
ENDMDL
MODEL 6
REMARK VINA RESULT:      -5.6      1.599      2.731
REMARK  7 active torsions:
REMARK  status: ('A' for Active; 'I' for Inactive)
REMARK    1  A    between atoms: C_2  and  N_1 
REMARK    2  A    between atoms: C_2  and  C_3 
REMARK    3  A    between atoms: C_2  and  C_14 
REMARK    4  A    between atoms: C_3  and  C_4 
REMARK    5  A    between atoms: C_7  and  O_8 
REMARK    6  A    between atoms: C_9  and  N_11 
REMARK    7  A    between atoms: C_14  and  O_15 
ROOT
HETATM    1  C   UNK N   1      30.595  17.396   7.339  0.00  0.00    -0.053 A 
HETATM    2  C   UNK N   1      31.422  17.815   8.384  0.00  0.00     0.010 A 
HETATM    3  C   UNK N   1      32.803  17.925   8.182  0.00  0.00     0.039 A 
HETATM    4  C   UNK N   1      33.365  17.622   6.936  0.00  0.00     0.098 A 
HETATM    5  C   UNK N   1      32.534  17.181   5.878  0.00  0.00     0.136 A 
HETATM    6  C   UNK N   1      31.157  17.090   6.099  0.00  0.00     0.046 A 
ENDROOT
BRANCH   1   7
HETATM    7  C   UNK N   1      29.101  17.427   7.503  0.00  0.00     0.074 C 
BRANCH   7   8
HETATM    8  C   UNK N   1      28.504  18.719   8.076  0.00  0.00     0.177 C 
BRANCH   8   9
HETATM    9  N   UNK N   1      27.576  18.421   9.159  0.00  0.00    -0.417 N 
HETATM   10  H   UNK N   1      27.481  17.465   9.502  0.00  0.00     0.150 HD
HETATM   11  H   UNK N   1      27.020  19.168   9.574  0.00  0.00     0.150 HD
ENDBRANCH   8   9
BRANCH   8  12
HETATM   12  C   UNK N   1      27.762  19.421   6.973  0.00  0.00     0.163 C 
HETATM   13  O   UNK N   1      28.093  19.251   5.811  0.00  0.00    -0.648 OA
BRANCH  12  14
HETATM   14  O   UNK N   1      26.719  20.228   7.254  0.00  0.00    -0.775 OA
HETATM   15  H   UNK N   1      26.298  20.281   8.090  0.00  0.00     0.167 HD
ENDBRANCH  12  14
ENDBRANCH   8  12
ENDBRANCH   7   8
ENDBRANCH   1   7
BRANCH   5  16
HETATM   16  N   UNK N   1      33.049  16.838   4.591  0.00  0.00    -0.113 N 
HETATM   17  O   UNK N   1      33.949  15.881   4.481  0.00  0.00    -0.532 OA
HETATM   18  O   UNK N   1      32.685  17.411   3.611  0.00  0.00    -0.532 OA
ENDBRANCH   5  16
BRANCH   4  19
HETATM   19  O   UNK N   1      34.692  17.755   6.769  0.00  0.00    -0.358 OA
HETATM   20  H   UNK N   1      35.091  18.602   6.814  0.00  0.00     0.217 HD
ENDBRANCH   4  19
TORSDOF 7
ENDMDL
MODEL 7
REMARK VINA RESULT:      -5.6      1.578      6.102
REMARK  7 active torsions:
REMARK  status: ('A' for Active; 'I' for Inactive)
REMARK    1  A    between atoms: C_2  and  N_1 
REMARK    2  A    between atoms: C_2  and  C_3 
REMARK    3  A    between atoms: C_2  and  C_14 
REMARK    4  A    between atoms: C_3  and  C_4 
REMARK    5  A    between atoms: C_7  and  O_8 
REMARK    6  A    between atoms: C_9  and  N_11 
REMARK    7  A    between atoms: C_14  and  O_15 
ROOT
HETATM    1  C   UNK N   1      31.060  17.509   7.911  0.00  0.00    -0.053 A 
HETATM    2  C   UNK N   1      30.840  18.215   9.096  0.00  0.00     0.010 A 
HETATM    3  C   UNK N   1      29.574  18.745   9.372  0.00  0.00     0.039 A 
HETATM    4  C   UNK N   1      28.519  18.568   8.468  0.00  0.00     0.098 A 
HETATM    5  C   UNK N   1      28.738  17.867   7.257  0.00  0.00     0.136 A 
HETATM    6  C   UNK N   1      30.008  17.337   7.010  0.00  0.00     0.046 A 
ENDROOT
BRANCH   1   7
HETATM    7  C   UNK N   1      32.369  16.807   7.685  0.00  0.00     0.074 C 
BRANCH   7   8
HETATM    8  C   UNK N   1      33.531  17.673   7.182  0.00  0.00     0.177 C 
BRANCH   8   9
HETATM    9  N   UNK N   1      34.382  16.917   6.273  0.00  0.00    -0.417 N 
HETATM   10  H   UNK N   1      34.351  15.897   6.274  0.00  0.00     0.150 HD
HETATM   11  H   UNK N   1      35.010  17.407   5.637  0.00  0.00     0.150 HD
ENDBRANCH   8   9
BRANCH   8  12
HETATM   12  C   UNK N   1      34.343  18.103   8.372  0.00  0.00     0.163 C 
HETATM   13  O   UNK N   1      35.049  19.096   8.302  0.00  0.00    -0.648 OA
BRANCH  12  14
HETATM   14  O   UNK N   1      34.287  17.409   9.527  0.00  0.00    -0.775 OA
HETATM   15  H   UNK N   1      33.954  16.536   9.608  0.00  0.00     0.167 HD
ENDBRANCH  12  14
ENDBRANCH   8  12
ENDBRANCH   7   8
ENDBRANCH   1   7
BRANCH   5  16
HETATM   16  N   UNK N   1      27.709  17.670   6.288  0.00  0.00    -0.113 N 
HETATM   17  O   UNK N   1      27.055  18.710   5.809  0.00  0.00    -0.532 OA
HETATM   18  O   UNK N   1      27.423  16.577   5.909  0.00  0.00    -0.532 OA
ENDBRANCH   5  16
BRANCH   4  19
HETATM   19  O   UNK N   1      27.310  19.072   8.769  0.00  0.00    -0.358 OA
HETATM   20  H   UNK N   1      27.029  19.883   8.391  0.00  0.00     0.217 HD
ENDBRANCH   4  19
TORSDOF 7
ENDMDL
MODEL 8
REMARK VINA RESULT:      -5.4     11.429     12.324
REMARK  7 active torsions:
REMARK  status: ('A' for Active; 'I' for Inactive)
REMARK    1  A    between atoms: C_2  and  N_1 
REMARK    2  A    between atoms: C_2  and  C_3 
REMARK    3  A    between atoms: C_2  and  C_14 
REMARK    4  A    between atoms: C_3  and  C_4 
REMARK    5  A    between atoms: C_7  and  O_8 
REMARK    6  A    between atoms: C_9  and  N_11 
REMARK    7  A    between atoms: C_14  and  O_15 
ROOT
HETATM    1  C   UNK N   1      20.157  16.800   2.817  0.00  0.00    -0.053 A 
HETATM    2  C   UNK N   1      20.043  16.598   1.439  0.00  0.00     0.010 A 
HETATM    3  C   UNK N   1      20.219  17.671   0.557  0.00  0.00     0.039 A 
HETATM    4  C   UNK N   1      20.512  18.950   1.045  0.00  0.00     0.098 A 
HETATM    5  C   UNK N   1      20.612  19.165   2.441  0.00  0.00     0.136 A 
HETATM    6  C   UNK N   1      20.445  18.077   3.301  0.00  0.00     0.046 A 
ENDROOT
BRANCH   1   7
HETATM    7  C   UNK N   1      20.126  15.626   3.754  0.00  0.00     0.074 C 
BRANCH   7   8
HETATM    8  C   UNK N   1      20.329  15.935   5.243  0.00  0.00     0.177 C 
BRANCH   8   9
HETATM    9  N   UNK N   1      21.220  14.959   5.856  0.00  0.00    -0.417 N 
HETATM   10  H   UNK N   1      22.211  14.951   5.615  0.00  0.00     0.150 HD
HETATM   11  H   UNK N   1      20.852  14.283   6.525  0.00  0.00     0.150 HD
ENDBRANCH   8   9
BRANCH   8  12
HETATM   12  C   UNK N   1      18.988  15.869   5.921  0.00  0.00     0.163 C 
HETATM   13  O   UNK N   1      18.904  16.058   7.124  0.00  0.00    -0.648 OA
BRANCH  12  14
HETATM   14  O   UNK N   1      17.871  15.621   5.208  0.00  0.00    -0.775 OA
HETATM   15  H   UNK N   1      17.076  15.279   5.568  0.00  0.00     0.167 HD
ENDBRANCH  12  14
ENDBRANCH   8  12
ENDBRANCH   7   8
ENDBRANCH   1   7
BRANCH   5  16
HETATM   16  N   UNK N   1      20.890  20.449   3.001  0.00  0.00    -0.113 N 
HETATM   17  O   UNK N   1      21.931  21.137   2.575  0.00  0.00    -0.532 OA
HETATM   18  O   UNK N   1      20.199  20.908   3.857  0.00  0.00    -0.532 OA
ENDBRANCH   5  16
BRANCH   4  19
HETATM   19  O   UNK N   1      20.692  19.957   0.172  0.00  0.00    -0.358 OA
HETATM   20  H   UNK N   1      21.522  20.073  -0.248  0.00  0.00     0.217 HD
ENDBRANCH   4  19
TORSDOF 7
ENDMDL
MODEL 9
REMARK VINA RESULT:      -5.3      4.577      6.954
REMARK  7 active torsions:
REMARK  status: ('A' for Active; 'I' for Inactive)
REMARK    1  A    between atoms: C_2  and  N_1 
REMARK    2  A    between atoms: C_2  and  C_3 
REMARK    3  A    between atoms: C_2  and  C_14 
REMARK    4  A    between atoms: C_3  and  C_4 
REMARK    5  A    between atoms: C_7  and  O_8 
REMARK    6  A    between atoms: C_9  and  N_11 
REMARK    7  A    between atoms: C_14  and  O_15 
ROOT
HETATM    1  C   UNK N   1      34.569  15.043   9.936  0.00  0.00    -0.053 A 
HETATM    2  C   UNK N   1      34.898  13.988   9.081  0.00  0.00     0.010 A 
HETATM    3  C   UNK N   1      35.134  14.235   7.723  0.00  0.00     0.039 A 
HETATM    4  C   UNK N   1      35.047  15.536   7.213  0.00  0.00     0.098 A 
HETATM    5  C   UNK N   1      34.697  16.607   8.071  0.00  0.00     0.136 A 
HETATM    6  C   UNK N   1      34.478  16.338   9.424  0.00  0.00     0.046 A 
ENDROOT
BRANCH   1   7
HETATM    7  C   UNK N   1      34.470  14.808  11.417  0.00  0.00     0.074 C 
BRANCH   7   8
HETATM    8  C   UNK N   1      35.265  13.620  11.975  0.00  0.00     0.177 C 
BRANCH   8   9
HETATM    9  N   UNK N   1      34.440  12.420  12.016  0.00  0.00    -0.417 N 
HETATM   10  H   UNK N   1      34.605  11.712  12.731  0.00  0.00     0.150 HD
HETATM   11  H   UNK N   1      33.697  12.289  11.330  0.00  0.00     0.150 HD
ENDBRANCH   8   9
BRANCH   8  12
HETATM   12  C   UNK N   1      35.700  13.964  13.373  0.00  0.00     0.163 C 
HETATM   13  O   UNK N   1      35.081  13.527  14.329  0.00  0.00    -0.648 OA
BRANCH  12  14
HETATM   14  O   UNK N   1      36.783  14.739  13.582  0.00  0.00    -0.775 OA
HETATM   15  H   UNK N   1      36.872  15.351  14.286  0.00  0.00     0.167 HD
ENDBRANCH  12  14
ENDBRANCH   8  12
ENDBRANCH   7   8
ENDBRANCH   1   7
BRANCH   5  16
HETATM   16  N   UNK N   1      34.574  17.952   7.607  0.00  0.00    -0.113 N 
HETATM   17  O   UNK N   1      34.944  18.949   8.386  0.00  0.00    -0.532 OA
HETATM   18  O   UNK N   1      34.131  18.191   6.526  0.00  0.00    -0.532 OA
ENDBRANCH   5  16
BRANCH   4  19
HETATM   19  O   UNK N   1      35.297  15.744   5.908  0.00  0.00    -0.358 OA
HETATM   20  H   UNK N   1      34.941  16.494   5.473  0.00  0.00     0.217 HD
ENDBRANCH   4  19
TORSDOF 7
ENDMDL
