MODEL 1
REMARK VINA RESULT:      -4.6      0.000      0.000
REMARK  2 active torsions:
REMARK  status: ('A' for Active; 'I' for Inactive)
REMARK    1  A    between atoms: S_2  and  O_1 
REMARK    2  A    between atoms: S_2  and  C_4 
ROOT
HETATM    1  C   UNK N   1      33.197  17.589   7.129  0.00  0.00     0.059 A 
HETATM    2  C   UNK N   1      31.844  17.327   7.361  0.00  0.00     0.023 A 
HETATM    3  C   UNK N   1      30.995  17.035   6.287  0.00  0.00     0.002 A 
HETATM    4  C   UNK N   1      31.501  17.005   4.984  0.00  0.00     0.000 A 
HETATM    5  C   UNK N   1      32.855  17.267   4.753  0.00  0.00     0.002 A 
HETATM    6  C   UNK N   1      33.703  17.559   5.825  0.00  0.00     0.023 A 
ENDROOT
BRANCH   1   7
HETATM    7  S   UNK N   1      34.290  17.962   8.491  0.00  0.00     0.187 S 
HETATM    8  O   UNK N   1      35.266  19.147   8.409  0.00  0.00    -0.223 OA
BRANCH   7   9
HETATM    9  O   UNK N   1      34.420  17.134   9.987  0.00  0.00    -0.302 OA
HETATM   10  H   UNK N   1      35.279  16.788  10.277  0.00  0.00     0.230 HD
ENDBRANCH   7   9
ENDBRANCH   1   7
TORSDOF 2
ENDMDL
MODEL 2
REMARK VINA RESULT:      -4.5      0.086      1.617
REMARK  2 active torsions:
REMARK  status: ('A' for Active; 'I' for Inactive)
REMARK    1  A    between atoms: S_2  and  O_1 
REMARK    2  A    between atoms: S_2  and  C_4 
ROOT
HETATM    1  C   UNK N   1      33.186  17.583   7.057  0.00  0.00     0.059 A 
HETATM    2  C   UNK N   1      33.655  17.563   5.741  0.00  0.00     0.023 A 
HETATM    3  C   UNK N   1      32.778  17.269   4.691  0.00  0.00     0.002 A 
HETATM    4  C   UNK N   1      31.434  16.996   4.959  0.00  0.00     0.000 A 
HETATM    5  C   UNK N   1      30.964  17.017   6.276  0.00  0.00     0.002 A 
HETATM    6  C   UNK N   1      31.840  17.311   7.325  0.00  0.00     0.023 A 
ENDROOT
BRANCH   1   7
HETATM    7  S   UNK N   1      34.296  17.957   8.405  0.00  0.00     0.187 S 
HETATM    8  O   UNK N   1      35.317  19.100   8.285  0.00  0.00    -0.223 OA
BRANCH   7   9
HETATM    9  O   UNK N   1      34.398  17.170   9.926  0.00  0.00    -0.302 OA
HETATM   10  H   UNK N   1      34.113  16.247  10.015  0.00  0.00     0.230 HD
ENDBRANCH   7   9
ENDBRANCH   1   7
TORSDOF 2
ENDMDL
MODEL 3
REMARK VINA RESULT:      -4.4     10.504     11.558
REMARK  2 active torsions:
REMARK  status: ('A' for Active; 'I' for Inactive)
REMARK    1  A    between atoms: S_2  and  O_1 
REMARK    2  A    between atoms: S_2  and  C_4 
ROOT
HETATM    1  C   UNK N   1      35.571  12.786  16.338  0.00  0.00     0.059 A 
HETATM    2  C   UNK N   1      35.772  11.423  16.573  0.00  0.00     0.023 A 
HETATM    3  C   UNK N   1      35.663  10.915  17.872  0.00  0.00     0.002 A 
HETATM    4  C   UNK N   1      35.354  11.771  18.933  0.00  0.00     0.000 A 
HETATM    5  C   UNK N   1      35.153  13.134  18.698  0.00  0.00     0.002 A 
HETATM    6  C   UNK N   1      35.262  13.642  17.400  0.00  0.00     0.023 A 
ENDROOT
BRANCH   1   7
HETATM    7  S   UNK N   1      35.706  13.446  14.684  0.00  0.00     0.187 S 
HETATM    8  O   UNK N   1      34.685  13.061  13.601  0.00  0.00    -0.223 OA
BRANCH   7   9
HETATM    9  O   UNK N   1      36.896  14.525  14.081  0.00  0.00    -0.302 OA
HETATM   10  H   UNK N   1      37.117  15.329  14.577  0.00  0.00     0.230 HD
ENDBRANCH   7   9
ENDBRANCH   1   7
TORSDOF 2
ENDMDL
MODEL 4
REMARK VINA RESULT:      -4.3     10.941     12.009
REMARK  2 active torsions:
REMARK  status: ('A' for Active; 'I' for Inactive)
REMARK    1  A    between atoms: S_2  and  O_1 
REMARK    2  A    between atoms: S_2  and  C_4 
ROOT
HETATM    1  C   UNK N   1      22.938  13.023  10.179  0.00  0.00     0.059 A 
HETATM    2  C   UNK N   1      21.935  13.771   9.557  0.00  0.00     0.023 A 
HETATM    3  C   UNK N   1      20.602  13.618   9.952  0.00  0.00     0.002 A 
HETATM    4  C   UNK N   1      20.274  12.717  10.969  0.00  0.00     0.000 A 
HETATM    5  C   UNK N   1      21.277  11.968  11.591  0.00  0.00     0.002 A 
HETATM    6  C   UNK N   1      22.609  12.121  11.197  0.00  0.00     0.023 A 
ENDROOT
BRANCH   1   7
HETATM    7  S   UNK N   1      24.643  13.210   9.683  0.00  0.00     0.187 S 
HETATM    8  O   UNK N   1      25.063  12.980   8.222  0.00  0.00    -0.223 OA
BRANCH   7   9
HETATM    9  O   UNK N   1      25.980  13.638  10.668  0.00  0.00    -0.302 OA
HETATM   10  H   UNK N   1      25.870  13.712  11.630  0.00  0.00     0.230 HD
ENDBRANCH   7   9
ENDBRANCH   1   7
TORSDOF 2
ENDMDL
MODEL 5
REMARK VINA RESULT:      -4.3     11.859     12.868
REMARK  2 active torsions:
REMARK  status: ('A' for Active; 'I' for Inactive)
REMARK    1  A    between atoms: S_2  and  O_1 
REMARK    2  A    between atoms: S_2  and  C_4 
ROOT
HETATM    1  C   UNK N   1      22.168  12.985   9.948  0.00  0.00     0.059 A 
HETATM    2  C   UNK N   1      23.422  13.193   9.370  0.00  0.00     0.023 A 
HETATM    3  C   UNK N   1      24.575  12.734  10.016  0.00  0.00     0.002 A 
HETATM    4  C   UNK N   1      24.471  12.068  11.241  0.00  0.00     0.000 A 
HETATM    5  C   UNK N   1      23.216  11.859  11.820  0.00  0.00     0.002 A 
HETATM    6  C   UNK N   1      22.063  12.318  11.174  0.00  0.00     0.023 A 
ENDROOT
BRANCH   1   7
HETATM    7  S   UNK N   1      20.689  13.566   9.132  0.00  0.00     0.187 S 
HETATM    8  O   UNK N   1      19.486  14.061   9.951  0.00  0.00    -0.223 OA
BRANCH   7   9
HETATM    9  O   UNK N   1      20.392  13.660   7.446  0.00  0.00    -0.302 OA
HETATM   10  H   UNK N   1      19.952  14.441   7.073  0.00  0.00     0.230 HD
ENDBRANCH   7   9
ENDBRANCH   1   7
TORSDOF 2
ENDMDL
MODEL 6
REMARK VINA RESULT:      -4.3      5.218      5.924
REMARK  2 active torsions:
REMARK  status: ('A' for Active; 'I' for Inactive)
REMARK    1  A    between atoms: S_2  and  O_1 
REMARK    2  A    between atoms: S_2  and  C_4 
ROOT
HETATM    1  C   UNK N   1      27.878  19.193   6.500  0.00  0.00     0.059 A 
HETATM    2  C   UNK N   1      28.056  18.427   5.345  0.00  0.00     0.023 A 
HETATM    3  C   UNK N   1      27.640  18.925   4.105  0.00  0.00     0.002 A 
HETATM    4  C   UNK N   1      27.046  20.188   4.023  0.00  0.00     0.000 A 
HETATM    5  C   UNK N   1      26.869  20.954   5.178  0.00  0.00     0.002 A 
HETATM    6  C   UNK N   1      27.285  20.457   6.418  0.00  0.00     0.023 A 
ENDROOT
BRANCH   1   7
HETATM    7  S   UNK N   1      28.406  18.569   8.088  0.00  0.00     0.187 S 
HETATM    8  O   UNK N   1      29.898  18.352   8.388  0.00  0.00    -0.223 OA
BRANCH   7   9
HETATM    9  O   UNK N   1      27.420  18.143   9.426  0.00  0.00    -0.302 OA
HETATM   10  H   UNK N   1      27.824  17.788  10.233  0.00  0.00     0.230 HD
ENDBRANCH   7   9
ENDBRANCH   1   7
TORSDOF 2
ENDMDL
MODEL 7
REMARK VINA RESULT:      -4.2      4.159      4.750
REMARK  2 active torsions:
REMARK  status: ('A' for Active; 'I' for Inactive)
REMARK    1  A    between atoms: S_2  and  O_1 
REMARK    2  A    between atoms: S_2  and  C_4 
ROOT
HETATM    1  C   UNK N   1      29.930  17.762   8.028  0.00  0.00     0.059 A 
HETATM    2  C   UNK N   1      31.067  18.054   8.786  0.00  0.00     0.023 A 
HETATM    3  C   UNK N   1      32.340  17.832   8.250  0.00  0.00     0.002 A 
HETATM    4  C   UNK N   1      32.473  17.318   6.957  0.00  0.00     0.000 A 
HETATM    5  C   UNK N   1      31.336  17.026   6.198  0.00  0.00     0.002 A 
HETATM    6  C   UNK N   1      30.063  17.248   6.734  0.00  0.00     0.023 A 
ENDROOT
BRANCH   1   7
HETATM    7  S   UNK N   1      28.300  18.041   8.702  0.00  0.00     0.187 S 
HETATM    8  O   UNK N   1      27.664  17.022   9.661  0.00  0.00    -0.223 OA
BRANCH   7   9
HETATM    9  O   UNK N   1      27.263  19.377   8.415  0.00  0.00    -0.302 OA
HETATM   10  H   UNK N   1      26.337  19.344   8.703  0.00  0.00     0.230 HD
ENDBRANCH   7   9
ENDBRANCH   1   7
TORSDOF 2
ENDMDL
MODEL 8
REMARK VINA RESULT:      -4.1     15.783     16.619
REMARK  2 active torsions:
REMARK  status: ('A' for Active; 'I' for Inactive)
REMARK    1  A    between atoms: S_2  and  O_1 
REMARK    2  A    between atoms: S_2  and  C_4 
ROOT
HETATM    1  C   UNK N   1      26.134  27.492  -4.101  0.00  0.00     0.059 A 
HETATM    2  C   UNK N   1      25.422  27.472  -5.303  0.00  0.00     0.023 A 
HETATM    3  C   UNK N   1      25.135  26.252  -5.926  0.00  0.00     0.002 A 
HETATM    4  C   UNK N   1      25.561  25.054  -5.344  0.00  0.00     0.000 A 
HETATM    5  C   UNK N   1      26.273  25.074  -4.141  0.00  0.00     0.002 A 
HETATM    6  C   UNK N   1      26.560  26.293  -3.519  0.00  0.00     0.023 A 
ENDROOT
BRANCH   1   7
HETATM    7  S   UNK N   1      26.506  29.043  -3.299  0.00  0.00     0.187 S 
HETATM    8  O   UNK N   1      27.414  29.085  -2.058  0.00  0.00    -0.223 OA
BRANCH   7   9
HETATM    9  O   UNK N   1      25.960  30.608  -3.739  0.00  0.00    -0.302 OA
HETATM   10  H   UNK N   1      25.100  30.929  -3.425  0.00  0.00     0.230 HD
ENDBRANCH   7   9
ENDBRANCH   1   7
TORSDOF 2
ENDMDL
MODEL 9
REMARK VINA RESULT:      -4.1      1.623      2.497
REMARK  2 active torsions:
REMARK  status: ('A' for Active; 'I' for Inactive)
REMARK    1  A    between atoms: S_2  and  O_1 
REMARK    2  A    between atoms: S_2  and  C_4 
ROOT
HETATM    1  C   UNK N   1      32.196  17.629   7.560  0.00  0.00     0.059 A 
HETATM    2  C   UNK N   1      31.503  18.057   8.694  0.00  0.00     0.023 A 
HETATM    3  C   UNK N   1      30.115  17.892   8.770  0.00  0.00     0.002 A 
HETATM    4  C   UNK N   1      29.424  17.298   7.710  0.00  0.00     0.000 A 
HETATM    5  C   UNK N   1      30.117  16.869   6.575  0.00  0.00     0.002 A 
HETATM    6  C   UNK N   1      31.504  17.034   6.499  0.00  0.00     0.023 A 
ENDROOT
BRANCH   1   7
HETATM    7  S   UNK N   1      33.966  17.835   7.452  0.00  0.00     0.187 S 
HETATM    8  O   UNK N   1      34.806  16.925   6.540  0.00  0.00    -0.223 OA
BRANCH   7   9
HETATM    9  O   UNK N   1      34.939  18.982   8.276  0.00  0.00    -0.302 OA
HETATM   10  H   UNK N   1      34.618  19.393   9.094  0.00  0.00     0.230 HD
ENDBRANCH   7   9
ENDBRANCH   1   7
TORSDOF 2
ENDMDL
