REMARK  7 active torsions:
REMARK  status: ('A' for Active; 'I' for Inactive)
REMARK    1  A    between atoms: C_2  and  C_4 
REMARK    2  A    between atoms: C_4  and  S_5 
REMARK    3  A    between atoms: S_5  and  C_6 
REMARK    4  A    between atoms: C_6  and  C_7 
REMARK    5  A    between atoms: C_7  and  N_8 
REMARK    6  A    between atoms: C_7  and  C_9 
REMARK    7  A    between atoms: C_9  and  O_10 
ROOT
HETATM    1  C   UNK N   1       5.127   2.082   0.000  0.00  0.00     0.182 C 
ENDROOT
BRANCH   1   2
HETATM    2  C   UNK N   1       3.593   1.930  -0.000  0.00  0.00     0.110 C 
BRANCH   2   3
HETATM    3  S   UNK N   1       3.039   0.189   0.000  0.00  0.00    -0.159 SA
BRANCH   3   4
HETATM    4  C   UNK N   1       1.197   0.259  -0.000  0.00  0.00     0.151 C 
BRANCH   4   5
HETATM    5  C   UNK N   1       0.427   1.549   0.000  0.00  0.00     0.132 C 
HETATM    6  C   UNK N   1      -1.061   1.480  -0.000  0.00  0.00     0.091 C 
HETATM    7  O   UNK N   1       0.977   2.636   0.000  0.00  0.00    -0.298 OA
ENDBRANCH   4   5
ENDBRANCH   3   4
ENDBRANCH   2   3
ENDBRANCH   1   2
BRANCH   1   8
HETATM    8  N   UNK N   1       5.631   3.445  -0.000  0.00  0.00    -0.417 N 
HETATM    9  H   UNK N   1       6.637   3.617  -0.000  0.00  0.00     0.150 HD
HETATM   10  H   UNK N   1       4.980   4.230  -0.000  0.00  0.00     0.150 HD
ENDBRANCH   1   8
BRANCH   1  11
HETATM   11  C   UNK N   1       6.172   0.987  -0.000  0.00  0.00     0.163 C 
HETATM   12  O   UNK N   1       5.851  -0.189  -0.000  0.00  0.00    -0.648 OA
BRANCH  11  13
HETATM   13  O   UNK N   1       7.479   1.310  -0.000  0.00  0.00    -0.775 OA
HETATM   14  H   UNK N   1       8.128   0.634   0.000  0.00  0.00     0.167 HD
ENDBRANCH  11  13
ENDBRANCH   1  11
TORSDOF 7
