MODEL 1
REMARK VINA RESULT:      -8.2      0.000      0.000
REMARK  24 active torsions:
REMARK  status: ('A' for Active; 'I' for Inactive)
REMARK    1  A    between atoms: C_10  and  C_4 
REMARK    2  A    between atoms: O_52  and  C_4 
REMARK    3  A    between atoms: C_11  and  C_5 
REMARK    4  A    between atoms: O_53  and  C_5 
REMARK    5  A    between atoms: C_9  and  N_32 
REMARK    6  A    between atoms: C_12  and  N_35 
REMARK    7  A    between atoms: C_14  and  O_37 
REMARK    8  A    between atoms: C_15  and  O_38 
REMARK    9  A    between atoms: N_21  and  C_16 
REMARK   10  A    between atoms: O_39  and  C_18 
REMARK   11  A    between atoms: C_19  and  N_36 
REMARK   12  A    between atoms: N_34  and  N_22 
REMARK   13  A    between atoms: N_34  and  N_32 
REMARK   14  A    between atoms: P_64  and  O_50 
REMARK   15  A    between atoms: P_60  and  O_52 
REMARK   16  A    between atoms: P_61  and  O_53 
REMARK   17  A    between atoms: P_60  and  O_56 
REMARK   18  A    between atoms: P_62  and  O_56 
REMARK   19  A    between atoms: P_61  and  O_57 
REMARK   20  A    between atoms: P_63  and  O_57 
REMARK   21  A    between atoms: P_62  and  O_58 
REMARK   22  A    between atoms: P_64  and  O_58 
REMARK   23  A    between atoms: P_63  and  O_59 
REMARK   24  A    between atoms: P_64  and  O_59 
ROOT
HETATM    1  O   UNK N   1      32.669  14.387   2.572  0.00  0.00    -0.631 OA
HETATM    2  P   UNK N   1      32.028  14.996   3.849  0.00  0.00     0.411 P 
ENDROOT
BRANCH   2   3
HETATM    3  O   UNK N   1      31.123  16.402   3.374  0.00  0.00    -0.306 OA
HETATM    4  H   UNK N   1      31.200  17.302   3.728  0.00  0.00     0.222 HD
ENDBRANCH   2   3
BRANCH   2   5
HETATM    5  O   UNK N   1      30.997  13.805   4.523  0.00  0.00    -0.187 OA
BRANCH   5   6
HETATM    6  P   UNK N   1      29.356  14.381   4.333  0.00  0.00     0.426 P 
HETATM    7  O   UNK N   1      28.967  14.911   2.726  0.00  0.00    -0.624 OA
HETATM    8  O   UNK N   1      29.247  15.652   5.219  0.00  0.00    -0.624 OA
BRANCH   6   9
HETATM    9  O   UNK N   1      28.201  13.252   4.982  0.00  0.00    -0.180 OA
BRANCH   9  10
HETATM   10  P   UNK N   1      26.637  14.043   5.001  0.00  0.00     0.417 P 
HETATM   11  O   UNK N   1      25.379  12.926   4.582  0.00  0.00    -0.624 OA
HETATM   12  O   UNK N   1      26.369  14.436   6.478  0.00  0.00    -0.624 OA
BRANCH  10  13
HETATM   13  O   UNK N   1      26.503  15.517   4.060  0.00  0.00    -0.287 OA
BRANCH  13  14
HETATM   14  C   UNK N   1      25.843  16.446   4.885  0.00  0.00     0.215 C 
BRANCH  14  15
HETATM   15  C   UNK N   1      25.073  17.431   4.060  0.00  0.00     0.173 C 
HETATM   16  C   UNK N   1      25.858  18.662   3.600  0.00  0.00     0.149 C 
HETATM   17  C   UNK N   1      24.789  19.707   3.562  0.00  0.00     0.084 C 
HETATM   18  C   UNK N   1      23.614  19.093   4.321  0.00  0.00     0.234 C 
HETATM   19  O   UNK N   1      23.993  17.853   4.829  0.00  0.00    -0.356 OA
BRANCH  16  20
HETATM   20  N   UNK N   1      26.910  19.067   4.521  0.00  0.00    -0.245 N 
ATOM     21  HN  UNK N   1      26.700  19.670   5.315  1.00  0.00     0.197 HD
BRANCH  20  22
HETATM   22  N   UNK N   1      28.047  18.672   4.324  0.00  0.00    -0.248 NA
BRANCH  22  23
HETATM   23  N   UNK N   1      29.181  18.278   4.121  0.00  0.00    -0.261 N 
HETATM   24  H   UNK N   1      29.710  17.707   4.723  0.00  0.00     0.193 HD
ATOM     25  HN  UNK N   1      29.622  18.566   3.247  1.00  0.00     0.193 HD
ENDBRANCH  22  23
ENDBRANCH  20  22
ENDBRANCH  16  20
BRANCH  18  26
HETATM   26  N   UNK N   1      22.363  18.954   3.562  0.00  0.00    -0.282 N 
HETATM   27  C   UNK N   1      21.748  17.737   3.619  0.00  0.00     0.109 A 
HETATM   28  C   UNK N   1      20.453  17.567   3.167  0.00  0.00     0.005 A 
HETATM   29  C   UNK N   1      19.808  16.229   3.269  0.00  0.00     0.054 C 
HETATM   30  C   UNK N   1      19.762  18.680   2.691  0.00  0.00     0.151 A 
HETATM   31  N   UNK N   1      20.397  19.873   2.584  0.00  0.00    -0.288 N 
HETATM   32  C   UNK N   1      21.692  20.027   3.000  0.00  0.00     0.330 A 
ATOM     33  HN  UNK N   1      19.901  20.671   2.187  1.00  0.00     0.172 HD
HETATM   34  O   UNK N   1      22.208  21.128   2.929  0.00  0.00    -0.246 OA
BRANCH  30  35
HETATM   35  O   UNK N   1      18.465  18.585   2.361  0.00  0.00    -0.346 OA
ATOM     36  HO  UNK N   1      17.804  19.048   2.863  1.00  0.00     0.219 HD
ENDBRANCH  30  35
ENDBRANCH  18  26
ENDBRANCH  14  15
ENDBRANCH  13  14
ENDBRANCH  10  13
ENDBRANCH   9  10
ENDBRANCH   6   9
ENDBRANCH   5   6
ENDBRANCH   2   5
BRANCH   2  37
HETATM   37  O   UNK N   1      33.266  15.321   5.017  0.00  0.00    -0.187 OA
BRANCH  37  38
HETATM   38  P   UNK N   1      33.163  17.027   5.454  0.00  0.00     0.426 P 
HETATM   39  O   UNK N   1      34.534  17.463   6.425  0.00  0.00    -0.624 OA
HETATM   40  O   UNK N   1      33.300  17.934   4.208  0.00  0.00    -0.624 OA
BRANCH  38  41
HETATM   41  O   UNK N   1      31.668  17.454   6.249  0.00  0.00    -0.180 OA
BRANCH  41  42
HETATM   42  P   UNK N   1      31.803  16.907   7.899  0.00  0.00     0.417 P 
HETATM   43  O   UNK N   1      30.261  16.848   8.705  0.00  0.00    -0.624 OA
HETATM   44  O   UNK N   1      32.657  17.947   8.666  0.00  0.00    -0.624 OA
BRANCH  42  45
HETATM   45  O   UNK N   1      32.641  15.396   8.020  0.00  0.00    -0.287 OA
BRANCH  45  46
HETATM   46  C   UNK N   1      32.659  15.216   9.395  0.00  0.00     0.216 C 
BRANCH  46  47
HETATM   47  C   UNK N   1      33.931  14.667   9.920  0.00  0.00     0.180 C 
HETATM   48  C   UNK N   1      35.102  15.514   9.483  0.00  0.00     0.182 C 
HETATM   49  C   UNK N   1      36.072  15.082  10.520  0.00  0.00     0.198 C 
HETATM   50  C   UNK N   1      35.158  15.096  11.756  0.00  0.00     0.262 C 
HETATM   51  O   UNK N   1      33.864  14.753  11.316  0.00  0.00    -0.353 OA
BRANCH  48  52
HETATM   52  O   UNK N   1      35.519  15.211   8.183  0.00  0.00    -0.390 OA
HETATM   53  H   UNK N   1      36.298  15.440   7.652  0.00  0.00     0.210 HD
ENDBRANCH  48  52
BRANCH  49  54
HETATM   54  O   UNK N   1      37.155  15.956  10.621  0.00  0.00    -0.388 OA
HETATM   55  H   UNK N   1      37.980  15.904  11.129  0.00  0.00     0.210 HD
ENDBRANCH  49  54
BRANCH  50  56
HETATM   56  N   UNK N   1      35.551  14.138  12.785  0.00  0.00    -0.297 N 
HETATM   57  C   UNK N   1      36.356  14.416  13.845  0.00  0.00     0.188 A 
HETATM   58  N   UNK N   1      36.546  13.321  14.628  0.00  0.00    -0.346 N 
HETATM   59  C   UNK N   1      35.839  12.354  14.018  0.00  0.00     0.122 A 
ATOM     60  HN  UNK N   1      37.098  13.249  15.483  1.00  0.00     0.167 HD
HETATM   61  C   UNK N   1      35.694  11.021  14.349  0.00  0.00     0.131 A 
HETATM   62  C   UNK N   1      35.237  12.846  12.920  0.00  0.00     0.142 A 
HETATM   63  N   UNK N   1      34.919  10.240  13.538  0.00  0.00    -0.337 N 
HETATM   64  C   UNK N   1      34.304  10.766  12.428  0.00  0.00     0.183 A 
ATOM     65  HN  UNK N   1      34.796   9.252  13.760  1.00  0.00     0.168 HD
HETATM   66  N   UNK N   1      34.467  12.085  12.107  0.00  0.00    -0.336 N 
ATOM     67  HN  UNK N   1      34.020  12.483  11.281  1.00  0.00     0.168 HD
BRANCH  61  68
HETATM   68  N   UNK N   1      36.339  10.473  15.474  0.00  0.00    -0.383 N 
HETATM   69  H   UNK N   1      36.290   9.509  15.670  0.00  0.00     0.157 HD
HETATM   70  H   UNK N   1      36.849  11.063  16.075  0.00  0.00     0.157 HD
ENDBRANCH  61  68
ENDBRANCH  50  56
ENDBRANCH  46  47
ENDBRANCH  45  46
ENDBRANCH  42  45
ENDBRANCH  41  42
ENDBRANCH  38  41
ENDBRANCH  37  38
ENDBRANCH   2  37
TORSDOF 24
ENDMDL
MODEL 2
REMARK VINA RESULT:      -8.0      3.538      5.097
REMARK  24 active torsions:
REMARK  status: ('A' for Active; 'I' for Inactive)
REMARK    1  A    between atoms: C_10  and  C_4 
REMARK    2  A    between atoms: O_52  and  C_4 
REMARK    3  A    between atoms: C_11  and  C_5 
REMARK    4  A    between atoms: O_53  and  C_5 
REMARK    5  A    between atoms: C_9  and  N_32 
REMARK    6  A    between atoms: C_12  and  N_35 
REMARK    7  A    between atoms: C_14  and  O_37 
REMARK    8  A    between atoms: C_15  and  O_38 
REMARK    9  A    between atoms: N_21  and  C_16 
REMARK   10  A    between atoms: O_39  and  C_18 
REMARK   11  A    between atoms: C_19  and  N_36 
REMARK   12  A    between atoms: N_34  and  N_22 
REMARK   13  A    between atoms: N_34  and  N_32 
REMARK   14  A    between atoms: P_64  and  O_50 
REMARK   15  A    between atoms: P_60  and  O_52 
REMARK   16  A    between atoms: P_61  and  O_53 
REMARK   17  A    between atoms: P_60  and  O_56 
REMARK   18  A    between atoms: P_62  and  O_56 
REMARK   19  A    between atoms: P_61  and  O_57 
REMARK   20  A    between atoms: P_63  and  O_57 
REMARK   21  A    between atoms: P_62  and  O_58 
REMARK   22  A    between atoms: P_64  and  O_58 
REMARK   23  A    between atoms: P_63  and  O_59 
REMARK   24  A    between atoms: P_64  and  O_59 
ROOT
HETATM    1  O   UNK N   1      30.002  15.576   4.850  0.00  0.00    -0.631 OA
HETATM    2  P   UNK N   1      30.811  16.607   5.684  0.00  0.00     0.411 P 
ENDROOT
BRANCH   2   3
HETATM    3  O   UNK N   1      31.234  17.927   4.635  0.00  0.00    -0.306 OA
HETATM    4  H   UNK N   1      32.060  18.436   4.630  0.00  0.00     0.222 HD
ENDBRANCH   2   3
BRANCH   2   5
HETATM    5  O   UNK N   1      29.800  17.141   6.960  0.00  0.00    -0.187 OA
BRANCH   5   6
HETATM    6  P   UNK N   1      28.306  17.689   6.235  0.00  0.00     0.426 P 
HETATM    7  O   UNK N   1      28.495  18.408   4.666  0.00  0.00    -0.624 OA
HETATM    8  O   UNK N   1      27.786  18.834   7.147  0.00  0.00    -0.624 OA
BRANCH   6   9
HETATM    9  O   UNK N   1      27.079  16.455   6.281  0.00  0.00    -0.180 OA
BRANCH   9  10
HETATM   10  P   UNK N   1      25.958  16.769   4.972  0.00  0.00     0.417 P 
HETATM   11  O   UNK N   1      25.459  18.430   4.976  0.00  0.00    -0.624 OA
HETATM   12  O   UNK N   1      26.765  16.581   3.659  0.00  0.00    -0.624 OA
BRANCH  10  13
HETATM   13  O   UNK N   1      24.573  15.700   4.863  0.00  0.00    -0.287 OA
BRANCH  13  14
HETATM   14  C   UNK N   1      23.463  16.458   5.281  0.00  0.00     0.215 C 
BRANCH  14  15
HETATM   15  C   UNK N   1      22.441  15.580   5.936  0.00  0.00     0.173 C 
HETATM   16  C   UNK N   1      21.015  15.715   5.397  0.00  0.00     0.149 C 
HETATM   17  C   UNK N   1      20.201  15.428   6.618  0.00  0.00     0.084 C 
HETATM   18  C   UNK N   1      21.191  15.510   7.778  0.00  0.00     0.234 C 
HETATM   19  O   UNK N   1      22.438  15.897   7.291  0.00  0.00    -0.356 OA
BRANCH  16  20
HETATM   20  N   UNK N   1      20.698  17.044   4.896  0.00  0.00    -0.245 N 
ATOM     21  HN  UNK N   1      20.981  17.875   5.414  1.00  0.00     0.197 HD
BRANCH  20  22
HETATM   22  N   UNK N   1      20.088  17.146   3.845  0.00  0.00    -0.248 NA
BRANCH  22  23
HETATM   23  N   UNK N   1      19.481  17.254   2.795  0.00  0.00    -0.261 N 
HETATM   24  H   UNK N   1      19.883  17.298   1.898  0.00  0.00     0.193 HD
ATOM     25  HN  UNK N   1      18.463  17.302   2.850  1.00  0.00     0.193 HD
ENDBRANCH  22  23
ENDBRANCH  20  22
ENDBRANCH  16  20
BRANCH  18  26
HETATM   26  N   UNK N   1      21.334  14.290   8.586  0.00  0.00    -0.282 N 
HETATM   27  C   UNK N   1      22.532  13.643   8.504  0.00  0.00     0.109 A 
HETATM   28  C   UNK N   1      22.872  12.648   9.403  0.00  0.00     0.005 A 
HETATM   29  C   UNK N   1      24.199  11.982   9.296  0.00  0.00     0.054 C 
HETATM   30  C   UNK N   1      21.982  12.348  10.432  0.00  0.00     0.151 A 
HETATM   31  N   UNK N   1      20.769  12.954  10.474  0.00  0.00    -0.288 N 
HETATM   32  C   UNK N   1      20.424  13.913   9.560  0.00  0.00     0.330 A 
ATOM     33  HN  UNK N   1      20.102  12.693  11.200  1.00  0.00     0.172 HD
HETATM   34  O   UNK N   1      19.344  14.466   9.662  0.00  0.00    -0.246 OA
BRANCH  30  35
HETATM   35  O   UNK N   1      22.324  11.480  11.396  0.00  0.00    -0.346 OA
ATOM     36  HO  UNK N   1      21.670  10.912  11.789  1.00  0.00     0.219 HD
ENDBRANCH  30  35
ENDBRANCH  18  26
ENDBRANCH  14  15
ENDBRANCH  13  14
ENDBRANCH  10  13
ENDBRANCH   9  10
ENDBRANCH   6   9
ENDBRANCH   5   6
ENDBRANCH   2   5
BRANCH   2  37
HETATM   37  O   UNK N   1      32.175  15.820   6.407  0.00  0.00    -0.187 OA
BRANCH  37  38
HETATM   38  P   UNK N   1      33.626  16.378   5.572  0.00  0.00     0.426 P 
HETATM   39  O   UNK N   1      34.893  15.206   5.761  0.00  0.00    -0.624 OA
HETATM   40  O   UNK N   1      33.407  16.426   4.040  0.00  0.00    -0.624 OA
BRANCH  38  41
HETATM   41  O   UNK N   1      34.155  17.963   6.074  0.00  0.00    -0.180 OA
BRANCH  41  42
HETATM   42  P   UNK N   1      34.148  17.966   7.817  0.00  0.00     0.417 P 
HETATM   43  O   UNK N   1      32.576  18.321   8.473  0.00  0.00    -0.624 OA
HETATM   44  O   UNK N   1      35.085  19.108   8.286  0.00  0.00    -0.624 OA
BRANCH  42  45
HETATM   45  O   UNK N   1      34.795  16.500   8.476  0.00  0.00    -0.287 OA
BRANCH  45  46
HETATM   46  C   UNK N   1      33.915  16.272   9.523  0.00  0.00     0.216 C 
BRANCH  46  47
HETATM   47  C   UNK N   1      34.041  14.933  10.143  0.00  0.00     0.180 C 
HETATM   48  C   UNK N   1      34.806  13.994   9.241  0.00  0.00     0.182 C 
HETATM   49  C   UNK N   1      35.216  13.004  10.269  0.00  0.00     0.198 C 
HETATM   50  C   UNK N   1      35.630  13.956  11.401  0.00  0.00     0.262 C 
HETATM   51  O   UNK N   1      34.804  15.094  11.306  0.00  0.00    -0.353 OA
BRANCH  48  52
HETATM   52  O   UNK N   1      33.999  13.444   8.241  0.00  0.00    -0.390 OA
HETATM   53  H   UNK N   1      33.045  13.293   8.149  0.00  0.00     0.210 HD
ENDBRANCH  48  52
BRANCH  49  54
HETATM   54  O   UNK N   1      36.256  12.186   9.823  0.00  0.00    -0.388 OA
HETATM   55  H   UNK N   1      36.777  12.194   9.005  0.00  0.00     0.210 HD
ENDBRANCH  49  54
BRANCH  50  56
HETATM   56  N   UNK N   1      35.458  13.388  12.735  0.00  0.00    -0.297 N 
HETATM   57  C   UNK N   1      34.727  12.279  13.024  0.00  0.00     0.188 A 
HETATM   58  N   UNK N   1      34.750  11.999  14.354  0.00  0.00    -0.346 N 
HETATM   59  C   UNK N   1      35.513  12.972  14.882  0.00  0.00     0.122 A 
ATOM     60  HN  UNK N   1      34.293  11.227  14.841  1.00  0.00     0.167 HD
HETATM   61  C   UNK N   1      35.855  13.213  16.198  0.00  0.00     0.131 A 
HETATM   62  C   UNK N   1      35.944  13.798  13.911  0.00  0.00     0.142 A 
HETATM   63  N   UNK N   1      36.643  14.296  16.468  0.00  0.00    -0.337 N 
HETATM   64  C   UNK N   1      37.081  15.120  15.459  0.00  0.00     0.183 A 
ATOM     65  HN  UNK N   1      36.910  14.496  17.431  1.00  0.00     0.168 HD
HETATM   66  N   UNK N   1      36.724  14.875  14.162  0.00  0.00    -0.336 N 
ATOM     67  HN  UNK N   1      37.038  15.485  13.407  1.00  0.00     0.168 HD
BRANCH  61  68
HETATM   68  N   UNK N   1      35.391  12.383  17.237  0.00  0.00    -0.383 N 
HETATM   69  H   UNK N   1      34.687  12.687  17.855  0.00  0.00     0.157 HD
HETATM   70  H   UNK N   1      35.776  11.484  17.347  0.00  0.00     0.157 HD
ENDBRANCH  61  68
ENDBRANCH  50  56
ENDBRANCH  46  47
ENDBRANCH  45  46
ENDBRANCH  42  45
ENDBRANCH  41  42
ENDBRANCH  38  41
ENDBRANCH  37  38
ENDBRANCH   2  37
TORSDOF 24
ENDMDL
MODEL 3
REMARK VINA RESULT:      -7.9      7.730     11.965
REMARK  24 active torsions:
REMARK  status: ('A' for Active; 'I' for Inactive)
REMARK    1  A    between atoms: C_10  and  C_4 
REMARK    2  A    between atoms: O_52  and  C_4 
REMARK    3  A    between atoms: C_11  and  C_5 
REMARK    4  A    between atoms: O_53  and  C_5 
REMARK    5  A    between atoms: C_9  and  N_32 
REMARK    6  A    between atoms: C_12  and  N_35 
REMARK    7  A    between atoms: C_14  and  O_37 
REMARK    8  A    between atoms: C_15  and  O_38 
REMARK    9  A    between atoms: N_21  and  C_16 
REMARK   10  A    between atoms: O_39  and  C_18 
REMARK   11  A    between atoms: C_19  and  N_36 
REMARK   12  A    between atoms: N_34  and  N_22 
REMARK   13  A    between atoms: N_34  and  N_32 
REMARK   14  A    between atoms: P_64  and  O_50 
REMARK   15  A    between atoms: P_60  and  O_52 
REMARK   16  A    between atoms: P_61  and  O_53 
REMARK   17  A    between atoms: P_60  and  O_56 
REMARK   18  A    between atoms: P_62  and  O_56 
REMARK   19  A    between atoms: P_61  and  O_57 
REMARK   20  A    between atoms: P_63  and  O_57 
REMARK   21  A    between atoms: P_62  and  O_58 
REMARK   22  A    between atoms: P_64  and  O_58 
REMARK   23  A    between atoms: P_63  and  O_59 
REMARK   24  A    between atoms: P_64  and  O_59 
ROOT
HETATM    1  O   UNK N   1      21.498  17.263   7.063  0.00  0.00    -0.631 OA
HETATM    2  P   UNK N   1      21.084  15.800   7.382  0.00  0.00     0.411 P 
ENDROOT
BRANCH   2   3
HETATM    3  O   UNK N   1      22.099  14.743   6.447  0.00  0.00    -0.306 OA
HETATM    4  H   UNK N   1      22.324  14.820   5.506  0.00  0.00     0.222 HD
ENDBRANCH   2   3
BRANCH   2   5
HETATM    5  O   UNK N   1      21.325  15.552   9.059  0.00  0.00    -0.187 OA
BRANCH   5   6
HETATM    6  P   UNK N   1      20.902  13.889   9.398  0.00  0.00     0.426 P 
HETATM    7  O   UNK N   1      20.726  12.896   7.985  0.00  0.00    -0.624 OA
HETATM    8  O   UNK N   1      19.490  13.933  10.044  0.00  0.00    -0.624 OA
BRANCH   6   9
HETATM    9  O   UNK N   1      21.951  13.192  10.600  0.00  0.00    -0.180 OA
BRANCH   9  10
HETATM   10  P   UNK N   1      23.364  12.566   9.775  0.00  0.00     0.417 P 
HETATM   11  O   UNK N   1      24.749  12.599  10.818  0.00  0.00    -0.624 OA
HETATM   12  O   UNK N   1      23.079  11.063   9.511  0.00  0.00    -0.624 OA
BRANCH  10  13
HETATM   13  O   UNK N   1      23.735  13.284   8.219  0.00  0.00    -0.287 OA
BRANCH  13  14
HETATM   14  C   UNK N   1      24.775  12.512   7.671  0.00  0.00     0.215 C 
BRANCH  14  15
HETATM   15  C   UNK N   1      24.450  12.107   6.267  0.00  0.00     0.173 C 
HETATM   16  C   UNK N   1      23.815  10.723   6.110  0.00  0.00     0.149 C 
HETATM   17  C   UNK N   1      24.330  10.303   4.771  0.00  0.00     0.084 C 
HETATM   18  C   UNK N   1      25.457  11.286   4.458  0.00  0.00     0.234 C 
HETATM   19  O   UNK N   1      25.639  12.136   5.546  0.00  0.00    -0.356 OA
BRANCH  16  20
HETATM   20  N   UNK N   1      24.235   9.765   7.121  0.00  0.00    -0.245 N 
ATOM     21  HN  UNK N   1      24.921  10.024   7.828  1.00  0.00     0.197 HD
BRANCH  20  22
HETATM   22  N   UNK N   1      23.750   8.646   7.107  0.00  0.00    -0.248 NA
BRANCH  22  23
HETATM   23  N   UNK N   1      23.267   7.528   7.086  0.00  0.00    -0.261 N 
HETATM   24  H   UNK N   1      23.180   6.952   6.293  0.00  0.00     0.193 HD
ATOM     25  HN  UNK N   1      22.922   7.155   7.971  1.00  0.00     0.193 HD
ENDBRANCH  22  23
ENDBRANCH  20  22
ENDBRANCH  16  20
BRANCH  18  26
HETATM   26  N   UNK N   1      25.291  12.082   3.232  0.00  0.00    -0.282 N 
HETATM   27  C   UNK N   1      24.329  11.663   2.360  0.00  0.00     0.109 A 
HETATM   28  C   UNK N   1      23.910  12.467   1.316  0.00  0.00     0.005 A 
HETATM   29  C   UNK N   1      22.840  11.983   0.400  0.00  0.00     0.054 C 
HETATM   30  C   UNK N   1      24.456  13.743   1.197  0.00  0.00     0.151 A 
HETATM   31  N   UNK N   1      25.452  14.132   2.032  0.00  0.00    -0.288 N 
HETATM   32  C   UNK N   1      25.888  13.317   3.042  0.00  0.00     0.330 A 
ATOM     33  HN  UNK N   1      25.883  15.047   1.907  1.00  0.00     0.172 HD
HETATM   34  O   UNK N   1      26.752  13.724   3.798  0.00  0.00    -0.246 OA
BRANCH  30  35
HETATM   35  O   UNK N   1      23.989  14.600   0.277  0.00  0.00    -0.346 OA
ATOM     36  HO  UNK N   1      24.397  15.450   0.158  1.00  0.00     0.219 HD
ENDBRANCH  30  35
ENDBRANCH  18  26
ENDBRANCH  14  15
ENDBRANCH  13  14
ENDBRANCH  10  13
ENDBRANCH   9  10
ENDBRANCH   6   9
ENDBRANCH   5   6
ENDBRANCH   2   5
BRANCH   2  37
HETATM   37  O   UNK N   1      19.391  15.600   7.073  0.00  0.00    -0.187 OA
BRANCH  37  38
HETATM   38  P   UNK N   1      19.200  15.141   5.380  0.00  0.00     0.426 P 
HETATM   39  O   UNK N   1      18.886  13.438   5.271  0.00  0.00    -0.624 OA
HETATM   40  O   UNK N   1      17.933  15.782   4.765  0.00  0.00    -0.624 OA
BRANCH  38  41
HETATM   41  O   UNK N   1      20.555  15.596   4.377  0.00  0.00    -0.180 OA
BRANCH  41  42
HETATM   42  P   UNK N   1      20.070  15.322   2.725  0.00  0.00     0.417 P 
HETATM   43  O   UNK N   1      18.915  14.028   2.580  0.00  0.00    -0.624 OA
HETATM   44  O   UNK N   1      21.328  14.874   1.939  0.00  0.00    -0.624 OA
BRANCH  42  45
HETATM   45  O   UNK N   1      19.502  16.769   1.962  0.00  0.00    -0.287 OA
BRANCH  45  46
HETATM   46  C   UNK N   1      19.881  17.724   2.893  0.00  0.00     0.216 C 
BRANCH  46  47
HETATM   47  C   UNK N   1      21.157  18.408   2.578  0.00  0.00     0.180 C 
HETATM   48  C   UNK N   1      20.942  19.892   2.405  0.00  0.00     0.182 C 
HETATM   49  C   UNK N   1      22.340  20.335   2.633  0.00  0.00     0.198 C 
HETATM   50  C   UNK N   1      22.702  19.452   3.837  0.00  0.00     0.262 C 
HETATM   51  O   UNK N   1      21.990  18.244   3.692  0.00  0.00    -0.353 OA
BRANCH  48  52
HETATM   52  O   UNK N   1      20.467  20.214   1.129  0.00  0.00    -0.390 OA
HETATM   53  H   UNK N   1      20.302  21.046   0.659  0.00  0.00     0.210 HD
ENDBRANCH  48  52
BRANCH  49  54
HETATM   54  O   UNK N   1      22.419  21.702   2.904  0.00  0.00    -0.388 OA
HETATM   55  H   UNK N   1      22.222  22.213   3.705  0.00  0.00     0.210 HD
ENDBRANCH  49  54
BRANCH  50  56
HETATM   56  N   UNK N   1      24.123  19.128   3.920  0.00  0.00    -0.297 N 
HETATM   57  C   UNK N   1      25.123  19.849   3.346  0.00  0.00     0.188 A 
HETATM   58  N   UNK N   1      26.341  19.296   3.593  0.00  0.00    -0.346 N 
HETATM   59  C   UNK N   1      26.064  18.207   4.331  0.00  0.00     0.122 A 
ATOM     60  HN  UNK N   1      27.255  19.631   3.287  1.00  0.00     0.167 HD
HETATM   61  C   UNK N   1      26.914  17.245   4.840  0.00  0.00     0.131 A 
HETATM   62  C   UNK N   1      24.737  18.112   4.534  0.00  0.00     0.142 A 
HETATM   63  N   UNK N   1      26.363  16.218   5.555  0.00  0.00    -0.337 N 
HETATM   64  C   UNK N   1      25.007  16.147   5.759  0.00  0.00     0.183 A 
ATOM     65  HN  UNK N   1      26.968  15.494   5.941  1.00  0.00     0.168 HD
HETATM   66  N   UNK N   1      24.178  17.101   5.238  0.00  0.00    -0.336 N 
ATOM     67  HN  UNK N   1      23.169  17.053   5.378  1.00  0.00     0.168 HD
BRANCH  61  68
HETATM   68  N   UNK N   1      28.302  17.303   4.615  0.00  0.00    -0.383 N 
HETATM   69  H   UNK N   1      28.890  16.553   4.866  0.00  0.00     0.157 HD
HETATM   70  H   UNK N   1      28.693  18.106   4.200  0.00  0.00     0.157 HD
ENDBRANCH  61  68
ENDBRANCH  50  56
ENDBRANCH  46  47
ENDBRANCH  45  46
ENDBRANCH  42  45
ENDBRANCH  41  42
ENDBRANCH  38  41
ENDBRANCH  37  38
ENDBRANCH   2  37
TORSDOF 24
ENDMDL
MODEL 4
REMARK VINA RESULT:      -7.9      4.056     14.382
REMARK  24 active torsions:
REMARK  status: ('A' for Active; 'I' for Inactive)
REMARK    1  A    between atoms: C_10  and  C_4 
REMARK    2  A    between atoms: O_52  and  C_4 
REMARK    3  A    between atoms: C_11  and  C_5 
REMARK    4  A    between atoms: O_53  and  C_5 
REMARK    5  A    between atoms: C_9  and  N_32 
REMARK    6  A    between atoms: C_12  and  N_35 
REMARK    7  A    between atoms: C_14  and  O_37 
REMARK    8  A    between atoms: C_15  and  O_38 
REMARK    9  A    between atoms: N_21  and  C_16 
REMARK   10  A    between atoms: O_39  and  C_18 
REMARK   11  A    between atoms: C_19  and  N_36 
REMARK   12  A    between atoms: N_34  and  N_22 
REMARK   13  A    between atoms: N_34  and  N_32 
REMARK   14  A    between atoms: P_64  and  O_50 
REMARK   15  A    between atoms: P_60  and  O_52 
REMARK   16  A    between atoms: P_61  and  O_53 
REMARK   17  A    between atoms: P_60  and  O_56 
REMARK   18  A    between atoms: P_62  and  O_56 
REMARK   19  A    between atoms: P_61  and  O_57 
REMARK   20  A    between atoms: P_63  and  O_57 
REMARK   21  A    between atoms: P_62  and  O_58 
REMARK   22  A    between atoms: P_64  and  O_58 
REMARK   23  A    between atoms: P_63  and  O_59 
REMARK   24  A    between atoms: P_64  and  O_59 
ROOT
HETATM    1  O   UNK N   1      32.793  14.562   9.550  0.00  0.00    -0.631 OA
HETATM    2  P   UNK N   1      34.292  14.969   9.562  0.00  0.00     0.411 P 
ENDROOT
BRANCH   2   3
HETATM    3  O   UNK N   1      34.551  16.014  10.927  0.00  0.00    -0.306 OA
HETATM    4  H   UNK N   1      34.867  16.931  10.917  0.00  0.00     0.222 HD
ENDBRANCH   2   3
BRANCH   2   5
HETATM    5  O   UNK N   1      35.213  13.532   9.710  0.00  0.00    -0.187 OA
BRANCH   5   6
HETATM    6  P   UNK N   1      35.711  13.412  11.382  0.00  0.00     0.426 P 
HETATM    7  O   UNK N   1      34.472  13.821  12.527  0.00  0.00    -0.624 OA
HETATM    8  O   UNK N   1      36.815  14.488  11.575  0.00  0.00    -0.624 OA
BRANCH   6   9
HETATM    9  O   UNK N   1      36.476  11.885  11.716  0.00  0.00    -0.180 OA
BRANCH   9  10
HETATM   10  P   UNK N   1      35.211  10.691  11.927  0.00  0.00     0.417 P 
HETATM   11  O   UNK N   1      34.223  10.585  10.506  0.00  0.00    -0.624 OA
HETATM   12  O   UNK N   1      35.928   9.318  12.038  0.00  0.00    -0.624 OA
BRANCH  10  13
HETATM   13  O   UNK N   1      34.223  10.856  13.366  0.00  0.00    -0.287 OA
BRANCH  13  14
HETATM   14  C   UNK N   1      34.861  10.098  14.366  0.00  0.00     0.215 C 
BRANCH  14  15
HETATM   15  C   UNK N   1      34.705  10.750  15.704  0.00  0.00     0.173 C 
HETATM   16  C   UNK N   1      35.179  12.204  15.788  0.00  0.00     0.149 C 
HETATM   17  C   UNK N   1      35.643  12.291  17.206  0.00  0.00     0.084 C 
HETATM   18  C   UNK N   1      35.727  10.841  17.681  0.00  0.00     0.234 C 
HETATM   19  O   UNK N   1      35.430   9.992  16.617  0.00  0.00    -0.356 OA
BRANCH  16  20
HETATM   20  N   UNK N   1      36.281  12.516  14.890  0.00  0.00    -0.245 N 
ATOM     21  HN  UNK N   1      36.683  11.795  14.293  1.00  0.00     0.197 HD
BRANCH  20  22
HETATM   22  N   UNK N   1      36.713  13.657  14.865  0.00  0.00    -0.248 NA
BRANCH  22  23
HETATM   23  N   UNK N   1      37.147  14.793  14.834  0.00  0.00    -0.261 N 
HETATM   24  H   UNK N   1      38.074  15.062  15.028  0.00  0.00     0.193 HD
ATOM     25  HN  UNK N   1      36.492  15.534  14.583  1.00  0.00     0.193 HD
ENDBRANCH  22  23
ENDBRANCH  20  22
ENDBRANCH  16  20
BRANCH  18  26
HETATM   26  N   UNK N   1      34.887  10.495  18.837  0.00  0.00    -0.282 N 
HETATM   27  C   UNK N   1      34.136   9.362  18.726  0.00  0.00     0.109 A 
HETATM   28  C   UNK N   1      33.517   8.802  19.829  0.00  0.00     0.005 A 
HETATM   29  C   UNK N   1      32.725   7.550  19.671  0.00  0.00     0.054 C 
HETATM   30  C   UNK N   1      33.714   9.393  21.075  0.00  0.00     0.151 A 
HETATM   31  N   UNK N   1      34.414  10.551  21.170  0.00  0.00    -0.288 N 
HETATM   32  C   UNK N   1      34.995  11.120  20.068  0.00  0.00     0.330 A 
ATOM     33  HN  UNK N   1      34.511  11.005  22.077  1.00  0.00     0.172 HD
HETATM   34  O   UNK N   1      35.654  12.135  20.206  0.00  0.00    -0.246 OA
BRANCH  30  35
HETATM   35  O   UNK N   1      33.237   8.813  22.187  0.00  0.00    -0.346 OA
ATOM     36  HO  UNK N   1      33.438   9.173  23.043  1.00  0.00     0.219 HD
ENDBRANCH  30  35
ENDBRANCH  18  26
ENDBRANCH  14  15
ENDBRANCH  13  14
ENDBRANCH  10  13
ENDBRANCH   9  10
ENDBRANCH   6   9
ENDBRANCH   5   6
ENDBRANCH   2   5
BRANCH   2  37
HETATM   37  O   UNK N   1      34.706  15.688   8.041  0.00  0.00    -0.187 OA
BRANCH  37  38
HETATM   38  P   UNK N   1      34.246  17.390   8.104  0.00  0.00     0.426 P 
HETATM   39  O   UNK N   1      32.754  17.558   8.975  0.00  0.00    -0.624 OA
HETATM   40  O   UNK N   1      35.250  18.211   8.948  0.00  0.00    -0.624 OA
BRANCH  38  41
HETATM   41  O   UNK N   1      34.145  18.144   6.532  0.00  0.00    -0.180 OA
BRANCH  41  42
HETATM   42  P   UNK N   1      33.388  16.989   5.469  0.00  0.00     0.417 P 
HETATM   43  O   UNK N   1      34.488  15.739   4.959  0.00  0.00    -0.624 OA
HETATM   44  O   UNK N   1      32.963  17.746   4.185  0.00  0.00    -0.624 OA
BRANCH  42  45
HETATM   45  O   UNK N   1      31.941  16.323   6.149  0.00  0.00    -0.287 OA
BRANCH  45  46
HETATM   46  C   UNK N   1      30.976  17.093   5.516  0.00  0.00     0.216 C 
BRANCH  46  47
HETATM   47  C   UNK N   1      29.630  17.004   6.129  0.00  0.00     0.180 C 
HETATM   48  C   UNK N   1      29.580  17.772   7.428  0.00  0.00     0.182 C 
HETATM   49  C   UNK N   1      28.108  17.949   7.510  0.00  0.00     0.198 C 
HETATM   50  C   UNK N   1      27.806  18.318   6.049  0.00  0.00     0.262 C 
HETATM   51  O   UNK N   1      28.741  17.632   5.249  0.00  0.00    -0.353 OA
BRANCH  48  52
HETATM   52  O   UNK N   1      30.104  17.040   8.498  0.00  0.00    -0.390 OA
HETATM   53  H   UNK N   1      30.945  17.057   8.982  0.00  0.00     0.210 HD
ENDBRANCH  48  52
BRANCH  49  54
HETATM   54  O   UNK N   1      27.750  18.945   8.420  0.00  0.00    -0.388 OA
HETATM   55  H   UNK N   1      28.245  19.700   8.778  0.00  0.00     0.210 HD
ENDBRANCH  49  54
BRANCH  50  56
HETATM   56  N   UNK N   1      26.469  17.928   5.611  0.00  0.00    -0.297 N 
HETATM   57  C   UNK N   1      25.884  16.726   5.862  0.00  0.00     0.188 A 
HETATM   58  N   UNK N   1      24.639  16.655   5.322  0.00  0.00    -0.346 N 
HETATM   59  C   UNK N   1      24.472  17.848   4.723  0.00  0.00     0.122 A 
ATOM     60  HN  UNK N   1      23.981  15.876   5.362  1.00  0.00     0.167 HD
HETATM   61  C   UNK N   1      23.407  18.325   3.986  0.00  0.00     0.131 A 
HETATM   62  C   UNK N   1      25.565  18.612   4.905  0.00  0.00     0.142 A 
HETATM   63  N   UNK N   1      23.501  19.587   3.467  0.00  0.00    -0.337 N 
HETATM   64  C   UNK N   1      24.621  20.354   3.675  0.00  0.00     0.183 A 
ATOM     65  HN  UNK N   1      22.728  19.963   2.919  1.00  0.00     0.168 HD
HETATM   66  N   UNK N   1      25.673  19.862   4.397  0.00  0.00    -0.336 N 
ATOM     67  HN  UNK N   1      26.512  20.421   4.551  1.00  0.00     0.168 HD
BRANCH  61  68
HETATM   68  N   UNK N   1      22.265  17.534   3.753  0.00  0.00    -0.383 N 
HETATM   69  H   UNK N   1      21.489  17.573   4.357  0.00  0.00     0.157 HD
HETATM   70  H   UNK N   1      22.243  16.933   2.974  0.00  0.00     0.157 HD
ENDBRANCH  61  68
ENDBRANCH  50  56
ENDBRANCH  46  47
ENDBRANCH  45  46
ENDBRANCH  42  45
ENDBRANCH  41  42
ENDBRANCH  38  41
ENDBRANCH  37  38
ENDBRANCH   2  37
TORSDOF 24
ENDMDL
MODEL 5
REMARK VINA RESULT:      -7.8      5.365     11.359
REMARK  24 active torsions:
REMARK  status: ('A' for Active; 'I' for Inactive)
REMARK    1  A    between atoms: C_10  and  C_4 
REMARK    2  A    between atoms: O_52  and  C_4 
REMARK    3  A    between atoms: C_11  and  C_5 
REMARK    4  A    between atoms: O_53  and  C_5 
REMARK    5  A    between atoms: C_9  and  N_32 
REMARK    6  A    between atoms: C_12  and  N_35 
REMARK    7  A    between atoms: C_14  and  O_37 
REMARK    8  A    between atoms: C_15  and  O_38 
REMARK    9  A    between atoms: N_21  and  C_16 
REMARK   10  A    between atoms: O_39  and  C_18 
REMARK   11  A    between atoms: C_19  and  N_36 
REMARK   12  A    between atoms: N_34  and  N_22 
REMARK   13  A    between atoms: N_34  and  N_32 
REMARK   14  A    between atoms: P_64  and  O_50 
REMARK   15  A    between atoms: P_60  and  O_52 
REMARK   16  A    between atoms: P_61  and  O_53 
REMARK   17  A    between atoms: P_60  and  O_56 
REMARK   18  A    between atoms: P_62  and  O_56 
REMARK   19  A    between atoms: P_61  and  O_57 
REMARK   20  A    between atoms: P_63  and  O_57 
REMARK   21  A    between atoms: P_62  and  O_58 
REMARK   22  A    between atoms: P_64  and  O_58 
REMARK   23  A    between atoms: P_63  and  O_59 
REMARK   24  A    between atoms: P_64  and  O_59 
ROOT
HETATM    1  O   UNK N   1      20.547  17.269   6.096  0.00  0.00    -0.631 OA
HETATM    2  P   UNK N   1      20.586  16.665   4.666  0.00  0.00     0.411 P 
ENDROOT
BRANCH   2   3
HETATM    3  O   UNK N   1      19.148  17.175   3.831  0.00  0.00    -0.306 OA
HETATM    4  H   UNK N   1      18.866  16.929   2.937  0.00  0.00     0.222 HD
ENDBRANCH   2   3
BRANCH   2   5
HETATM    5  O   UNK N   1      21.989  17.270   3.891  0.00  0.00    -0.187 OA
BRANCH   5   6
HETATM    6  P   UNK N   1      21.645  18.919   3.421  0.00  0.00     0.426 P 
HETATM    7  O   UNK N   1      20.654  19.790   4.549  0.00  0.00    -0.624 OA
HETATM    8  O   UNK N   1      20.796  18.822   2.123  0.00  0.00    -0.624 OA
BRANCH   6   9
HETATM    9  O   UNK N   1      23.093  19.775   2.975  0.00  0.00    -0.180 OA
BRANCH   9  10
HETATM   10  P   UNK N   1      24.395  19.182   3.987  0.00  0.00     0.417 P 
HETATM   11  O   UNK N   1      25.531  20.446   4.331  0.00  0.00    -0.624 OA
HETATM   12  O   UNK N   1      23.749  18.821   5.352  0.00  0.00    -0.624 OA
BRANCH  10  13
HETATM   13  O   UNK N   1      25.216  17.737   3.426  0.00  0.00    -0.287 OA
BRANCH  13  14
HETATM   14  C   UNK N   1      25.732  17.112   4.576  0.00  0.00     0.215 C 
BRANCH  14  15
HETATM   15  C   UNK N   1      27.229  17.107   4.548  0.00  0.00     0.173 C 
HETATM   16  C   UNK N   1      27.862  16.629   3.238  0.00  0.00     0.149 C 
HETATM   17  C   UNK N   1      29.127  15.999   3.725  0.00  0.00     0.084 C 
HETATM   18  C   UNK N   1      28.939  15.856   5.234  0.00  0.00     0.234 C 
HETATM   19  O   UNK N   1      27.656  16.276   5.578  0.00  0.00    -0.356 OA
BRANCH  16  20
HETATM   20  N   UNK N   1      27.064  15.643   2.525  0.00  0.00    -0.245 N 
ATOM     21  HN  UNK N   1      26.103  15.850   2.257  1.00  0.00     0.197 HD
BRANCH  20  22
HETATM   22  N   UNK N   1      27.568  14.566   2.251  0.00  0.00    -0.248 NA
BRANCH  22  23
HETATM   23  N   UNK N   1      28.071  13.494   1.972  0.00  0.00    -0.261 N 
HETATM   24  H   UNK N   1      28.804  13.055   2.461  0.00  0.00     0.193 HD
ATOM     25  HN  UNK N   1      27.699  13.004   1.158  1.00  0.00     0.193 HD
ENDBRANCH  22  23
ENDBRANCH  20  22
ENDBRANCH  16  20
BRANCH  18  26
HETATM   26  N   UNK N   1      29.927  16.550   6.072  0.00  0.00    -0.282 N 
HETATM   27  C   UNK N   1      29.441  17.228   7.151  0.00  0.00     0.109 A 
HETATM   28  C   UNK N   1      30.284  17.694   8.144  0.00  0.00     0.005 A 
HETATM   29  C   UNK N   1      29.712  18.409   9.319  0.00  0.00     0.054 C 
HETATM   30  C   UNK N   1      31.645  17.415   8.047  0.00  0.00     0.151 A 
HETATM   31  N   UNK N   1      32.129  16.791   6.944  0.00  0.00    -0.288 N 
HETATM   32  C   UNK N   1      31.294  16.364   5.948  0.00  0.00     0.330 A 
ATOM     33  HN  UNK N   1      33.133  16.636   6.856  1.00  0.00     0.172 HD
HETATM   34  O   UNK N   1      31.765  15.766   4.997  0.00  0.00    -0.246 OA
BRANCH  30  35
HETATM   35  O   UNK N   1      32.479  17.738   9.047  0.00  0.00    -0.346 OA
ATOM     36  HO  UNK N   1      32.181  17.721   9.949  1.00  0.00     0.219 HD
ENDBRANCH  30  35
ENDBRANCH  18  26
ENDBRANCH  14  15
ENDBRANCH  13  14
ENDBRANCH  10  13
ENDBRANCH   9  10
ENDBRANCH   6   9
ENDBRANCH   5   6
ENDBRANCH   2   5
BRANCH   2  37
HETATM   37  O   UNK N   1      20.762  14.945   4.772  0.00  0.00    -0.187 OA
BRANCH  37  38
HETATM   38  P   UNK N   1      19.193  14.218   4.418  0.00  0.00     0.426 P 
HETATM   39  O   UNK N   1      19.116  12.631   5.117  0.00  0.00    -0.624 OA
HETATM   40  O   UNK N   1      18.049  14.980   5.129  0.00  0.00    -0.624 OA
BRANCH  38  41
HETATM   41  O   UNK N   1      18.813  14.174   2.715  0.00  0.00    -0.180 OA
BRANCH  41  42
HETATM   42  P   UNK N   1      20.257  13.652   1.891  0.00  0.00     0.417 P 
HETATM   43  O   UNK N   1      21.336  14.974   1.544  0.00  0.00    -0.624 OA
HETATM   44  O   UNK N   1      19.828  13.069   0.521  0.00  0.00    -0.624 OA
BRANCH  42  45
HETATM   45  O   UNK N   1      21.068  12.376   2.736  0.00  0.00    -0.287 OA
BRANCH  45  46
HETATM   46  C   UNK N   1      22.393  12.682   2.464  0.00  0.00     0.216 C 
BRANCH  46  47
HETATM   47  C   UNK N   1      23.323  12.403   3.583  0.00  0.00     0.180 C 
HETATM   48  C   UNK N   1      24.723  12.854   3.244  0.00  0.00     0.182 C 
HETATM   49  C   UNK N   1      25.254  12.949   4.627  0.00  0.00     0.198 C 
HETATM   50  C   UNK N   1      24.062  13.628   5.320  0.00  0.00     0.262 C 
HETATM   51  O   UNK N   1      22.896  13.179   4.668  0.00  0.00    -0.353 OA
BRANCH  48  52
HETATM   52  O   UNK N   1      25.405  11.920   2.458  0.00  0.00    -0.390 OA
HETATM   53  H   UNK N   1      25.174  11.057   2.081  0.00  0.00     0.210 HD
ENDBRANCH  48  52
BRANCH  49  54
HETATM   54  O   UNK N   1      26.430  13.699   4.686  0.00  0.00    -0.388 OA
HETATM   55  H   UNK N   1      27.355  13.461   4.516  0.00  0.00     0.210 HD
ENDBRANCH  49  54
BRANCH  50  56
HETATM   56  N   UNK N   1      23.941  13.294   6.736  0.00  0.00    -0.297 N 
HETATM   57  C   UNK N   1      24.782  12.473   7.420  0.00  0.00     0.188 A 
HETATM   58  N   UNK N   1      24.410  12.351   8.722  0.00  0.00    -0.346 N 
HETATM   59  C   UNK N   1      23.308  13.116   8.822  0.00  0.00     0.122 A 
ATOM     60  HN  UNK N   1      24.862  11.804   9.455  1.00  0.00     0.167 HD
HETATM   61  C   UNK N   1      22.484  13.342   9.907  0.00  0.00     0.131 A 
HETATM   62  C   UNK N   1      23.034  13.687   7.635  0.00  0.00     0.142 A 
HETATM   63  N   UNK N   1      21.406  14.163   9.732  0.00  0.00    -0.337 N 
HETATM   64  C   UNK N   1      21.151  14.745   8.514  0.00  0.00     0.183 A 
ATOM     65  HN  UNK N   1      20.781  14.346  10.517  1.00  0.00     0.168 HD
HETATM   66  N   UNK N   1      21.970  14.502   7.447  0.00  0.00    -0.336 N 
ATOM     67  HN  UNK N   1      21.784  14.923   6.537  1.00  0.00     0.168 HD
BRANCH  61  68
HETATM   68  N   UNK N   1      22.730  12.731  11.152  0.00  0.00    -0.383 N 
HETATM   69  H   UNK N   1      22.388  13.123  11.987  0.00  0.00     0.157 HD
HETATM   70  H   UNK N   1      23.253  11.897  11.187  0.00  0.00     0.157 HD
ENDBRANCH  61  68
ENDBRANCH  50  56
ENDBRANCH  46  47
ENDBRANCH  45  46
ENDBRANCH  42  45
ENDBRANCH  41  42
ENDBRANCH  38  41
ENDBRANCH  37  38
ENDBRANCH   2  37
TORSDOF 24
ENDMDL
MODEL 6
REMARK VINA RESULT:      -7.8      7.046     10.782
REMARK  24 active torsions:
REMARK  status: ('A' for Active; 'I' for Inactive)
REMARK    1  A    between atoms: C_10  and  C_4 
REMARK    2  A    between atoms: O_52  and  C_4 
REMARK    3  A    between atoms: C_11  and  C_5 
REMARK    4  A    between atoms: O_53  and  C_5 
REMARK    5  A    between atoms: C_9  and  N_32 
REMARK    6  A    between atoms: C_12  and  N_35 
REMARK    7  A    between atoms: C_14  and  O_37 
REMARK    8  A    between atoms: C_15  and  O_38 
REMARK    9  A    between atoms: N_21  and  C_16 
REMARK   10  A    between atoms: O_39  and  C_18 
REMARK   11  A    between atoms: C_19  and  N_36 
REMARK   12  A    between atoms: N_34  and  N_22 
REMARK   13  A    between atoms: N_34  and  N_32 
REMARK   14  A    between atoms: P_64  and  O_50 
REMARK   15  A    between atoms: P_60  and  O_52 
REMARK   16  A    between atoms: P_61  and  O_53 
REMARK   17  A    between atoms: P_60  and  O_56 
REMARK   18  A    between atoms: P_62  and  O_56 
REMARK   19  A    between atoms: P_61  and  O_57 
REMARK   20  A    between atoms: P_63  and  O_57 
REMARK   21  A    between atoms: P_62  and  O_58 
REMARK   22  A    between atoms: P_64  and  O_58 
REMARK   23  A    between atoms: P_63  and  O_59 
REMARK   24  A    between atoms: P_64  and  O_59 
ROOT
HETATM    1  O   UNK N   1      21.401  15.353   0.391  0.00  0.00    -0.631 OA
HETATM    2  P   UNK N   1      20.898  15.238   1.856  0.00  0.00     0.411 P 
ENDROOT
BRANCH   2   3
HETATM    3  O   UNK N   1      19.246  14.697   1.812  0.00  0.00    -0.306 OA
HETATM    4  H   UNK N   1      18.895  13.907   1.372  0.00  0.00     0.222 HD
ENDBRANCH   2   3
BRANCH   2   5
HETATM    5  O   UNK N   1      21.894  14.094   2.652  0.00  0.00    -0.187 OA
BRANCH   5   6
HETATM    6  P   UNK N   1      22.105  12.747   1.556  0.00  0.00     0.426 P 
HETATM    7  O   UNK N   1      23.266  13.028   0.296  0.00  0.00    -0.624 OA
HETATM    8  O   UNK N   1      20.745  12.576   0.826  0.00  0.00    -0.624 OA
BRANCH   6   9
HETATM    9  O   UNK N   1      22.371  11.256   2.415  0.00  0.00    -0.180 OA
BRANCH   9  10
HETATM   10  P   UNK N   1      20.935  10.925   3.363  0.00  0.00     0.417 P 
HETATM   11  O   UNK N   1      19.735  12.152   3.109  0.00  0.00    -0.624 OA
HETATM   12  O   UNK N   1      20.325   9.621   2.782  0.00  0.00    -0.624 OA
BRANCH  10  13
HETATM   13  O   UNK N   1      21.185  10.639   5.075  0.00  0.00    -0.287 OA
BRANCH  13  14
HETATM   14  C   UNK N   1      22.135  11.589   5.493  0.00  0.00     0.215 C 
BRANCH  14  15
HETATM   15  C   UNK N   1      21.716  12.221   6.785  0.00  0.00     0.173 C 
HETATM   16  C   UNK N   1      20.651  13.315   6.668  0.00  0.00     0.149 C 
HETATM   17  C   UNK N   1      21.016  14.216   7.804  0.00  0.00     0.084 C 
HETATM   18  C   UNK N   1      22.415  13.769   8.225  0.00  0.00     0.234 C 
HETATM   19  O   UNK N   1      22.857  12.770   7.361  0.00  0.00    -0.356 OA
BRANCH  16  20
HETATM   20  N   UNK N   1      20.702  14.055   5.417  0.00  0.00    -0.245 N 
ATOM     21  HN  UNK N   1      21.298  13.741   4.652  1.00  0.00     0.197 HD
BRANCH  20  22
HETATM   22  N   UNK N   1      20.019  15.059   5.300  0.00  0.00    -0.248 NA
BRANCH  22  23
HETATM   23  N   UNK N   1      19.334  16.058   5.177  0.00  0.00    -0.261 N 
HETATM   24  H   UNK N   1      19.650  16.987   5.248  0.00  0.00     0.193 HD
ATOM     25  HN  UNK N   1      18.342  15.919   4.981  1.00  0.00     0.193 HD
ENDBRANCH  22  23
ENDBRANCH  20  22
ENDBRANCH  16  20
BRANCH  18  26
HETATM   26  N   UNK N   1      22.551  13.315   9.617  0.00  0.00    -0.282 N 
HETATM   27  C   UNK N   1      21.401  12.953  10.254  0.00  0.00     0.109 A 
HETATM   28  C   UNK N   1      21.432  12.273  11.458  0.00  0.00     0.005 A 
HETATM   29  C   UNK N   1      20.154  11.874  12.110  0.00  0.00     0.054 C 
HETATM   30  C   UNK N   1      22.669  11.918  11.990  0.00  0.00     0.151 A 
HETATM   31  N   UNK N   1      23.809  12.330  11.382  0.00  0.00    -0.288 N 
HETATM   32  C   UNK N   1      23.771  13.034  10.208  0.00  0.00     0.330 A 
ATOM     33  HN  UNK N   1      24.711  12.110  11.804  1.00  0.00     0.172 HD
HETATM   34  O   UNK N   1      24.820  13.344   9.671  0.00  0.00    -0.246 OA
BRANCH  30  35
HETATM   35  O   UNK N   1      22.743  11.151  13.088  0.00  0.00    -0.346 OA
ATOM     36  HO  UNK N   1      22.430  10.254  13.072  1.00  0.00     0.219 HD
ENDBRANCH  30  35
ENDBRANCH  18  26
ENDBRANCH  14  15
ENDBRANCH  13  14
ENDBRANCH  10  13
ENDBRANCH   9  10
ENDBRANCH   6   9
ENDBRANCH   5   6
ENDBRANCH   2   5
BRANCH   2  37
HETATM   37  O   UNK N   1      21.117  16.756   2.662  0.00  0.00    -0.187 OA
BRANCH  37  38
HETATM   38  P   UNK N   1      19.999  17.916   1.943  0.00  0.00     0.426 P 
HETATM   39  O   UNK N   1      19.237  17.206   0.554  0.00  0.00    -0.624 OA
HETATM   40  O   UNK N   1      18.814  18.214   2.892  0.00  0.00    -0.624 OA
BRANCH  38  41
HETATM   41  O   UNK N   1      20.742  19.444   1.540  0.00  0.00    -0.180 OA
BRANCH  41  42
HETATM   42  P   UNK N   1      21.684  19.924   2.926  0.00  0.00     0.417 P 
HETATM   43  O   UNK N   1      20.732  19.997   4.382  0.00  0.00    -0.624 OA
HETATM   44  O   UNK N   1      22.194  21.364   2.666  0.00  0.00    -0.624 OA
BRANCH  42  45
HETATM   45  O   UNK N   1      23.090  18.936   3.136  0.00  0.00    -0.287 OA
BRANCH  45  46
HETATM   46  C   UNK N   1      23.396  19.192   4.465  0.00  0.00     0.216 C 
BRANCH  46  47
HETATM   47  C   UNK N   1      24.057  18.066   5.164  0.00  0.00     0.180 C 
HETATM   48  C   UNK N   1      23.192  16.829   5.128  0.00  0.00     0.182 C 
HETATM   49  C   UNK N   1      24.253  15.824   5.387  0.00  0.00     0.198 C 
HETATM   50  C   UNK N   1      25.361  16.368   4.471  0.00  0.00     0.262 C 
HETATM   51  O   UNK N   1      25.222  17.770   4.446  0.00  0.00    -0.353 OA
BRANCH  48  52
HETATM   52  O   UNK N   1      22.200  16.845   6.114  0.00  0.00    -0.390 OA
HETATM   53  H   UNK N   1      21.270  16.573   6.141  0.00  0.00     0.210 HD
ENDBRANCH  48  52
BRANCH  49  54
HETATM   54  O   UNK N   1      23.843  14.531   5.053  0.00  0.00    -0.388 OA
HETATM   55  H   UNK N   1      23.637  14.121   4.199  0.00  0.00     0.210 HD
ENDBRANCH  49  54
BRANCH  50  56
HETATM   56  N   UNK N   1      26.709  16.059   4.936  0.00  0.00    -0.297 N 
HETATM   57  C   UNK N   1      27.409  14.938   4.615  0.00  0.00     0.188 A 
HETATM   58  N   UNK N   1      28.634  14.929   5.204  0.00  0.00    -0.346 N 
HETATM   59  C   UNK N   1      28.671  16.076   5.905  0.00  0.00     0.122 A 
ATOM     60  HN  UNK N   1      29.360  14.215   5.131  1.00  0.00     0.167 HD
HETATM   61  C   UNK N   1      29.660  16.579   6.727  0.00  0.00     0.131 A 
HETATM   62  C   UNK N   1      27.521  16.755   5.737  0.00  0.00     0.142 A 
HETATM   63  N   UNK N   1      29.433  17.778   7.342  0.00  0.00    -0.337 N 
HETATM   64  C   UNK N   1      28.257  18.461   7.147  0.00  0.00     0.183 A 
ATOM     65  HN  UNK N   1      30.147  18.172   7.954  1.00  0.00     0.168 HD
HETATM   66  N   UNK N   1      27.282  17.944   6.339  0.00  0.00    -0.336 N 
ATOM     67  HN  UNK N   1      26.403  18.439   6.194  1.00  0.00     0.168 HD
BRANCH  61  68
HETATM   68  N   UNK N   1      30.858  15.872   6.946  0.00  0.00    -0.383 N 
HETATM   69  H   UNK N   1      31.733  16.295   6.788  0.00  0.00     0.157 HD
HETATM   70  H   UNK N   1      30.820  14.941   7.262  0.00  0.00     0.157 HD
ENDBRANCH  61  68
ENDBRANCH  50  56
ENDBRANCH  46  47
ENDBRANCH  45  46
ENDBRANCH  42  45
ENDBRANCH  41  42
ENDBRANCH  38  41
ENDBRANCH  37  38
ENDBRANCH   2  37
TORSDOF 24
ENDMDL
MODEL 7
REMARK VINA RESULT:      -7.8      6.337     10.208
REMARK  24 active torsions:
REMARK  status: ('A' for Active; 'I' for Inactive)
REMARK    1  A    between atoms: C_10  and  C_4 
REMARK    2  A    between atoms: O_52  and  C_4 
REMARK    3  A    between atoms: C_11  and  C_5 
REMARK    4  A    between atoms: O_53  and  C_5 
REMARK    5  A    between atoms: C_9  and  N_32 
REMARK    6  A    between atoms: C_12  and  N_35 
REMARK    7  A    between atoms: C_14  and  O_37 
REMARK    8  A    between atoms: C_15  and  O_38 
REMARK    9  A    between atoms: N_21  and  C_16 
REMARK   10  A    between atoms: O_39  and  C_18 
REMARK   11  A    between atoms: C_19  and  N_36 
REMARK   12  A    between atoms: N_34  and  N_22 
REMARK   13  A    between atoms: N_34  and  N_32 
REMARK   14  A    between atoms: P_64  and  O_50 
REMARK   15  A    between atoms: P_60  and  O_52 
REMARK   16  A    between atoms: P_61  and  O_53 
REMARK   17  A    between atoms: P_60  and  O_56 
REMARK   18  A    between atoms: P_62  and  O_56 
REMARK   19  A    between atoms: P_61  and  O_57 
REMARK   20  A    between atoms: P_63  and  O_57 
REMARK   21  A    between atoms: P_62  and  O_58 
REMARK   22  A    between atoms: P_64  and  O_58 
REMARK   23  A    between atoms: P_63  and  O_59 
REMARK   24  A    between atoms: P_64  and  O_59 
ROOT
HETATM    1  O   UNK N   1      20.749  12.698   6.839  0.00  0.00    -0.631 OA
HETATM    2  P   UNK N   1      20.681  13.870   5.822  0.00  0.00     0.411 P 
ENDROOT
BRANCH   2   3
HETATM    3  O   UNK N   1      19.010  14.136   5.425  0.00  0.00    -0.306 OA
HETATM    4  H   UNK N   1      18.384  14.728   5.871  0.00  0.00     0.222 HD
ENDBRANCH   2   3
BRANCH   2   5
HETATM    5  O   UNK N   1      21.355  15.249   6.583  0.00  0.00    -0.187 OA
BRANCH   5   6
HETATM    6  P   UNK N   1      20.086  16.447   6.691  0.00  0.00     0.426 P 
HETATM    7  O   UNK N   1      20.561  17.922   7.474  0.00  0.00    -0.624 OA
HETATM    8  O   UNK N   1      18.997  15.830   7.612  0.00  0.00    -0.624 OA
BRANCH   6   9
HETATM    9  O   UNK N   1      19.313  16.704   5.153  0.00  0.00    -0.180 OA
BRANCH   9  10
HETATM   10  P   UNK N   1      20.534  17.276   4.033  0.00  0.00     0.417 P 
HETATM   11  O   UNK N   1      20.748  16.151   2.731  0.00  0.00    -0.624 OA
HETATM   12  O   UNK N   1      19.955  18.560   3.382  0.00  0.00    -0.624 OA
BRANCH  10  13
HETATM   13  O   UNK N   1      22.078  17.723   4.733  0.00  0.00    -0.287 OA
BRANCH  13  14
HETATM   14  C   UNK N   1      22.938  17.979   3.649  0.00  0.00     0.215 C 
BRANCH  14  15
HETATM   15  C   UNK N   1      24.228  18.572   4.126  0.00  0.00     0.173 C 
HETATM   16  C   UNK N   1      24.406  20.067   3.854  0.00  0.00     0.149 C 
HETATM   17  C   UNK N   1      25.886  20.169   3.672  0.00  0.00     0.084 C 
HETATM   18  C   UNK N   1      26.360  18.726   3.502  0.00  0.00     0.234 C 
HETATM   19  O   UNK N   1      25.255  17.878   3.494  0.00  0.00    -0.356 OA
BRANCH  16  20
HETATM   20  N   UNK N   1      23.730  20.532   2.651  0.00  0.00    -0.245 N 
ATOM     21  HN  UNK N   1      24.223  20.568   1.760  1.00  0.00     0.197 HD
BRANCH  20  22
HETATM   22  N   UNK N   1      22.562  20.876   2.730  0.00  0.00    -0.248 NA
BRANCH  22  23
HETATM   23  N   UNK N   1      21.398  21.222   2.815  0.00  0.00    -0.261 N 
HETATM   24  H   UNK N   1      20.938  21.853   2.216  0.00  0.00     0.193 HD
ATOM     25  HN  UNK N   1      20.849  20.820   3.575  1.00  0.00     0.193 HD
ENDBRANCH  22  23
ENDBRANCH  20  22
ENDBRANCH  16  20
BRANCH  18  26
HETATM   26  N   UNK N   1      27.339  18.252   4.492  0.00  0.00    -0.282 N 
HETATM   27  C   UNK N   1      27.428  18.968   5.650  0.00  0.00     0.109 A 
HETATM   28  C   UNK N   1      28.114  18.476   6.746  0.00  0.00     0.005 A 
HETATM   29  C   UNK N   1      28.168  19.277   8.000  0.00  0.00     0.054 C 
HETATM   30  C   UNK N   1      28.676  17.204   6.662  0.00  0.00     0.151 A 
HETATM   31  N   UNK N   1      28.633  16.522   5.491  0.00  0.00    -0.288 N 
HETATM   32  C   UNK N   1      27.983  17.030   4.399  0.00  0.00     0.330 A 
ATOM     33  HN  UNK N   1      29.091  15.613   5.422  1.00  0.00     0.172 HD
HETATM   34  O   UNK N   1      27.928  16.364   3.380  0.00  0.00    -0.246 OA
BRANCH  30  35
HETATM   35  O   UNK N   1      29.240  16.638   7.740  0.00  0.00    -0.346 OA
ATOM     36  HO  UNK N   1      28.798  15.936   8.203  1.00  0.00     0.219 HD
ENDBRANCH  30  35
ENDBRANCH  18  26
ENDBRANCH  14  15
ENDBRANCH  13  14
ENDBRANCH  10  13
ENDBRANCH   9  10
ENDBRANCH   6   9
ENDBRANCH   5   6
ENDBRANCH   2   5
BRANCH   2  37
HETATM   37  O   UNK N   1      21.678  13.503   4.453  0.00  0.00    -0.187 OA
BRANCH  37  38
HETATM   38  P   UNK N   1      20.928  12.166   3.581  0.00  0.00     0.426 P 
HETATM   39  O   UNK N   1      19.580  11.560   4.492  0.00  0.00    -0.624 OA
HETATM   40  O   UNK N   1      20.281  12.650   2.261  0.00  0.00    -0.624 OA
BRANCH  38  41
HETATM   41  O   UNK N   1      22.041  10.883   3.177  0.00  0.00    -0.180 OA
BRANCH  41  42
HETATM   42  P   UNK N   1      23.460  11.643   2.507  0.00  0.00     0.417 P 
HETATM   43  O   UNK N   1      23.118  12.494   1.027  0.00  0.00    -0.624 OA
HETATM   44  O   UNK N   1      24.462  10.519   2.142  0.00  0.00    -0.624 OA
BRANCH  42  45
HETATM   45  O   UNK N   1      24.261  12.662   3.655  0.00  0.00    -0.287 OA
BRANCH  45  46
HETATM   46  C   UNK N   1      24.662  11.729   4.600  0.00  0.00     0.216 C 
BRANCH  46  47
HETATM   47  C   UNK N   1      25.200  12.320   5.847  0.00  0.00     0.180 C 
HETATM   48  C   UNK N   1      25.593  13.762   5.632  0.00  0.00     0.182 C 
HETATM   49  C   UNK N   1      25.570  14.199   7.050  0.00  0.00     0.198 C 
HETATM   50  C   UNK N   1      24.276  13.513   7.516  0.00  0.00     0.262 C 
HETATM   51  O   UNK N   1      24.157  12.317   6.780  0.00  0.00    -0.353 OA
BRANCH  48  52
HETATM   52  O   UNK N   1      26.855  13.886   5.042  0.00  0.00    -0.390 OA
HETATM   53  H   UNK N   1      27.265  13.522   4.241  0.00  0.00     0.210 HD
ENDBRANCH  48  52
BRANCH  49  54
HETATM   54  O   UNK N   1      25.534  15.590   7.170  0.00  0.00    -0.388 OA
HETATM   55  H   UNK N   1      25.190  16.279   6.579  0.00  0.00     0.210 HD
ENDBRANCH  49  54
BRANCH  50  56
HETATM   56  N   UNK N   1      24.273  13.169   8.935  0.00  0.00    -0.297 N 
HETATM   57  C   UNK N   1      25.371  13.154   9.737  0.00  0.00     0.188 A 
HETATM   58  N   UNK N   1      25.055  12.789  11.008  0.00  0.00    -0.346 N 
HETATM   59  C   UNK N   1      23.728  12.573  10.967  0.00  0.00     0.122 A 
ATOM     60  HN  UNK N   1      25.680  12.700  11.809  1.00  0.00     0.167 HD
HETATM   61  C   UNK N   1      22.870  12.148  11.963  0.00  0.00     0.131 A 
HETATM   62  C   UNK N   1      23.260  12.809   9.728  0.00  0.00     0.142 A 
HETATM   63  N   UNK N   1      21.550  11.991  11.647  0.00  0.00    -0.337 N 
HETATM   64  C   UNK N   1      21.092  12.249  10.378  0.00  0.00     0.183 A 
ATOM     65  HN  UNK N   1      20.896  11.678  12.363  1.00  0.00     0.168 HD
HETATM   66  N   UNK N   1      21.956  12.658   9.400  0.00  0.00    -0.336 N 
ATOM     67  HN  UNK N   1      21.626  12.845   8.453  1.00  0.00     0.168 HD
BRANCH  61  68
HETATM   68  N   UNK N   1      23.340  11.862  13.259  0.00  0.00    -0.383 N 
HETATM   69  H   UNK N   1      24.100  12.355  13.645  0.00  0.00     0.157 HD
HETATM   70  H   UNK N   1      22.901  11.158  13.789  0.00  0.00     0.157 HD
ENDBRANCH  61  68
ENDBRANCH  50  56
ENDBRANCH  46  47
ENDBRANCH  45  46
ENDBRANCH  42  45
ENDBRANCH  41  42
ENDBRANCH  38  41
ENDBRANCH  37  38
ENDBRANCH   2  37
TORSDOF 24
ENDMDL
MODEL 8
REMARK VINA RESULT:      -7.7      6.155     10.553
REMARK  24 active torsions:
REMARK  status: ('A' for Active; 'I' for Inactive)
REMARK    1  A    between atoms: C_10  and  C_4 
REMARK    2  A    between atoms: O_52  and  C_4 
REMARK    3  A    between atoms: C_11  and  C_5 
REMARK    4  A    between atoms: O_53  and  C_5 
REMARK    5  A    between atoms: C_9  and  N_32 
REMARK    6  A    between atoms: C_12  and  N_35 
REMARK    7  A    between atoms: C_14  and  O_37 
REMARK    8  A    between atoms: C_15  and  O_38 
REMARK    9  A    between atoms: N_21  and  C_16 
REMARK   10  A    between atoms: O_39  and  C_18 
REMARK   11  A    between atoms: C_19  and  N_36 
REMARK   12  A    between atoms: N_34  and  N_22 
REMARK   13  A    between atoms: N_34  and  N_32 
REMARK   14  A    between atoms: P_64  and  O_50 
REMARK   15  A    between atoms: P_60  and  O_52 
REMARK   16  A    between atoms: P_61  and  O_53 
REMARK   17  A    between atoms: P_60  and  O_56 
REMARK   18  A    between atoms: P_62  and  O_56 
REMARK   19  A    between atoms: P_61  and  O_57 
REMARK   20  A    between atoms: P_63  and  O_57 
REMARK   21  A    between atoms: P_62  and  O_58 
REMARK   22  A    between atoms: P_64  and  O_58 
REMARK   23  A    between atoms: P_63  and  O_59 
REMARK   24  A    between atoms: P_64  and  O_59 
ROOT
HETATM    1  O   UNK N   1      20.359  13.250   7.335  0.00  0.00    -0.631 OA
HETATM    2  P   UNK N   1      20.583  14.053   6.026  0.00  0.00     0.411 P 
ENDROOT
BRANCH   2   3
HETATM    3  O   UNK N   1      19.036  14.635   5.486  0.00  0.00    -0.306 OA
HETATM    4  H   UNK N   1      18.168  14.460   5.882  0.00  0.00     0.222 HD
ENDBRANCH   2   3
BRANCH   2   5
HETATM    5  O   UNK N   1      21.631  15.357   6.396  0.00  0.00    -0.187 OA
BRANCH   5   6
HETATM    6  P   UNK N   1      20.669  16.817   6.349  0.00  0.00     0.426 P 
HETATM    7  O   UNK N   1      21.435  18.199   7.069  0.00  0.00    -0.624 OA
HETATM    8  O   UNK N   1      19.424  16.534   7.234  0.00  0.00    -0.624 OA
BRANCH   6   9
HETATM    9  O   UNK N   1      20.051  17.129   4.752  0.00  0.00    -0.180 OA
BRANCH   9  10
HETATM   10  P   UNK N   1      21.421  17.428   3.701  0.00  0.00     0.417 P 
HETATM   11  O   UNK N   1      21.974  15.953   2.977  0.00  0.00    -0.624 OA
HETATM   12  O   UNK N   1      20.885  18.292   2.528  0.00  0.00    -0.624 OA
BRANCH  10  13
HETATM   13  O   UNK N   1      22.758  18.319   4.405  0.00  0.00    -0.287 OA
BRANCH  13  14
HETATM   14  C   UNK N   1      23.930  17.715   3.914  0.00  0.00     0.215 C 
BRANCH  14  15
HETATM   15  C   UNK N   1      25.145  18.430   4.419  0.00  0.00     0.173 C 
HETATM   16  C   UNK N   1      25.223  19.920   4.074  0.00  0.00     0.149 C 
HETATM   17  C   UNK N   1      26.699  20.127   3.959  0.00  0.00     0.084 C 
HETATM   18  C   UNK N   1      27.289  18.720   3.892  0.00  0.00     0.234 C 
HETATM   19  O   UNK N   1      26.253  17.788   3.877  0.00  0.00    -0.356 OA
BRANCH  16  20
HETATM   20  N   UNK N   1      24.578  20.267   2.816  0.00  0.00    -0.245 N 
ATOM     21  HN  UNK N   1      25.078  20.173   1.933  1.00  0.00     0.197 HD
BRANCH  20  22
HETATM   22  N   UNK N   1      23.428  20.673   2.839  0.00  0.00    -0.248 NA
BRANCH  22  23
HETATM   23  N   UNK N   1      22.282  21.083   2.856  0.00  0.00    -0.261 N 
HETATM   24  H   UNK N   1      21.705  21.220   2.070  0.00  0.00     0.193 HD
ATOM     25  HN  UNK N   1      21.881  21.303   3.769  1.00  0.00     0.193 HD
ENDBRANCH  22  23
ENDBRANCH  20  22
ENDBRANCH  16  20
BRANCH  18  26
HETATM   26  N   UNK N   1      28.247  18.375   4.953  0.00  0.00    -0.282 N 
HETATM   27  C   UNK N   1      27.936  18.795   6.213  0.00  0.00     0.109 A 
HETATM   28  C   UNK N   1      28.617  18.315   7.316  0.00  0.00     0.005 A 
HETATM   29  C   UNK N   1      28.232  18.779   8.678  0.00  0.00     0.054 C 
HETATM   30  C   UNK N   1      29.603  17.350   7.122  0.00  0.00     0.151 A 
HETATM   31  N   UNK N   1      29.946  16.979   5.863  0.00  0.00    -0.288 N 
HETATM   32  C   UNK N   1      29.292  17.485   4.772  0.00  0.00     0.330 A 
ATOM     33  HN  UNK N   1      30.704  16.310   5.726  1.00  0.00     0.172 HD
HETATM   34  O   UNK N   1      29.601  17.090   3.662  0.00  0.00    -0.246 OA
BRANCH  30  35
HETATM   35  O   UNK N   1      30.200  16.765   8.172  0.00  0.00    -0.346 OA
ATOM     36  HO  UNK N   1      30.380  15.832   8.167  1.00  0.00     0.219 HD
ENDBRANCH  30  35
ENDBRANCH  18  26
ENDBRANCH  14  15
ENDBRANCH  13  14
ENDBRANCH  10  13
ENDBRANCH   9  10
ENDBRANCH   6   9
ENDBRANCH   5   6
ENDBRANCH   2   5
BRANCH   2  37
HETATM   37  O   UNK N   1      21.398  13.054   4.869  0.00  0.00    -0.187 OA
BRANCH  37  38
HETATM   38  P   UNK N   1      20.186  12.408   3.762  0.00  0.00     0.426 P 
HETATM   39  O   UNK N   1      18.829  11.813   4.667  0.00  0.00    -0.624 OA
HETATM   40  O   UNK N   1      19.572  13.528   2.887  0.00  0.00    -0.624 OA
BRANCH  38  41
HETATM   41  O   UNK N   1      20.807  11.184   2.683  0.00  0.00    -0.180 OA
BRANCH  41  42
HETATM   42  P   UNK N   1      21.564  12.023   1.355  0.00  0.00     0.417 P 
HETATM   43  O   UNK N   1      20.415  12.904   0.388  0.00  0.00    -0.624 OA
HETATM   44  O   UNK N   1      22.189  10.953   0.424  0.00  0.00    -0.624 OA
BRANCH  42  45
HETATM   45  O   UNK N   1      22.864  13.039   1.879  0.00  0.00    -0.287 OA
BRANCH  45  46
HETATM   46  C   UNK N   1      23.869  12.102   2.070  0.00  0.00     0.216 C 
BRANCH  46  47
HETATM   47  C   UNK N   1      24.915  12.520   3.032  0.00  0.00     0.180 C 
HETATM   48  C   UNK N   1      25.931  13.416   2.365  0.00  0.00     0.182 C 
HETATM   49  C   UNK N   1      26.476  14.060   3.587  0.00  0.00     0.198 C 
HETATM   50  C   UNK N   1      25.169  14.326   4.350  0.00  0.00     0.262 C 
HETATM   51  O   UNK N   1      24.278  13.287   4.015  0.00  0.00    -0.353 OA
BRANCH  48  52
HETATM   52  O   UNK N   1      26.891  12.691   1.653  0.00  0.00    -0.390 OA
HETATM   53  H   UNK N   1      27.203  11.774   1.681  0.00  0.00     0.210 HD
ENDBRANCH  48  52
BRANCH  49  54
HETATM   54  O   UNK N   1      27.192  15.221   3.292  0.00  0.00    -0.388 OA
HETATM   55  H   UNK N   1      27.859  15.713   3.796  0.00  0.00     0.210 HD
ENDBRANCH  49  54
BRANCH  50  56
HETATM   56  N   UNK N   1      25.329  14.331   5.801  0.00  0.00    -0.297 N 
HETATM   57  C   UNK N   1      26.038  15.253   6.506  0.00  0.00     0.188 A 
HETATM   58  N   UNK N   1      26.009  14.990   7.840  0.00  0.00    -0.346 N 
HETATM   59  C   UNK N   1      25.265  13.874   7.939  0.00  0.00     0.122 A 
ATOM     60  HN  UNK N   1      26.450  15.519   8.593  1.00  0.00     0.167 HD
HETATM   61  C   UNK N   1      24.929  13.132   9.054  0.00  0.00     0.131 A 
HETATM   62  C   UNK N   1      24.852  13.485   6.719  0.00  0.00     0.142 A 
HETATM   63  N   UNK N   1      24.163  12.015   8.873  0.00  0.00    -0.337 N 
HETATM   64  C   UNK N   1      23.741  11.643   7.619  0.00  0.00     0.183 A 
ATOM     65  HN  UNK N   1      23.900  11.450   9.680  1.00  0.00     0.168 HD
HETATM   66  N   UNK N   1      24.093  12.382   6.524  0.00  0.00    -0.336 N 
ATOM     67  HN  UNK N   1      23.792  12.109   5.589  1.00  0.00     0.168 HD
BRANCH  61  68
HETATM   68  N   UNK N   1      25.375  13.499  10.338  0.00  0.00    -0.383 N 
HETATM   69  H   UNK N   1      25.414  14.444  10.612  0.00  0.00     0.157 HD
HETATM   70  H   UNK N   1      25.653  12.799  10.973  0.00  0.00     0.157 HD
ENDBRANCH  61  68
ENDBRANCH  50  56
ENDBRANCH  46  47
ENDBRANCH  45  46
ENDBRANCH  42  45
ENDBRANCH  41  42
ENDBRANCH  38  41
ENDBRANCH  37  38
ENDBRANCH   2  37
TORSDOF 24
ENDMDL
MODEL 9
REMARK VINA RESULT:      -7.7      4.706      7.885
REMARK  24 active torsions:
REMARK  status: ('A' for Active; 'I' for Inactive)
REMARK    1  A    between atoms: C_10  and  C_4 
REMARK    2  A    between atoms: O_52  and  C_4 
REMARK    3  A    between atoms: C_11  and  C_5 
REMARK    4  A    between atoms: O_53  and  C_5 
REMARK    5  A    between atoms: C_9  and  N_32 
REMARK    6  A    between atoms: C_12  and  N_35 
REMARK    7  A    between atoms: C_14  and  O_37 
REMARK    8  A    between atoms: C_15  and  O_38 
REMARK    9  A    between atoms: N_21  and  C_16 
REMARK   10  A    between atoms: O_39  and  C_18 
REMARK   11  A    between atoms: C_19  and  N_36 
REMARK   12  A    between atoms: N_34  and  N_22 
REMARK   13  A    between atoms: N_34  and  N_32 
REMARK   14  A    between atoms: P_64  and  O_50 
REMARK   15  A    between atoms: P_60  and  O_52 
REMARK   16  A    between atoms: P_61  and  O_53 
REMARK   17  A    between atoms: P_60  and  O_56 
REMARK   18  A    between atoms: P_62  and  O_56 
REMARK   19  A    between atoms: P_61  and  O_57 
REMARK   20  A    between atoms: P_63  and  O_57 
REMARK   21  A    between atoms: P_62  and  O_58 
REMARK   22  A    between atoms: P_64  and  O_58 
REMARK   23  A    between atoms: P_63  and  O_59 
REMARK   24  A    between atoms: P_64  and  O_59 
ROOT
HETATM    1  O   UNK N   1      24.242  11.897   4.875  0.00  0.00    -0.631 OA
HETATM    2  P   UNK N   1      23.066  12.837   4.493  0.00  0.00     0.411 P 
ENDROOT
BRANCH   2   3
HETATM    3  O   UNK N   1      21.817  11.864   3.775  0.00  0.00    -0.306 OA
HETATM    4  H   UNK N   1      21.534  10.975   4.042  0.00  0.00     0.222 HD
ENDBRANCH   2   3
BRANCH   2   5
HETATM    5  O   UNK N   1      22.511  13.576   5.935  0.00  0.00    -0.187 OA
BRANCH   5   6
HETATM    6  P   UNK N   1      22.308  12.304   7.118  0.00  0.00     0.426 P 
HETATM    7  O   UNK N   1      23.701  12.031   8.119  0.00  0.00    -0.624 OA
HETATM    8  O   UNK N   1      22.127  10.993   6.306  0.00  0.00    -0.624 OA
BRANCH   6   9
HETATM    9  O   UNK N   1      20.837  12.502   8.028  0.00  0.00    -0.180 OA
BRANCH   9  10
HETATM   10  P   UNK N   1      20.938  14.033   8.875  0.00  0.00     0.417 P 
HETATM   11  O   UNK N   1      19.418  14.429   9.610  0.00  0.00    -0.624 OA
HETATM   12  O   UNK N   1      21.924  13.811  10.053  0.00  0.00    -0.624 OA
BRANCH  10  13
HETATM   13  O   UNK N   1      21.559  15.389   7.952  0.00  0.00    -0.287 OA
BRANCH  13  14
HETATM   14  C   UNK N   1      20.444  16.184   7.630  0.00  0.00     0.215 C 
BRANCH  14  15
HETATM   15  C   UNK N   1      20.493  16.607   6.195  0.00  0.00     0.173 C 
HETATM   16  C   UNK N   1      19.692  15.736   5.224  0.00  0.00     0.149 C 
HETATM   17  C   UNK N   1      20.503  15.849   3.973  0.00  0.00     0.084 C 
HETATM   18  C   UNK N   1      21.833  16.452   4.422  0.00  0.00     0.234 C 
HETATM   19  O   UNK N   1      21.830  16.590   5.808  0.00  0.00    -0.356 OA
BRANCH  16  20
HETATM   20  N   UNK N   1      19.598  14.340   5.625  0.00  0.00    -0.245 N 
ATOM     21  HN  UNK N   1      19.819  14.059   6.579  1.00  0.00     0.197 HD
BRANCH  20  22
HETATM   22  N   UNK N   1      19.249  13.514   4.798  0.00  0.00    -0.248 NA
BRANCH  22  23
HETATM   23  N   UNK N   1      18.895  12.692   3.973  0.00  0.00    -0.261 N 
HETATM   24  H   UNK N   1      19.407  11.902   3.688  0.00  0.00     0.193 HD
ATOM     25  HN  UNK N   1      17.982  12.835   3.538  1.00  0.00     0.193 HD
ENDBRANCH  22  23
ENDBRANCH  20  22
ENDBRANCH  16  20
BRANCH  18  26
HETATM   26  N   UNK N   1      22.200  17.732   3.799  0.00  0.00    -0.282 N 
HETATM   27  C   UNK N   1      21.204  18.398   3.146  0.00  0.00     0.109 A 
HETATM   28  C   UNK N   1      21.361  19.714   2.751  0.00  0.00     0.005 A 
HETATM   29  C   UNK N   1      20.242  20.413   2.062  0.00  0.00     0.054 C 
HETATM   30  C   UNK N   1      22.546  20.370   3.078  0.00  0.00     0.151 A 
HETATM   31  N   UNK N   1      23.553  19.687   3.677  0.00  0.00    -0.288 N 
HETATM   32  C   UNK N   1      23.405  18.374   4.033  0.00  0.00     0.330 A 
ATOM     33  HN  UNK N   1      24.436  20.160   3.867  1.00  0.00     0.172 HD
HETATM   34  O   UNK N   1      24.317  17.811   4.611  0.00  0.00    -0.246 OA
BRANCH  30  35
HETATM   35  O   UNK N   1      22.690  21.680   2.826  0.00  0.00    -0.346 OA
ATOM     36  HO  UNK N   1      23.446  22.154   3.154  1.00  0.00     0.219 HD
ENDBRANCH  30  35
ENDBRANCH  18  26
ENDBRANCH  14  15
ENDBRANCH  13  14
ENDBRANCH  10  13
ENDBRANCH   9  10
ENDBRANCH   6   9
ENDBRANCH   5   6
ENDBRANCH   2   5
BRANCH   2  37
HETATM   37  O   UNK N   1      23.650  14.101   3.462  0.00  0.00    -0.187 OA
BRANCH  37  38
HETATM   38  P   UNK N   1      24.629  13.358   2.197  0.00  0.00     0.426 P 
HETATM   39  O   UNK N   1      23.986  11.794   1.806  0.00  0.00    -0.624 OA
HETATM   40  O   UNK N   1      24.511  14.139   0.866  0.00  0.00    -0.624 OA
BRANCH  38  41
HETATM   41  O   UNK N   1      26.326  13.259   2.595  0.00  0.00    -0.180 OA
BRANCH  41  42
HETATM   42  P   UNK N   1      26.753  14.770   3.353  0.00  0.00     0.417 P 
HETATM   43  O   UNK N   1      26.023  14.953   4.923  0.00  0.00    -0.624 OA
HETATM   44  O   UNK N   1      26.184  15.910   2.471  0.00  0.00    -0.624 OA
BRANCH  42  45
HETATM   45  O   UNK N   1      28.467  15.007   3.418  0.00  0.00    -0.287 OA
BRANCH  45  46
HETATM   46  C   UNK N   1      28.561  16.341   3.050  0.00  0.00     0.216 C 
BRANCH  46  47
HETATM   47  C   UNK N   1      29.003  17.243   4.139  0.00  0.00     0.180 C 
HETATM   48  C   UNK N   1      27.877  18.148   4.577  0.00  0.00     0.182 C 
HETATM   49  C   UNK N   1      28.404  18.504   5.918  0.00  0.00     0.198 C 
HETATM   50  C   UNK N   1      28.894  17.123   6.383  0.00  0.00     0.262 C 
HETATM   51  O   UNK N   1      29.322  16.430   5.233  0.00  0.00    -0.353 OA
BRANCH  48  52
HETATM   52  O   UNK N   1      27.729  19.255   3.736  0.00  0.00    -0.390 OA
HETATM   53  H   UNK N   1      27.011  19.885   3.568  0.00  0.00     0.210 HD
ENDBRANCH  48  52
BRANCH  49  54
HETATM   54  O   UNK N   1      27.416  19.048   6.742  0.00  0.00    -0.388 OA
HETATM   55  H   UNK N   1      26.555  19.445   6.539  0.00  0.00     0.210 HD
ENDBRANCH  49  54
BRANCH  50  56
HETATM   56  N   UNK N   1      30.016  17.183   7.315  0.00  0.00    -0.297 N 
HETATM   57  C   UNK N   1      29.906  17.209   8.670  0.00  0.00     0.188 A 
HETATM   58  N   UNK N   1      31.125  17.271   9.268  0.00  0.00    -0.346 N 
HETATM   59  C   UNK N   1      31.994  17.289   8.242  0.00  0.00     0.122 A 
ATOM     60  HN  UNK N   1      31.333  17.298  10.267  1.00  0.00     0.167 HD
HETATM   61  C   UNK N   1      33.372  17.382   8.252  0.00  0.00     0.131 A 
HETATM   62  C   UNK N   1      31.330  17.228   7.074  0.00  0.00     0.142 A 
HETATM   63  N   UNK N   1      34.021  17.395   7.049  0.00  0.00    -0.337 N 
HETATM   64  C   UNK N   1      33.324  17.320   5.868  0.00  0.00     0.183 A 
ATOM     65  HN  UNK N   1      35.039  17.463   7.029  1.00  0.00     0.168 HD
HETATM   66  N   UNK N   1      31.959  17.241   5.876  0.00  0.00    -0.336 N 
ATOM     67  HN  UNK N   1      31.431  17.192   5.004  1.00  0.00     0.168 HD
BRANCH  61  68
HETATM   68  N   UNK N   1      34.090  17.480   9.459  0.00  0.00    -0.383 N 
HETATM   69  H   UNK N   1      34.151  18.334   9.946  0.00  0.00     0.157 HD
HETATM   70  H   UNK N   1      34.537  16.682   9.824  0.00  0.00     0.157 HD
ENDBRANCH  61  68
ENDBRANCH  50  56
ENDBRANCH  46  47
ENDBRANCH  45  46
ENDBRANCH  42  45
ENDBRANCH  41  42
ENDBRANCH  38  41
ENDBRANCH  37  38
ENDBRANCH   2  37
TORSDOF 24
ENDMDL
