MODEL 1
REMARK VINA RESULT:      -8.4      0.000      0.000
REMARK  10 active torsions:
REMARK  status: ('A' for Active; 'I' for Inactive)
REMARK    1  A    between atoms: C_2  and  C_4 
REMARK    2  A    between atoms: C_4  and  N_5 
REMARK    3  A    between atoms: C_4  and  C_24 
REMARK       I    between atoms: N_5  and  C_6 
REMARK    4  A    between atoms: C_6  and  C_8 
REMARK    5  A    between atoms: C_8  and  N_9 
REMARK    6  A    between atoms: C_12  and  N_13 
REMARK    7  A    between atoms: C_17  and  C_18 
REMARK    8  A    between atoms: C_24  and  O_25 
REMARK    9  A    between atoms: C_24  and  C_26 
REMARK   10  A    between atoms: C_31  and  C_33 
ROOT
HETATM    1  N   UNK N   1      34.128  16.260   8.795  0.00  0.00    -0.352 N 
HETATM    2  C   UNK N   1      32.782  16.450   8.764  0.00  0.00     0.236 C 
HETATM    3  O   UNK N   1      32.008  15.619   9.207  0.00  0.00    -0.272 OA
HETATM    4  H   UNK N   1      34.667  16.944   8.336  0.00  0.00     0.163 HD
ENDROOT
BRANCH   1   5
HETATM    5  C   UNK N   1      34.875  15.177   9.416  0.00  0.00     0.124 C 
BRANCH   5   6
HETATM    6  C   UNK N   1      35.968  14.632   8.460  0.00  0.00     0.003 C 
HETATM    7  C   UNK N   1      36.278  13.152   8.617  0.00  0.00     0.011 C 
HETATM    8  C   UNK N   1      35.559  14.834   7.013  0.00  0.00     0.011 C 
ENDBRANCH   5   6
BRANCH   5   9
HETATM    9  C   UNK N   1      35.452  15.692  10.766  0.00  0.00     0.217 C 
BRANCH   9  10
HETATM   10  O   UNK N   1      36.795  16.041  10.602  0.00  0.00    -0.385 OA
HETATM   11  H   UNK N   1      37.586  15.483  10.545  0.00  0.00     0.210 HD
ENDBRANCH   9  10
BRANCH   9  12
HETATM   12  C   UNK N   1      35.347  14.682  11.878  0.00  0.00     0.171 A 
HETATM   13  N   UNK N   1      34.564  13.587  11.839  0.00  0.00    -0.279 N 
HETATM   14  N   UNK N   1      34.762  12.939  12.977  0.00  0.00    -0.281 N 
ATOM     15  HN  UNK N   1      33.940  13.310  11.081  1.00  0.00     0.189 HD
HETATM   16  C   UNK N   1      35.656  13.659  13.681  0.00  0.00     0.148 A 
ATOM     17  HN  UNK N   1      34.323  12.064  13.264  1.00  0.00     0.189 HD
HETATM   18  O   UNK N   1      36.007  14.734  13.010  0.00  0.00    -0.279 OA
BRANCH  16  19
HETATM   19  C   UNK N   1      36.187  13.268  15.030  0.00  0.00     0.016 C 
HETATM   20  C   UNK N   1      35.037  12.946  15.963  0.00  0.00     0.023 C 
HETATM   21  C   UNK N   1      37.009  14.391  15.636  0.00  0.00     0.023 C 
HETATM   22  C   UNK N   1      37.070  12.044  14.900  0.00  0.00     0.023 C 
ENDBRANCH  16  19
ENDBRANCH   9  12
ENDBRANCH   5   9
ENDBRANCH   1   5
BRANCH   2  23
HETATM   23  C   UNK N   1      32.261  17.714   8.146  0.00  0.00     0.236 C 
BRANCH  23  24
HETATM   24  N   UNK N   1      30.850  17.666   7.700  0.00  0.00    -0.289 N 
HETATM   25  C   UNK N   1      29.842  18.130   8.537  0.00  0.00     0.277 A 
HETATM   26  O   UNK N   1      30.093  18.481   9.672  0.00  0.00    -0.265 OA
HETATM   27  C   UNK N   1      28.524  18.206   8.088  0.00  0.00     0.110 A 
HETATM   28  C   UNK N   1      28.236  17.824   6.795  0.00  0.00     0.124 A 
HETATM   29  N   UNK N   1      29.224  17.361   5.998  0.00  0.00    -0.349 N 
HETATM   30  C   UNK N   1      30.516  17.258   6.419  0.00  0.00     0.121 A 
ATOM     31  HN  UNK N   1      28.993  17.077   5.046  1.00  0.00     0.167 HD
BRANCH  27  32
HETATM   32  N   UNK N   1      27.494  18.678   8.926  0.00  0.00    -0.394 N 
HETATM   33  H   UNK N   1      27.467  18.485   9.891  0.00  0.00     0.156 HD
HETATM   34  H   UNK N   1      26.773  19.221   8.531  0.00  0.00     0.156 HD
ENDBRANCH  27  32
BRANCH  30  35
HETATM   35  C   UNK N   1      31.498  16.692   5.445  0.00  0.00     0.008 A 
HETATM   36  C   UNK N   1      32.019  17.533   4.446  0.00  0.00     0.015 A 
HETATM   37  C   UNK N   1      32.894  17.037   3.478  0.00  0.00     0.001 A 
HETATM   38  C   UNK N   1      33.244  15.687   3.482  0.00  0.00     0.000 A 
HETATM   39  C   UNK N   1      32.727  14.835   4.460  0.00  0.00     0.001 A 
HETATM   40  C   UNK N   1      31.861  15.336   5.435  0.00  0.00     0.015 A 
ENDBRANCH  30  35
ENDBRANCH  23  24
ENDBRANCH   2  23
TORSDOF 10
ENDMDL
MODEL 2
REMARK VINA RESULT:      -7.6      1.758      3.739
REMARK  10 active torsions:
REMARK  status: ('A' for Active; 'I' for Inactive)
REMARK    1  A    between atoms: C_2  and  C_4 
REMARK    2  A    between atoms: C_4  and  N_5 
REMARK    3  A    between atoms: C_4  and  C_24 
REMARK       I    between atoms: N_5  and  C_6 
REMARK    4  A    between atoms: C_6  and  C_8 
REMARK    5  A    between atoms: C_8  and  N_9 
REMARK    6  A    between atoms: C_12  and  N_13 
REMARK    7  A    between atoms: C_17  and  C_18 
REMARK    8  A    between atoms: C_24  and  O_25 
REMARK    9  A    between atoms: C_24  and  C_26 
REMARK   10  A    between atoms: C_31  and  C_33 
ROOT
HETATM    1  N   UNK N   1      34.651  15.708   9.177  0.00  0.00    -0.352 N 
HETATM    2  C   UNK N   1      33.369  16.004   8.834  0.00  0.00     0.236 C 
HETATM    3  O   UNK N   1      32.437  15.289   9.160  0.00  0.00    -0.272 OA
HETATM    4  H   UNK N   1      35.342  16.296   8.797  0.00  0.00     0.163 HD
ENDROOT
BRANCH   1   5
HETATM    5  C   UNK N   1      35.133  14.636  10.034  0.00  0.00     0.124 C 
BRANCH   5   6
HETATM    6  C   UNK N   1      36.178  13.759   9.297  0.00  0.00     0.003 C 
HETATM    7  C   UNK N   1      35.939  12.261   9.388  0.00  0.00     0.011 C 
HETATM    8  C   UNK N   1      36.212  14.100   7.820  0.00  0.00     0.011 C 
ENDBRANCH   5   6
BRANCH   5   9
HETATM    9  C   UNK N   1      35.685  15.267  11.344  0.00  0.00     0.217 C 
BRANCH   9  10
HETATM   10  O   UNK N   1      36.867  15.960  11.071  0.00  0.00    -0.385 OA
HETATM   11  H   UNK N   1      37.032  16.912  10.990  0.00  0.00     0.210 HD
ENDBRANCH   9  10
BRANCH   9  12
HETATM   12  C   UNK N   1      35.959  14.251  12.421  0.00  0.00     0.171 A 
HETATM   13  N   UNK N   1      37.163  13.691  12.651  0.00  0.00    -0.279 N 
HETATM   14  N   UNK N   1      37.012  12.877  13.684  0.00  0.00    -0.281 N 
ATOM     15  HN  UNK N   1      38.023  13.861  12.129  1.00  0.00     0.189 HD
HETATM   16  C   UNK N   1      35.719  12.958  14.054  0.00  0.00     0.148 A 
ATOM     17  HN  UNK N   1      37.734  12.301  14.116  1.00  0.00     0.189 HD
HETATM   18  O   UNK N   1      35.072  13.793  13.272  0.00  0.00    -0.279 OA
BRANCH  16  19
HETATM   19  C   UNK N   1      35.119  12.212  15.212  0.00  0.00     0.016 C 
HETATM   20  C   UNK N   1      34.585  13.194  16.235  0.00  0.00     0.023 C 
HETATM   21  C   UNK N   1      36.154  11.325  15.878  0.00  0.00     0.023 C 
HETATM   22  C   UNK N   1      33.980  11.340  14.727  0.00  0.00     0.023 C 
ENDBRANCH  16  19
ENDBRANCH   9  12
ENDBRANCH   5   9
ENDBRANCH   1   5
BRANCH   2  23
HETATM   23  C   UNK N   1      33.125  17.238   8.016  0.00  0.00     0.236 C 
BRANCH  23  24
HETATM   24  N   UNK N   1      32.537  17.005   6.678  0.00  0.00    -0.289 N 
HETATM   25  C   UNK N   1      33.357  16.672   5.607  0.00  0.00     0.277 A 
HETATM   26  O   UNK N   1      34.566  16.670   5.731  0.00  0.00    -0.265 OA
HETATM   27  C   UNK N   1      32.811  16.331   4.370  0.00  0.00     0.110 A 
HETATM   28  C   UNK N   1      31.439  16.316   4.227  0.00  0.00     0.124 A 
HETATM   29  N   UNK N   1      30.654  16.656   5.273  0.00  0.00    -0.349 N 
HETATM   30  C   UNK N   1      31.164  17.013   6.486  0.00  0.00     0.121 A 
ATOM     31  HN  UNK N   1      29.641  16.645   5.150  1.00  0.00     0.167 HD
BRANCH  27  32
HETATM   32  N   UNK N   1      33.633  15.989   3.277  0.00  0.00    -0.394 N 
HETATM   33  H   UNK N   1      33.755  15.060   2.978  0.00  0.00     0.156 HD
HETATM   34  H   UNK N   1      34.103  16.708   2.795  0.00  0.00     0.156 HD
ENDBRANCH  27  32
BRANCH  30  35
HETATM   35  C   UNK N   1      30.180  17.403   7.541  0.00  0.00     0.008 A 
HETATM   36  C   UNK N   1      28.848  16.972   7.413  0.00  0.00     0.015 A 
HETATM   37  C   UNK N   1      27.879  17.359   8.341  0.00  0.00     0.001 A 
HETATM   38  C   UNK N   1      28.224  18.199   9.399  0.00  0.00     0.000 A 
HETATM   39  C   UNK N   1      29.540  18.645   9.535  0.00  0.00     0.001 A 
HETATM   40  C   UNK N   1      30.511  18.247   8.612  0.00  0.00     0.015 A 
ENDBRANCH  30  35
ENDBRANCH  23  24
ENDBRANCH   2  23
TORSDOF 10
ENDMDL
MODEL 3
REMARK VINA RESULT:      -7.3      2.747      4.483
REMARK  10 active torsions:
REMARK  status: ('A' for Active; 'I' for Inactive)
REMARK    1  A    between atoms: C_2  and  C_4 
REMARK    2  A    between atoms: C_4  and  N_5 
REMARK    3  A    between atoms: C_4  and  C_24 
REMARK       I    between atoms: N_5  and  C_6 
REMARK    4  A    between atoms: C_6  and  C_8 
REMARK    5  A    between atoms: C_8  and  N_9 
REMARK    6  A    between atoms: C_12  and  N_13 
REMARK    7  A    between atoms: C_17  and  C_18 
REMARK    8  A    between atoms: C_24  and  O_25 
REMARK    9  A    between atoms: C_24  and  C_26 
REMARK   10  A    between atoms: C_31  and  C_33 
ROOT
HETATM    1  N   UNK N   1      30.912  16.938   6.319  0.00  0.00    -0.352 N 
HETATM    2  C   UNK N   1      29.905  16.039   6.157  0.00  0.00     0.236 C 
HETATM    3  O   UNK N   1      30.121  14.891   5.806  0.00  0.00    -0.272 OA
HETATM    4  H   UNK N   1      30.633  17.860   6.521  0.00  0.00     0.163 HD
ENDROOT
BRANCH   1   5
HETATM    5  C   UNK N   1      32.347  16.715   6.233  0.00  0.00     0.124 C 
BRANCH   5   6
HETATM    6  C   UNK N   1      32.897  17.149   4.850  0.00  0.00     0.003 C 
HETATM    7  C   UNK N   1      33.381  16.012   3.964  0.00  0.00     0.011 C 
HETATM    8  C   UNK N   1      31.832  17.885   4.060  0.00  0.00     0.011 C 
ENDBRANCH   5   6
BRANCH   5   9
HETATM    9  C   UNK N   1      33.030  17.455   7.418  0.00  0.00     0.217 C 
BRANCH   9  10
HETATM   10  O   UNK N   1      34.223  18.039   6.984  0.00  0.00    -0.385 OA
HETATM   11  H   UNK N   1      35.078  18.125   7.432  0.00  0.00     0.210 HD
ENDBRANCH   9  10
BRANCH   9  12
HETATM   12  C   UNK N   1      33.330  16.553   8.586  0.00  0.00     0.171 A 
HETATM   13  N   UNK N   1      32.396  16.036   9.407  0.00  0.00    -0.279 N 
HETATM   14  N   UNK N   1      33.038  15.281  10.285  0.00  0.00    -0.281 N 
ATOM     15  HN  UNK N   1      31.390  16.196   9.363  1.00  0.00     0.189 HD
HETATM   16  C   UNK N   1      34.348  15.362   9.978  0.00  0.00     0.148 A 
ATOM     17  HN  UNK N   1      32.623  14.743  11.045  1.00  0.00     0.189 HD
HETATM   18  O   UNK N   1      34.527  16.151   8.942  0.00  0.00    -0.279 OA
BRANCH  16  19
HETATM   19  C   UNK N   1      35.437  14.631  10.709  0.00  0.00     0.016 C 
HETATM   20  C   UNK N   1      34.974  13.231  11.059  0.00  0.00     0.023 C 
HETATM   21  C   UNK N   1      35.812  15.357  11.988  0.00  0.00     0.023 C 
HETATM   22  C   UNK N   1      36.670  14.536   9.834  0.00  0.00     0.023 C 
ENDBRANCH  16  19
ENDBRANCH   9  12
ENDBRANCH   5   9
ENDBRANCH   1   5
BRANCH   2  23
HETATM   23  C   UNK N   1      28.499  16.501   6.406  0.00  0.00     0.236 C 
BRANCH  23  24
HETATM   24  N   UNK N   1      28.096  17.725   5.679  0.00  0.00    -0.289 N 
HETATM   25  C   UNK N   1      28.032  18.941   6.349  0.00  0.00     0.277 A 
HETATM   26  O   UNK N   1      28.204  18.996   7.551  0.00  0.00    -0.265 OA
HETATM   27  C   UNK N   1      27.773  20.123   5.656  0.00  0.00     0.110 A 
HETATM   28  C   UNK N   1      27.594  20.070   4.290  0.00  0.00     0.124 A 
HETATM   29  N   UNK N   1      27.644  18.879   3.654  0.00  0.00    -0.349 N 
HETATM   30  C   UNK N   1      27.875  17.707   4.311  0.00  0.00     0.121 A 
ATOM     31  HN  UNK N   1      27.504  18.856   2.644  1.00  0.00     0.167 HD
BRANCH  27  32
HETATM   32  N   UNK N   1      27.709  21.363   6.324  0.00  0.00    -0.394 N 
HETATM   33  H   UNK N   1      26.886  21.901   6.360  0.00  0.00     0.156 HD
HETATM   34  H   UNK N   1      28.517  21.702   6.771  0.00  0.00     0.156 HD
ENDBRANCH  27  32
BRANCH  30  35
HETATM   35  C   UNK N   1      27.865  16.460   3.488  0.00  0.00     0.008 A 
HETATM   36  C   UNK N   1      26.699  15.674   3.470  0.00  0.00     0.015 A 
HETATM   37  C   UNK N   1      26.660  14.471   2.763  0.00  0.00     0.001 A 
HETATM   38  C   UNK N   1      27.792  14.026   2.080  0.00  0.00     0.000 A 
HETATM   39  C   UNK N   1      28.961  14.790   2.095  0.00  0.00     0.001 A 
HETATM   40  C   UNK N   1      28.995  16.000   2.794  0.00  0.00     0.015 A 
ENDBRANCH  30  35
ENDBRANCH  23  24
ENDBRANCH   2  23
TORSDOF 10
ENDMDL
MODEL 4
REMARK VINA RESULT:      -7.2     15.631     18.488
REMARK  10 active torsions:
REMARK  status: ('A' for Active; 'I' for Inactive)
REMARK    1  A    between atoms: C_2  and  C_4 
REMARK    2  A    between atoms: C_4  and  N_5 
REMARK    3  A    between atoms: C_4  and  C_24 
REMARK       I    between atoms: N_5  and  C_6 
REMARK    4  A    between atoms: C_6  and  C_8 
REMARK    5  A    between atoms: C_8  and  N_9 
REMARK    6  A    between atoms: C_12  and  N_13 
REMARK    7  A    between atoms: C_17  and  C_18 
REMARK    8  A    between atoms: C_24  and  O_25 
REMARK    9  A    between atoms: C_24  and  C_26 
REMARK   10  A    between atoms: C_31  and  C_33 
ROOT
HETATM    1  N   UNK N   1      28.519  23.861  -4.340  0.00  0.00    -0.352 N 
HETATM    2  C   UNK N   1      27.453  24.296  -3.618  0.00  0.00     0.236 C 
HETATM    3  O   UNK N   1      27.098  23.733  -2.595  0.00  0.00    -0.272 OA
HETATM    4  H   UNK N   1      28.676  24.325  -5.193  0.00  0.00     0.163 HD
ENDROOT
BRANCH   1   5
HETATM    5  C   UNK N   1      29.458  22.798  -4.016  0.00  0.00     0.124 C 
BRANCH   5   6
HETATM    6  C   UNK N   1      30.048  22.162  -5.301  0.00  0.00     0.003 C 
HETATM    7  C   UNK N   1      30.615  20.763  -5.125  0.00  0.00     0.011 C 
HETATM    8  C   UNK N   1      28.987  22.063  -6.381  0.00  0.00     0.011 C 
ENDBRANCH   5   6
BRANCH   5   9
HETATM    9  C   UNK N   1      30.548  23.378  -3.070  0.00  0.00     0.217 C 
BRANCH   9  10
HETATM   10  O   UNK N   1      30.058  23.431  -1.763  0.00  0.00    -0.385 OA
HETATM   11  H   UNK N   1      29.574  24.133  -1.302  0.00  0.00     0.210 HD
ENDBRANCH   9  10
BRANCH   9  12
HETATM   12  C   UNK N   1      31.005  24.756  -3.470  0.00  0.00     0.171 A 
HETATM   13  N   UNK N   1      31.905  25.007  -4.440  0.00  0.00    -0.279 N 
HETATM   14  N   UNK N   1      32.025  26.324  -4.516  0.00  0.00    -0.281 N 
ATOM     15  HN  UNK N   1      32.399  24.317  -5.007  1.00  0.00     0.189 HD
HETATM   16  C   UNK N   1      31.199  26.841  -3.585  0.00  0.00     0.148 A 
ATOM     17  HN  UNK N   1      32.626  26.845  -5.154  1.00  0.00     0.189 HD
HETATM   18  O   UNK N   1      30.581  25.878  -2.937  0.00  0.00    -0.279 OA
BRANCH  16  19
HETATM   19  C   UNK N   1      31.003  28.310  -3.347  0.00  0.00     0.016 C 
HETATM   20  C   UNK N   1      31.278  29.080  -4.624  0.00  0.00     0.023 C 
HETATM   21  C   UNK N   1      31.938  28.812  -2.262  0.00  0.00     0.023 C 
HETATM   22  C   UNK N   1      29.577  28.575  -2.911  0.00  0.00     0.023 C 
ENDBRANCH  16  19
ENDBRANCH   9  12
ENDBRANCH   5   9
ENDBRANCH   1   5
BRANCH   2  23
HETATM   23  C   UNK N   1      26.698  25.491  -4.122  0.00  0.00     0.236 C 
BRANCH  23  24
HETATM   24  N   UNK N   1      26.381  25.475  -5.568  0.00  0.00    -0.289 N 
HETATM   25  C   UNK N   1      25.981  24.292  -6.179  0.00  0.00     0.277 A 
HETATM   26  O   UNK N   1      25.987  23.245  -5.563  0.00  0.00    -0.265 OA
HETATM   27  C   UNK N   1      25.563  24.284  -7.509  0.00  0.00     0.110 A 
HETATM   28  C   UNK N   1      25.539  25.472  -8.209  0.00  0.00     0.124 A 
HETATM   29  N   UNK N   1      25.944  26.611  -7.607  0.00  0.00    -0.349 N 
HETATM   30  C   UNK N   1      26.377  26.643  -6.314  0.00  0.00     0.121 A 
ATOM     31  HN  UNK N   1      25.925  27.481  -8.140  1.00  0.00     0.167 HD
BRANCH  27  32
HETATM   32  N   UNK N   1      25.153  23.091  -8.138  0.00  0.00    -0.394 N 
HETATM   33  H   UNK N   1      25.027  23.023  -9.112  0.00  0.00     0.156 HD
HETATM   34  H   UNK N   1      24.986  22.296  -7.582  0.00  0.00     0.156 HD
ENDBRANCH  27  32
BRANCH  30  35
HETATM   35  C   UNK N   1      26.833  27.966  -5.790  0.00  0.00     0.008 A 
HETATM   36  C   UNK N   1      26.170  28.515  -4.678  0.00  0.00     0.015 A 
HETATM   37  C   UNK N   1      26.520  29.775  -4.188  0.00  0.00     0.001 A 
HETATM   38  C   UNK N   1      27.526  30.511  -4.813  0.00  0.00     0.000 A 
HETATM   39  C   UNK N   1      28.187  29.984  -5.924  0.00  0.00     0.001 A 
HETATM   40  C   UNK N   1      27.843  28.719  -6.408  0.00  0.00     0.015 A 
ENDBRANCH  30  35
ENDBRANCH  23  24
ENDBRANCH   2  23
TORSDOF 10
ENDMDL
MODEL 5
REMARK VINA RESULT:      -7.1      9.453     13.602
REMARK  10 active torsions:
REMARK  status: ('A' for Active; 'I' for Inactive)
REMARK    1  A    between atoms: C_2  and  C_4 
REMARK    2  A    between atoms: C_4  and  N_5 
REMARK    3  A    between atoms: C_4  and  C_24 
REMARK       I    between atoms: N_5  and  C_6 
REMARK    4  A    between atoms: C_6  and  C_8 
REMARK    5  A    between atoms: C_8  and  N_9 
REMARK    6  A    between atoms: C_12  and  N_13 
REMARK    7  A    between atoms: C_17  and  C_18 
REMARK    8  A    between atoms: C_24  and  O_25 
REMARK    9  A    between atoms: C_24  and  C_26 
REMARK   10  A    between atoms: C_31  and  C_33 
ROOT
HETATM    1  N   UNK N   1      22.850  16.489   5.555  0.00  0.00    -0.352 N 
HETATM    2  C   UNK N   1      22.117  15.982   6.581  0.00  0.00     0.236 C 
HETATM    3  O   UNK N   1      21.627  16.702   7.435  0.00  0.00    -0.272 OA
HETATM    4  H   UNK N   1      23.276  15.826   4.965  0.00  0.00     0.163 HD
ENDROOT
BRANCH   1   5
HETATM    5  C   UNK N   1      23.087  17.884   5.214  0.00  0.00     0.124 C 
BRANCH   5   6
HETATM    6  C   UNK N   1      24.293  18.026   4.249  0.00  0.00     0.003 C 
HETATM    7  C   UNK N   1      25.560  18.581   4.881  0.00  0.00     0.011 C 
HETATM    8  C   UNK N   1      24.662  16.680   3.657  0.00  0.00     0.011 C 
ENDBRANCH   5   6
BRANCH   5   9
HETATM    9  C   UNK N   1      21.772  18.477   4.634  0.00  0.00     0.217 C 
BRANCH   9  10
HETATM   10  O   UNK N   1      21.025  19.061   5.661  0.00  0.00    -0.385 OA
HETATM   11  H   UNK N   1      20.808  18.730   6.545  0.00  0.00     0.210 HD
ENDBRANCH   9  10
BRANCH   9  12
HETATM   12  C   UNK N   1      20.916  17.452   3.938  0.00  0.00     0.171 A 
HETATM   13  N   UNK N   1      19.708  17.047   4.373  0.00  0.00    -0.279 N 
HETATM   14  N   UNK N   1      19.261  16.168   3.490  0.00  0.00    -0.281 N 
ATOM     15  HN  UNK N   1      19.229  17.358   5.219  1.00  0.00     0.189 HD
HETATM   16  C   UNK N   1      20.212  16.055   2.542  0.00  0.00     0.148 A 
ATOM     17  HN  UNK N   1      18.370  15.672   3.521  1.00  0.00     0.189 HD
HETATM   18  O   UNK N   1      21.232  16.835   2.823  0.00  0.00    -0.279 OA
BRANCH  16  19
HETATM   19  C   UNK N   1      20.101  15.176   1.330  0.00  0.00     0.016 C 
HETATM   20  C   UNK N   1      19.178  14.009   1.621  0.00  0.00     0.023 C 
HETATM   21  C   UNK N   1      21.460  14.636   0.926  0.00  0.00     0.023 C 
HETATM   22  C   UNK N   1      19.537  15.970   0.169  0.00  0.00     0.023 C 
ENDBRANCH  16  19
ENDBRANCH   9  12
ENDBRANCH   5   9
ENDBRANCH   1   5
BRANCH   2  23
HETATM   23  C   UNK N   1      21.936  14.495   6.652  0.00  0.00     0.236 C 
BRANCH  23  24
HETATM   24  N   UNK N   1      22.362  13.865   7.923  0.00  0.00    -0.289 N 
HETATM   25  C   UNK N   1      21.415  13.534   8.885  0.00  0.00     0.277 A 
HETATM   26  O   UNK N   1      20.250  13.847   8.740  0.00  0.00    -0.265 OA
HETATM   27  C   UNK N   1      21.783  12.832  10.033  0.00  0.00     0.110 A 
HETATM   28  C   UNK N   1      23.100  12.459  10.194  0.00  0.00     0.124 A 
HETATM   29  N   UNK N   1      24.012  12.801   9.258  0.00  0.00    -0.349 N 
HETATM   30  C   UNK N   1      23.683  13.505   8.137  0.00  0.00     0.121 A 
ATOM     31  HN  UNK N   1      24.984  12.523   9.395  1.00  0.00     0.167 HD
BRANCH  27  32
HETATM   32  N   UNK N   1      20.831  12.487  11.014  0.00  0.00    -0.394 N 
HETATM   33  H   UNK N   1      20.764  11.580  11.390  0.00  0.00     0.156 HD
HETATM   34  H   UNK N   1      20.210  13.181  11.335  0.00  0.00     0.156 HD
ENDBRANCH  27  32
BRANCH  30  35
HETATM   35  C   UNK N   1      24.800  13.848   7.206  0.00  0.00     0.008 A 
HETATM   36  C   UNK N   1      25.183  12.906   6.236  0.00  0.00     0.015 A 
HETATM   37  C   UNK N   1      26.258  13.157   5.381  0.00  0.00     0.001 A 
HETATM   38  C   UNK N   1      26.979  14.345   5.498  0.00  0.00     0.000 A 
HETATM   39  C   UNK N   1      26.618  15.287   6.464  0.00  0.00     0.001 A 
HETATM   40  C   UNK N   1      25.534  15.040   7.311  0.00  0.00     0.015 A 
ENDBRANCH  30  35
ENDBRANCH  23  24
ENDBRANCH   2  23
TORSDOF 10
ENDMDL
MODEL 6
REMARK VINA RESULT:      -7.1     10.528     14.203
REMARK  10 active torsions:
REMARK  status: ('A' for Active; 'I' for Inactive)
REMARK    1  A    between atoms: C_2  and  C_4 
REMARK    2  A    between atoms: C_4  and  N_5 
REMARK    3  A    between atoms: C_4  and  C_24 
REMARK       I    between atoms: N_5  and  C_6 
REMARK    4  A    between atoms: C_6  and  C_8 
REMARK    5  A    between atoms: C_8  and  N_9 
REMARK    6  A    between atoms: C_12  and  N_13 
REMARK    7  A    between atoms: C_17  and  C_18 
REMARK    8  A    between atoms: C_24  and  O_25 
REMARK    9  A    between atoms: C_24  and  C_26 
REMARK   10  A    between atoms: C_31  and  C_33 
ROOT
HETATM    1  N   UNK N   1      21.895  17.895   4.620  0.00  0.00    -0.352 N 
HETATM    2  C   UNK N   1      21.427  17.458   5.818  0.00  0.00     0.236 C 
HETATM    3  O   UNK N   1      21.433  18.171   6.808  0.00  0.00    -0.272 OA
HETATM    4  H   UNK N   1      21.929  17.222   3.902  0.00  0.00     0.163 HD
ENDROOT
BRANCH   1   5
HETATM    5  C   UNK N   1      22.352  19.228   4.259  0.00  0.00     0.124 C 
BRANCH   5   6
HETATM    6  C   UNK N   1      23.834  19.206   3.801  0.00  0.00     0.003 C 
HETATM    7  C   UNK N   1      24.229  20.322   2.846  0.00  0.00     0.011 C 
HETATM    8  C   UNK N   1      24.762  19.315   4.996  0.00  0.00     0.011 C 
ENDBRANCH   5   6
BRANCH   5   9
HETATM    9  C   UNK N   1      21.392  19.800   3.177  0.00  0.00     0.217 C 
BRANCH   9  10
HETATM   10  O   UNK N   1      20.336  20.476   3.794  0.00  0.00    -0.385 OA
HETATM   11  H   UNK N   1      19.437  20.656   3.479  0.00  0.00     0.210 HD
ENDBRANCH   9  10
BRANCH   9  12
HETATM   12  C   UNK N   1      20.823  18.739   2.271  0.00  0.00     0.171 A 
HETATM   13  N   UNK N   1      20.260  18.985   1.072  0.00  0.00    -0.279 N 
HETATM   14  N   UNK N   1      19.908  17.812   0.570  0.00  0.00    -0.281 N 
ATOM     15  HN  UNK N   1      20.131  19.898   0.636  1.00  0.00     0.189 HD
HETATM   16  C   UNK N   1      20.260  16.882   1.480  0.00  0.00     0.148 A 
ATOM     17  HN  UNK N   1      19.458  17.644  -0.329  1.00  0.00     0.189 HD
HETATM   18  O   UNK N   1      20.812  17.453   2.527  0.00  0.00    -0.279 OA
BRANCH  16  19
HETATM   19  C   UNK N   1      20.065  15.403   1.300  0.00  0.00     0.016 C 
HETATM   20  C   UNK N   1      21.377  14.755   0.905  0.00  0.00     0.023 C 
HETATM   21  C   UNK N   1      19.034  15.120   0.224  0.00  0.00     0.023 C 
HETATM   22  C   UNK N   1      19.585  14.787   2.598  0.00  0.00     0.023 C 
ENDBRANCH  16  19
ENDBRANCH   9  12
ENDBRANCH   5   9
ENDBRANCH   1   5
BRANCH   2  23
HETATM   23  C   UNK N   1      20.912  16.051   5.905  0.00  0.00     0.236 C 
BRANCH  23  24
HETATM   24  N   UNK N   1      21.516  15.220   6.970  0.00  0.00    -0.289 N 
HETATM   25  C   UNK N   1      20.781  14.908   8.108  0.00  0.00     0.277 A 
HETATM   26  O   UNK N   1      19.683  15.395   8.288  0.00  0.00    -0.265 OA
HETATM   27  C   UNK N   1      21.289  14.029   9.064  0.00  0.00     0.110 A 
HETATM   28  C   UNK N   1      22.528  13.461   8.858  0.00  0.00     0.124 A 
HETATM   29  N   UNK N   1      23.237  13.785   7.755  0.00  0.00    -0.349 N 
HETATM   30  C   UNK N   1      22.773  14.657   6.815  0.00  0.00     0.121 A 
ATOM     31  HN  UNK N   1      24.155  13.360   7.619  1.00  0.00     0.167 HD
BRANCH  27  32
HETATM   32  N   UNK N   1      20.552  13.703  10.221  0.00  0.00    -0.394 N 
HETATM   33  H   UNK N   1      19.633  13.353  10.181  0.00  0.00     0.156 HD
HETATM   34  H   UNK N   1      20.972  13.831  11.102  0.00  0.00     0.156 HD
ENDBRANCH  27  32
BRANCH  30  35
HETATM   35  C   UNK N   1      23.680  14.953   5.665  0.00  0.00     0.008 A 
HETATM   36  C   UNK N   1      24.852  15.692   5.904  0.00  0.00     0.015 A 
HETATM   37  C   UNK N   1      25.701  16.044   4.853  0.00  0.00     0.001 A 
HETATM   38  C   UNK N   1      25.381  15.680   3.546  0.00  0.00     0.000 A 
HETATM   39  C   UNK N   1      24.215  14.955   3.290  0.00  0.00     0.001 A 
HETATM   40  C   UNK N   1      23.372  14.593   4.344  0.00  0.00     0.015 A 
ENDBRANCH  30  35
ENDBRANCH  23  24
ENDBRANCH   2  23
TORSDOF 10
ENDMDL
MODEL 7
REMARK VINA RESULT:      -7.1      3.017      9.706
REMARK  10 active torsions:
REMARK  status: ('A' for Active; 'I' for Inactive)
REMARK    1  A    between atoms: C_2  and  C_4 
REMARK    2  A    between atoms: C_4  and  N_5 
REMARK    3  A    between atoms: C_4  and  C_24 
REMARK       I    between atoms: N_5  and  C_6 
REMARK    4  A    between atoms: C_6  and  C_8 
REMARK    5  A    between atoms: C_8  and  N_9 
REMARK    6  A    between atoms: C_12  and  N_13 
REMARK    7  A    between atoms: C_17  and  C_18 
REMARK    8  A    between atoms: C_24  and  O_25 
REMARK    9  A    between atoms: C_24  and  C_26 
REMARK   10  A    between atoms: C_31  and  C_33 
ROOT
HETATM    1  N   UNK N   1      35.730  13.054  13.127  0.00  0.00    -0.352 N 
HETATM    2  C   UNK N   1      35.950  13.245  14.454  0.00  0.00     0.236 C 
HETATM    3  O   UNK N   1      37.007  13.690  14.871  0.00  0.00    -0.272 OA
HETATM    4  H   UNK N   1      34.882  12.611  12.893  0.00  0.00     0.163 HD
ENDROOT
BRANCH   1   5
HETATM    5  C   UNK N   1      36.583  13.417  12.006  0.00  0.00     0.124 C 
BRANCH   5   6
HETATM    6  C   UNK N   1      36.362  12.464  10.803  0.00  0.00     0.003 C 
HETATM    7  C   UNK N   1      37.533  11.548  10.485  0.00  0.00     0.011 C 
HETATM    8  C   UNK N   1      35.167  11.563  11.050  0.00  0.00     0.011 C 
ENDBRANCH   5   6
BRANCH   5   9
HETATM    9  C   UNK N   1      36.320  14.909  11.655  0.00  0.00     0.217 C 
BRANCH   9  10
HETATM   10  O   UNK N   1      36.232  15.662  12.829  0.00  0.00    -0.385 OA
HETATM   11  H   UNK N   1      36.018  15.389  13.734  0.00  0.00     0.210 HD
ENDBRANCH   9  10
BRANCH   9  12
HETATM   12  C   UNK N   1      35.062  15.116  10.853  0.00  0.00     0.171 A 
HETATM   13  N   UNK N   1      33.823  14.831  11.296  0.00  0.00    -0.279 N 
HETATM   14  N   UNK N   1      32.986  15.171  10.327  0.00  0.00    -0.281 N 
ATOM     15  HN  UNK N   1      33.576  14.431  12.201  1.00  0.00     0.189 HD
HETATM   16  C   UNK N   1      33.738  15.649   9.317  0.00  0.00     0.148 A 
ATOM     17  HN  UNK N   1      31.970  15.087  10.343  1.00  0.00     0.189 HD
HETATM   18  O   UNK N   1      35.013  15.606   9.637  0.00  0.00    -0.279 OA
BRANCH  16  19
HETATM   19  C   UNK N   1      33.186  16.177   8.024  0.00  0.00     0.016 C 
HETATM   20  C   UNK N   1      34.257  16.136   6.952  0.00  0.00     0.023 C 
HETATM   21  C   UNK N   1      32.707  17.607   8.183  0.00  0.00     0.023 C 
HETATM   22  C   UNK N   1      32.015  15.325   7.580  0.00  0.00     0.023 C 
ENDBRANCH  16  19
ENDBRANCH   9  12
ENDBRANCH   5   9
ENDBRANCH   1   5
BRANCH   2  23
HETATM   23  C   UNK N   1      34.857  12.874  15.412  0.00  0.00     0.236 C 
BRANCH  23  24
HETATM   24  N   UNK N   1      35.305  12.225  16.665  0.00  0.00    -0.289 N 
HETATM   25  C   UNK N   1      35.139  12.874  17.882  0.00  0.00     0.277 A 
HETATM   26  O   UNK N   1      34.722  14.015  17.923  0.00  0.00    -0.265 OA
HETATM   27  C   UNK N   1      35.444  12.230  19.080  0.00  0.00     0.110 A 
HETATM   28  C   UNK N   1      35.901  10.930  19.041  0.00  0.00     0.124 A 
HETATM   29  N   UNK N   1      36.072  10.316  17.850  0.00  0.00    -0.349 N 
HETATM   30  C   UNK N   1      35.801  10.931  16.664  0.00  0.00     0.121 A 
ATOM     31  HN  UNK N   1      36.416   9.355  17.838  1.00  0.00     0.167 HD
BRANCH  27  32
HETATM   32  N   UNK N   1      35.276  12.877  20.321  0.00  0.00    -0.394 N 
HETATM   33  H   UNK N   1      35.940  13.508  20.682  0.00  0.00     0.156 HD
HETATM   34  H   UNK N   1      34.464  12.691  20.847  0.00  0.00     0.156 HD
ENDBRANCH  27  32
BRANCH  30  35
HETATM   35  C   UNK N   1      36.074  10.146  15.422  0.00  0.00     0.008 A 
HETATM   36  C   UNK N   1      37.388  10.110  14.922  0.00  0.00     0.015 A 
HETATM   37  C   UNK N   1      37.682   9.439  13.733  0.00  0.00     0.001 A 
HETATM   38  C   UNK N   1      36.663   8.812  13.016  0.00  0.00     0.000 A 
HETATM   39  C   UNK N   1      35.351   8.848  13.493  0.00  0.00     0.001 A 
HETATM   40  C   UNK N   1      35.060   9.510  14.689  0.00  0.00     0.015 A 
ENDBRANCH  30  35
ENDBRANCH  23  24
ENDBRANCH   2  23
TORSDOF 10
ENDMDL
MODEL 8
REMARK VINA RESULT:      -7.1      4.094      9.323
REMARK  10 active torsions:
REMARK  status: ('A' for Active; 'I' for Inactive)
REMARK    1  A    between atoms: C_2  and  C_4 
REMARK    2  A    between atoms: C_4  and  N_5 
REMARK    3  A    between atoms: C_4  and  C_24 
REMARK       I    between atoms: N_5  and  C_6 
REMARK    4  A    between atoms: C_6  and  C_8 
REMARK    5  A    between atoms: C_8  and  N_9 
REMARK    6  A    between atoms: C_12  and  N_13 
REMARK    7  A    between atoms: C_17  and  C_18 
REMARK    8  A    between atoms: C_24  and  O_25 
REMARK    9  A    between atoms: C_24  and  C_26 
REMARK   10  A    between atoms: C_31  and  C_33 
ROOT
HETATM    1  N   UNK N   1      29.195  15.547   5.345  0.00  0.00    -0.352 N 
HETATM    2  C   UNK N   1      30.546  15.526   5.499  0.00  0.00     0.236 C 
HETATM    3  O   UNK N   1      31.226  14.610   5.067  0.00  0.00    -0.272 OA
HETATM    4  H   UNK N   1      28.724  16.280   5.801  0.00  0.00     0.163 HD
ENDROOT
BRANCH   1   5
HETATM    5  C   UNK N   1      28.356  14.625   4.595  0.00  0.00     0.124 C 
BRANCH   5   6
HETATM    6  C   UNK N   1      27.188  14.096   5.467  0.00  0.00     0.003 C 
HETATM    7  C   UNK N   1      26.589  15.113   6.425  0.00  0.00     0.011 C 
HETATM    8  C   UNK N   1      26.049  13.607   4.593  0.00  0.00     0.011 C 
ENDBRANCH   5   6
BRANCH   5   9
HETATM    9  C   UNK N   1      27.871  15.346   3.304  0.00  0.00     0.217 C 
BRANCH   9  10
HETATM   10  O   UNK N   1      28.810  15.170   2.285  0.00  0.00    -0.385 OA
HETATM   11  H   UNK N   1      28.958  15.680   1.474  0.00  0.00     0.210 HD
ENDBRANCH   9  10
BRANCH   9  12
HETATM   12  C   UNK N   1      27.641  16.821   3.500  0.00  0.00     0.171 A 
HETATM   13  N   UNK N   1      28.615  17.751   3.483  0.00  0.00    -0.279 N 
HETATM   14  N   UNK N   1      28.024  18.923   3.662  0.00  0.00    -0.281 N 
ATOM     15  HN  UNK N   1      29.613  17.586   3.357  1.00  0.00     0.189 HD
HETATM   16  C   UNK N   1      26.706  18.675   3.790  0.00  0.00     0.148 A 
ATOM     17  HN  UNK N   1      28.478  19.835   3.697  1.00  0.00     0.189 HD
HETATM   18  O   UNK N   1      26.473  17.384   3.701  0.00  0.00    -0.279 OA
BRANCH  16  19
HETATM   19  C   UNK N   1      25.658  19.733   3.983  0.00  0.00     0.016 C 
HETATM   20  C   UNK N   1      24.324  19.086   4.299  0.00  0.00     0.023 C 
HETATM   21  C   UNK N   1      25.508  20.581   2.733  0.00  0.00     0.023 C 
HETATM   22  C   UNK N   1      26.048  20.640   5.132  0.00  0.00     0.023 C 
ENDBRANCH  16  19
ENDBRANCH   9  12
ENDBRANCH   5   9
ENDBRANCH   1   5
BRANCH   2  23
HETATM   23  C   UNK N   1      31.189  16.661   6.239  0.00  0.00     0.236 C 
BRANCH  23  24
HETATM   24  N   UNK N   1      30.562  17.009   7.534  0.00  0.00    -0.289 N 
HETATM   25  C   UNK N   1      29.388  17.752   7.560  0.00  0.00     0.277 A 
HETATM   26  O   UNK N   1      28.923  18.209   6.535  0.00  0.00    -0.265 OA
HETATM   27  C   UNK N   1      28.720  17.986   8.761  0.00  0.00     0.110 A 
HETATM   28  C   UNK N   1      29.235  17.457   9.926  0.00  0.00     0.124 A 
HETATM   29  N   UNK N   1      30.385  16.750   9.888  0.00  0.00    -0.349 N 
HETATM   30  C   UNK N   1      31.069  16.524   8.730  0.00  0.00     0.121 A 
ATOM     31  HN  UNK N   1      30.756  16.369  10.759  1.00  0.00     0.167 HD
BRANCH  27  32
HETATM   32  N   UNK N   1      27.527  18.736   8.799  0.00  0.00    -0.394 N 
HETATM   33  H   UNK N   1      27.322  19.367   9.526  0.00  0.00     0.156 HD
HETATM   34  H   UNK N   1      26.874  18.625   8.070  0.00  0.00     0.156 HD
ENDBRANCH  27  32
BRANCH  30  35
HETATM   35  C   UNK N   1      32.347  15.759   8.841  0.00  0.00     0.008 A 
HETATM   36  C   UNK N   1      33.553  16.473   8.956  0.00  0.00     0.015 A 
HETATM   37  C   UNK N   1      34.778  15.805   9.004  0.00  0.00     0.001 A 
HETATM   38  C   UNK N   1      34.816  14.413   8.918  0.00  0.00     0.000 A 
HETATM   39  C   UNK N   1      33.629  13.689   8.793  0.00  0.00     0.001 A 
HETATM   40  C   UNK N   1      32.403  14.359   8.757  0.00  0.00     0.015 A 
ENDBRANCH  30  35
ENDBRANCH  23  24
ENDBRANCH   2  23
TORSDOF 10
ENDMDL
MODEL 9
REMARK VINA RESULT:      -7.0      2.701      9.862
REMARK  10 active torsions:
REMARK  status: ('A' for Active; 'I' for Inactive)
REMARK    1  A    between atoms: C_2  and  C_4 
REMARK    2  A    between atoms: C_4  and  N_5 
REMARK    3  A    between atoms: C_4  and  C_24 
REMARK       I    between atoms: N_5  and  C_6 
REMARK    4  A    between atoms: C_6  and  C_8 
REMARK    5  A    between atoms: C_8  and  N_9 
REMARK    6  A    between atoms: C_12  and  N_13 
REMARK    7  A    between atoms: C_17  and  C_18 
REMARK    8  A    between atoms: C_24  and  O_25 
REMARK    9  A    between atoms: C_24  and  C_26 
REMARK   10  A    between atoms: C_31  and  C_33 
ROOT
HETATM    1  N   UNK N   1      35.713  12.255  11.260  0.00  0.00    -0.352 N 
HETATM    2  C   UNK N   1      35.022  12.478  12.409  0.00  0.00     0.236 C 
HETATM    3  O   UNK N   1      34.621  13.590  12.710  0.00  0.00    -0.272 OA
HETATM    4  H   UNK N   1      36.069  11.345  11.145  0.00  0.00     0.163 HD
ENDROOT
BRANCH   1   5
HETATM    5  C   UNK N   1      35.997  13.187  10.179  0.00  0.00     0.124 C 
BRANCH   5   6
HETATM    6  C   UNK N   1      37.396  12.921   9.565  0.00  0.00     0.003 C 
HETATM    7  C   UNK N   1      38.366  14.089   9.646  0.00  0.00     0.011 C 
HETATM    8  C   UNK N   1      38.070  11.754  10.261  0.00  0.00     0.011 C 
ENDBRANCH   5   6
BRANCH   5   9
HETATM    9  C   UNK N   1      34.848  13.090   9.136  0.00  0.00     0.217 C 
BRANCH   9  10
HETATM   10  O   UNK N   1      35.386  12.977   7.851  0.00  0.00    -0.385 OA
HETATM   11  H   UNK N   1      35.596  13.660   7.196  0.00  0.00     0.210 HD
ENDBRANCH   9  10
BRANCH   9  12
HETATM   12  C   UNK N   1      33.918  14.274   9.167  0.00  0.00     0.171 A 
HETATM   13  N   UNK N   1      33.032  14.520  10.151  0.00  0.00    -0.279 N 
HETATM   14  N   UNK N   1      32.424  15.654   9.840  0.00  0.00    -0.281 N 
ATOM     15  HN  UNK N   1      32.863  13.944  10.976  1.00  0.00     0.189 HD
HETATM   16  C   UNK N   1      32.951  16.067   8.671  0.00  0.00     0.148 A 
ATOM     17  HN  UNK N   1      31.697  16.124  10.381  1.00  0.00     0.189 HD
HETATM   18  O   UNK N   1      33.861  15.214   8.254  0.00  0.00    -0.279 OA
BRANCH  16  19
HETATM   19  C   UNK N   1      32.563  17.335   7.966  0.00  0.00     0.016 C 
HETATM   20  C   UNK N   1      33.707  18.329   8.027  0.00  0.00     0.023 C 
HETATM   21  C   UNK N   1      31.338  17.958   8.609  0.00  0.00     0.023 C 
HETATM   22  C   UNK N   1      32.246  17.040   6.515  0.00  0.00     0.023 C 
ENDBRANCH  16  19
ENDBRANCH   9  12
ENDBRANCH   5   9
ENDBRANCH   1   5
BRANCH   2  23
HETATM   23  C   UNK N   1      34.774  11.314  13.321  0.00  0.00     0.236 C 
BRANCH  23  24
HETATM   24  N   UNK N   1      35.976  10.537  13.699  0.00  0.00    -0.289 N 
HETATM   25  C   UNK N   1      36.433   9.518  12.871  0.00  0.00     0.277 A 
HETATM   26  O   UNK N   1      35.798   9.187  11.890  0.00  0.00    -0.265 OA
HETATM   27  C   UNK N   1      37.630   8.859  13.149  0.00  0.00     0.110 A 
HETATM   28  C   UNK N   1      38.363   9.241  14.252  0.00  0.00     0.124 A 
HETATM   29  N   UNK N   1      37.899  10.223  15.056  0.00  0.00    -0.349 N 
HETATM   30  C   UNK N   1      36.722  10.869  14.818  0.00  0.00     0.121 A 
ATOM     31  HN  UNK N   1      38.451  10.490  15.871  1.00  0.00     0.167 HD
BRANCH  27  32
HETATM   32  N   UNK N   1      38.104   7.826  12.315  0.00  0.00    -0.394 N 
HETATM   33  H   UNK N   1      37.674   6.942  12.271  0.00  0.00     0.156 HD
HETATM   34  H   UNK N   1      38.897   7.996  11.755  0.00  0.00     0.156 HD
ENDBRANCH  27  32
BRANCH  30  35
HETATM   35  C   UNK N   1      36.312  11.907  15.812  0.00  0.00     0.008 A 
HETATM   36  C   UNK N   1      35.579  11.506  16.943  0.00  0.00     0.015 A 
HETATM   37  C   UNK N   1      35.124  12.446  17.870  0.00  0.00     0.001 A 
HETATM   38  C   UNK N   1      35.376  13.802  17.668  0.00  0.00     0.000 A 
HETATM   39  C   UNK N   1      36.094  14.219  16.545  0.00  0.00     0.001 A 
HETATM   40  C   UNK N   1      36.559  13.276  15.624  0.00  0.00     0.015 A 
ENDBRANCH  30  35
ENDBRANCH  23  24
ENDBRANCH   2  23
TORSDOF 10
ENDMDL
