REMARK  6 active torsions:
REMARK  status: ('A' for Active; 'I' for Inactive)
REMARK    1  A    between atoms: C_4  and  C_2 
REMARK    2  A    between atoms: O_12  and  C_2 
REMARK    3  A    between atoms: C_5  and  O_7 
REMARK    4  A    between atoms: P_13  and  O_8 
REMARK    5  A    between atoms: P_13  and  O_9 
REMARK    6  A    between atoms: P_13  and  O_12 
ROOT
HETATM    1  C   UNK N   1       2.367   1.090   0.352  0.00  0.00     0.202 C 
HETATM    2  C   UNK N   1       1.334   2.135  -0.016  0.00  0.00     0.173 C 
HETATM    3  C   UNK N   1       0.427   0.010  -0.128  0.00  0.00     0.177 C 
HETATM    4  C   UNK N   1       0.105   1.396   0.402  0.00  0.00     0.180 C 
HETATM    5  O   UNK N   1       1.357   2.338  -1.401  0.00  0.00    -0.391 OA
HETATM    6  O   UNK N   1       1.804  -0.194   0.116  0.00  0.00    -0.378 OA
HETATM    7  H   UNK N   1       1.487   2.394  -2.361  0.00  0.00     0.210 HD
ENDROOT
BRANCH   4   8
HETATM    8  O   UNK N   1      -1.070   1.935  -0.127  0.00  0.00    -0.390 OA
HETATM    9  H   UNK N   1      -1.154   2.829  -0.495  0.00  0.00     0.210 HD
ENDBRANCH   4   8
BRANCH   3  10
HETATM   10  C   UNK N   1      -0.409  -1.064   0.566  0.00  0.00     0.215 C 
BRANCH  10  11
HETATM   11  O   UNK N   1      -1.771  -0.765   0.451  0.00  0.00    -0.294 OA
BRANCH  11  12
HETATM   12  P   UNK N   1      -2.590  -2.194  -0.123  0.00  0.00     0.390 P 
HETATM   13  O   UNK N   1      -1.567  -3.188  -0.739  0.00  0.00    -0.632 OA
BRANCH  12  14
HETATM   14  O   UNK N   1      -3.407  -3.014   1.171  0.00  0.00    -0.307 OA
HETATM   15  H   UNK N   1      -4.032  -2.847   1.894  0.00  0.00     0.222 HD
ENDBRANCH  12  14
BRANCH  12  16
HETATM   16  O   UNK N   1      -3.708  -1.780  -1.384  0.00  0.00    -0.307 OA
HETATM   17  H   UNK N   1      -3.820  -1.124  -2.089  0.00  0.00     0.222 HD
ENDBRANCH  12  16
ENDBRANCH  11  12
ENDBRANCH  10  11
ENDBRANCH   3  10
TORSDOF 6
