MODEL 1
REMARK VINA RESULT:      -4.7      0.000      0.000
REMARK  2 active torsions:
REMARK  status: ('A' for Active; 'I' for Inactive)
REMARK    1  A    between atoms: N_1  and  C_2 
REMARK    2  A    between atoms: C_3  and  N_4 
ROOT
HETATM    1  C   UNK N   1      20.028  17.961   1.684  0.00  0.00     0.135 A 
HETATM    2  C   UNK N   1      20.191  18.252   3.047  0.00  0.00     0.139 A 
HETATM    3  C   UNK N   1      20.697  19.505   3.411  0.00  0.00     0.279 A 
HETATM    4  O   UNK N   1      20.852  19.793   4.584  0.00  0.00    -0.265 OA
HETATM    5  N   UNK N   1      21.020  20.415   2.441  0.00  0.00    -0.273 N 
HETATM    6  C   UNK N   1      20.854  20.112   1.116  0.00  0.00     0.328 A 
HETATM    7  O   UNK N   1      21.145  20.931   0.265  0.00  0.00    -0.247 OA
HETATM    8  N   UNK N   1      20.359  18.888   0.750  0.00  0.00    -0.293 N 
HETATM    9  H   UNK N   1      21.376  21.296   2.699  0.00  0.00     0.173 HD
HETATM   10  H   UNK N   1      20.242  18.679  -0.205  0.00  0.00     0.172 HD
ENDROOT
BRANCH   1  11
HETATM   11  N   UNK N   1      19.521  16.709   1.273  0.00  0.00    -0.383 N 
HETATM   12  H   UNK N   1      19.602  15.926   1.866  0.00  0.00     0.157 HD
HETATM   13  H   UNK N   1      19.086  16.619   0.394  0.00  0.00     0.157 HD
ENDBRANCH   1  11
BRANCH   2  14
HETATM   14  N   UNK N   1      19.852  17.301   4.036  0.00  0.00    -0.392 N 
HETATM   15  H   UNK N   1      18.933  16.953   4.089  0.00  0.00     0.156 HD
HETATM   16  H   UNK N   1      20.535  16.986   4.671  0.00  0.00     0.156 HD
ENDBRANCH   2  14
TORSDOF 2
ENDMDL
MODEL 2
REMARK VINA RESULT:      -4.7     22.548     23.349
REMARK  2 active torsions:
REMARK  status: ('A' for Active; 'I' for Inactive)
REMARK    1  A    between atoms: N_1  and  C_2 
REMARK    2  A    between atoms: C_3  and  N_4 
ROOT
HETATM    1  C   UNK N   1      44.423  22.046   3.679  0.00  0.00     0.135 A 
HETATM    2  C   UNK N   1      43.803  23.117   3.018  0.00  0.00     0.139 A 
HETATM    3  C   UNK N   1      42.509  22.937   2.514  0.00  0.00     0.279 A 
HETATM    4  O   UNK N   1      41.941  23.845   1.934  0.00  0.00    -0.265 OA
HETATM    5  N   UNK N   1      41.879  21.734   2.673  0.00  0.00    -0.273 N 
HETATM    6  C   UNK N   1      42.500  20.700   3.322  0.00  0.00     0.328 A 
HETATM    7  O   UNK N   1      41.928  19.635   3.456  0.00  0.00    -0.247 OA
HETATM    8  N   UNK N   1      43.766  20.866   3.819  0.00  0.00    -0.293 N 
HETATM    9  H   UNK N   1      40.969  21.609   2.318  0.00  0.00     0.173 HD
HETATM   10  H   UNK N   1      44.206  20.117   4.284  0.00  0.00     0.172 HD
ENDROOT
BRANCH   1  11
HETATM   11  N   UNK N   1      45.726  22.183   4.203  0.00  0.00    -0.383 N 
HETATM   12  H   UNK N   1      46.052  21.553   4.887  0.00  0.00     0.157 HD
HETATM   13  H   UNK N   1      46.311  22.910   3.885  0.00  0.00     0.157 HD
ENDBRANCH   1  11
BRANCH   2  14
HETATM   14  N   UNK N   1      44.469  24.353   2.862  0.00  0.00    -0.392 N 
HETATM   15  H   UNK N   1      44.082  25.172   3.249  0.00  0.00     0.156 HD
HETATM   16  H   UNK N   1      45.319  24.396   2.367  0.00  0.00     0.156 HD
ENDBRANCH   2  14
TORSDOF 2
ENDMDL
MODEL 3
REMARK VINA RESULT:      -4.7      9.746     11.054
REMARK  2 active torsions:
REMARK  status: ('A' for Active; 'I' for Inactive)
REMARK    1  A    between atoms: N_1  and  C_2 
REMARK    2  A    between atoms: C_3  and  N_4 
ROOT
HETATM    1  C   UNK N   1      22.906  12.101  11.736  0.00  0.00     0.135 A 
HETATM    2  C   UNK N   1      21.676  12.270  11.082  0.00  0.00     0.139 A 
HETATM    3  C   UNK N   1      21.670  12.815   9.793  0.00  0.00     0.279 A 
HETATM    4  O   UNK N   1      20.621  12.976   9.195  0.00  0.00    -0.265 OA
HETATM    5  N   UNK N   1      22.850  13.169   9.199  0.00  0.00    -0.273 N 
HETATM    6  C   UNK N   1      24.041  12.997   9.853  0.00  0.00     0.328 A 
HETATM    7  O   UNK N   1      25.082  13.317   9.312  0.00  0.00    -0.247 OA
HETATM    8  N   UNK N   1      24.058  12.464  11.115  0.00  0.00    -0.293 N 
HETATM    9  H   UNK N   1      22.843  13.552   8.291  0.00  0.00     0.173 HD
HETATM   10  H   UNK N   1      24.918  12.344  11.578  0.00  0.00     0.172 HD
ENDROOT
BRANCH   1  11
HETATM   11  N   UNK N   1      22.959  11.556  13.037  0.00  0.00    -0.383 N 
HETATM   12  H   UNK N   1      23.439  12.033  13.752  0.00  0.00     0.157 HD
HETATM   13  H   UNK N   1      22.515  10.697  13.229  0.00  0.00     0.157 HD
ENDBRANCH   1  11
BRANCH   2  14
HETATM   14  N   UNK N   1      20.466  11.898  11.710  0.00  0.00    -0.392 N 
HETATM   15  H   UNK N   1      19.702  11.598  11.167  0.00  0.00     0.156 HD
HETATM   16  H   UNK N   1      20.388  11.939  12.691  0.00  0.00     0.156 HD
ENDBRANCH   2  14
TORSDOF 2
ENDMDL
MODEL 4
REMARK VINA RESULT:      -4.6     14.223     14.835
REMARK  2 active torsions:
REMARK  status: ('A' for Active; 'I' for Inactive)
REMARK    1  A    between atoms: N_1  and  C_2 
REMARK    2  A    between atoms: C_3  and  N_4 
ROOT
HETATM    1  C   UNK N   1      33.324  16.119   9.113  0.00  0.00     0.135 A 
HETATM    2  C   UNK N   1      34.265  17.140   9.311  0.00  0.00     0.139 A 
HETATM    3  C   UNK N   1      34.431  18.106   8.311  0.00  0.00     0.279 A 
HETATM    4  O   UNK N   1      35.239  19.007   8.450  0.00  0.00    -0.265 OA
HETATM    5  N   UNK N   1      33.679  18.038   7.170  0.00  0.00    -0.273 N 
HETATM    6  C   UNK N   1      32.765  17.034   6.994  0.00  0.00     0.328 A 
HETATM    7  O   UNK N   1      32.104  16.986   5.975  0.00  0.00    -0.247 OA
HETATM    8  N   UNK N   1      32.596  16.084   7.967  0.00  0.00    -0.293 N 
HETATM    9  H   UNK N   1      33.797  18.718   6.468  0.00  0.00     0.173 HD
HETATM   10  H   UNK N   1      31.937  15.365   7.833  0.00  0.00     0.172 HD
ENDROOT
BRANCH   1  11
HETATM   11  N   UNK N   1      33.125  15.125  10.095  0.00  0.00    -0.383 N 
HETATM   12  H   UNK N   1      33.894  14.621  10.448  0.00  0.00     0.157 HD
HETATM   13  H   UNK N   1      32.217  14.936  10.427  0.00  0.00     0.157 HD
ENDBRANCH   1  11
BRANCH   2  14
HETATM   14  N   UNK N   1      35.033  17.195  10.496  0.00  0.00    -0.392 N 
HETATM   15  H   UNK N   1      34.631  17.535  11.328  0.00  0.00     0.156 HD
HETATM   16  H   UNK N   1      35.971  16.895  10.490  0.00  0.00     0.156 HD
ENDBRANCH   2  14
TORSDOF 2
ENDMDL
MODEL 5
REMARK VINA RESULT:      -4.5      9.643     11.463
REMARK  2 active torsions:
REMARK  status: ('A' for Active; 'I' for Inactive)
REMARK    1  A    between atoms: N_1  and  C_2 
REMARK    2  A    between atoms: C_3  and  N_4 
ROOT
HETATM    1  C   UNK N   1      23.877  12.808  10.298  0.00  0.00     0.135 A 
HETATM    2  C   UNK N   1      22.601  12.993   9.744  0.00  0.00     0.139 A 
HETATM    3  C   UNK N   1      21.480  12.632  10.501  0.00  0.00     0.279 A 
HETATM    4  O   UNK N   1      20.358  12.779  10.051  0.00  0.00    -0.265 OA
HETATM    5  N   UNK N   1      21.646  12.111  11.755  0.00  0.00    -0.273 N 
HETATM    6  C   UNK N   1      22.899  11.938  12.279  0.00  0.00     0.328 A 
HETATM    7  O   UNK N   1      23.031  11.473  13.396  0.00  0.00    -0.247 OA
HETATM    8  N   UNK N   1      24.002  12.288  11.546  0.00  0.00    -0.293 N 
HETATM    9  H   UNK N   1      20.856  11.858  12.286  0.00  0.00     0.173 HD
HETATM   10  H   UNK N   1      24.900  12.160  11.931  0.00  0.00     0.172 HD
ENDROOT
BRANCH   1  11
HETATM   11  N   UNK N   1      25.034  13.157   9.570  0.00  0.00    -0.383 N 
HETATM   12  H   UNK N   1      24.957  13.444   8.631  0.00  0.00     0.157 HD
HETATM   13  H   UNK N   1      25.919  13.115  10.002  0.00  0.00     0.157 HD
ENDBRANCH   1  11
BRANCH   2  14
HETATM   14  N   UNK N   1      22.448  13.532   8.447  0.00  0.00    -0.392 N 
HETATM   15  H   UNK N   1      22.181  14.473   8.334  0.00  0.00     0.156 HD
HETATM   16  H   UNK N   1      22.608  12.967   7.656  0.00  0.00     0.156 HD
ENDBRANCH   2  14
TORSDOF 2
ENDMDL
MODEL 6
REMARK VINA RESULT:      -4.4     14.429     15.055
REMARK  2 active torsions:
REMARK  status: ('A' for Active; 'I' for Inactive)
REMARK    1  A    between atoms: N_1  and  C_2 
REMARK    2  A    between atoms: C_3  and  N_4 
ROOT
HETATM    1  C   UNK N   1      34.333  16.791   9.371  0.00  0.00     0.135 A 
HETATM    2  C   UNK N   1      33.461  15.692   9.329  0.00  0.00     0.139 A 
HETATM    3  C   UNK N   1      32.850  15.365   8.113  0.00  0.00     0.279 A 
HETATM    4  O   UNK N   1      32.088  14.418   8.040  0.00  0.00    -0.265 OA
HETATM    5  N   UNK N   1      33.111  16.114   6.998  0.00  0.00    -0.273 N 
HETATM    6  C   UNK N   1      33.965  17.183   7.059  0.00  0.00     0.328 A 
HETATM    7  O   UNK N   1      34.187  17.840   6.059  0.00  0.00    -0.247 OA
HETATM    8  N   UNK N   1      34.568  17.511   8.244  0.00  0.00    -0.293 N 
HETATM    9  H   UNK N   1      32.680  15.882   6.144  0.00  0.00     0.173 HD
HETATM   10  H   UNK N   1      35.180  18.281   8.279  0.00  0.00     0.172 HD
ENDROOT
BRANCH   1  11
HETATM   11  N   UNK N   1      34.970  17.156  10.576  0.00  0.00    -0.383 N 
HETATM   12  H   UNK N   1      35.871  16.814  10.780  0.00  0.00     0.157 HD
HETATM   13  H   UNK N   1      34.515  17.754  11.213  0.00  0.00     0.157 HD
ENDBRANCH   1  11
BRANCH   2  14
HETATM   14  N   UNK N   1      33.203  14.929  10.490  0.00  0.00    -0.392 N 
HETATM   15  H   UNK N   1      32.640  15.301  11.208  0.00  0.00     0.156 HD
HETATM   16  H   UNK N   1      33.586  14.027  10.582  0.00  0.00     0.156 HD
ENDBRANCH   2  14
TORSDOF 2
ENDMDL
MODEL 7
REMARK VINA RESULT:      -4.4     22.453     23.176
REMARK  2 active torsions:
REMARK  status: ('A' for Active; 'I' for Inactive)
REMARK    1  A    between atoms: N_1  and  C_2 
REMARK    2  A    between atoms: C_3  and  N_4 
ROOT
HETATM    1  C   UNK N   1      42.406  22.826   2.586  0.00  0.00     0.135 A 
HETATM    2  C   UNK N   1      43.681  23.035   3.133  0.00  0.00     0.139 A 
HETATM    3  C   UNK N   1      44.327  21.962   3.759  0.00  0.00     0.279 A 
HETATM    4  O   UNK N   1      45.435  22.107   4.245  0.00  0.00    -0.265 OA
HETATM    5  N   UNK N   1      43.711  20.742   3.825  0.00  0.00    -0.273 N 
HETATM    6  C   UNK N   1      42.466  20.558   3.285  0.00  0.00     0.328 A 
HETATM    7  O   UNK N   1      41.931  19.468   3.351  0.00  0.00    -0.247 OA
HETATM    8  N   UNK N   1      41.826  21.601   2.670  0.00  0.00    -0.293 N 
HETATM    9  H   UNK N   1      44.168  19.989   4.265  0.00  0.00     0.173 HD
HETATM   10  H   UNK N   1      40.931  21.461   2.284  0.00  0.00     0.172 HD
ENDROOT
BRANCH   1  11
HETATM   11  N   UNK N   1      41.718  23.879   1.946  0.00  0.00    -0.383 N 
HETATM   12  H   UNK N   1      41.231  24.547   2.482  0.00  0.00     0.157 HD
HETATM   13  H   UNK N   1      41.725  23.947   0.963  0.00  0.00     0.157 HD
ENDBRANCH   1  11
BRANCH   2  14
HETATM   14  N   UNK N   1      44.303  24.301   3.056  0.00  0.00    -0.392 N 
HETATM   15  H   UNK N   1      45.264  24.366   2.854  0.00  0.00     0.156 HD
HETATM   16  H   UNK N   1      43.775  25.119   3.204  0.00  0.00     0.156 HD
ENDBRANCH   2  14
TORSDOF 2
ENDMDL
MODEL 8
REMARK VINA RESULT:      -4.4      9.307     10.789
REMARK  2 active torsions:
REMARK  status: ('A' for Active; 'I' for Inactive)
REMARK    1  A    between atoms: N_1  and  C_2 
REMARK    2  A    between atoms: C_3  and  N_4 
ROOT
HETATM    1  C   UNK N   1      23.638  12.554  10.669  0.00  0.00     0.135 A 
HETATM    2  C   UNK N   1      22.559  12.161  11.476  0.00  0.00     0.139 A 
HETATM    3  C   UNK N   1      21.257  12.409  11.024  0.00  0.00     0.279 A 
HETATM    4  O   UNK N   1      20.296  12.082  11.698  0.00  0.00    -0.265 OA
HETATM    5  N   UNK N   1      21.061  13.023   9.818  0.00  0.00    -0.273 N 
HETATM    6  C   UNK N   1      22.127  13.399   9.044  0.00  0.00     0.328 A 
HETATM    7  O   UNK N   1      21.938  13.944   7.974  0.00  0.00    -0.247 OA
HETATM    8  N   UNK N   1      23.405  13.161   9.478  0.00  0.00    -0.293 N 
HETATM    9  H   UNK N   1      20.145  13.196   9.502  0.00  0.00     0.173 HD
HETATM   10  H   UNK N   1      24.166  13.435   8.916  0.00  0.00     0.172 HD
ENDROOT
BRANCH   1  11
HETATM   11  N   UNK N   1      24.966  12.324  11.086  0.00  0.00    -0.383 N 
HETATM   12  H   UNK N   1      25.515  13.071  11.417  0.00  0.00     0.157 HD
HETATM   13  H   UNK N   1      25.344  11.415  11.046  0.00  0.00     0.157 HD
ENDBRANCH   1  11
BRANCH   2  14
HETATM   14  N   UNK N   1      22.778  11.528  12.720  0.00  0.00    -0.392 N 
HETATM   15  H   UNK N   1      22.025  11.380  13.336  0.00  0.00     0.156 HD
HETATM   16  H   UNK N   1      23.684  11.235  12.970  0.00  0.00     0.156 HD
ENDBRANCH   2  14
TORSDOF 2
ENDMDL
MODEL 9
REMARK VINA RESULT:      -4.3     14.160     14.853
REMARK  2 active torsions:
REMARK  status: ('A' for Active; 'I' for Inactive)
REMARK    1  A    between atoms: N_1  and  C_2 
REMARK    2  A    between atoms: C_3  and  N_4 
ROOT
HETATM    1  C   UNK N   1      33.488  16.136   9.272  0.00  0.00     0.135 A 
HETATM    2  C   UNK N   1      33.019  15.779   7.998  0.00  0.00     0.139 A 
HETATM    3  C   UNK N   1      33.327  16.606   6.912  0.00  0.00     0.279 A 
HETATM    4  O   UNK N   1      32.936  16.327   5.792  0.00  0.00    -0.265 OA
HETATM    5  N   UNK N   1      34.073  17.736   7.108  0.00  0.00    -0.273 N 
HETATM    6  C   UNK N   1      34.522  18.068   8.358  0.00  0.00     0.328 A 
HETATM    7  O   UNK N   1      35.184  19.076   8.518  0.00  0.00    -0.247 OA
HETATM    8  N   UNK N   1      34.226  17.265   9.428  0.00  0.00    -0.293 N 
HETATM    9  H   UNK N   1      34.289  18.316   6.342  0.00  0.00     0.173 HD
HETATM   10  H   UNK N   1      34.552  17.511  10.324  0.00  0.00     0.172 HD
ENDROOT
BRANCH   1  11
HETATM   11  N   UNK N   1      33.200  15.331  10.394  0.00  0.00    -0.383 N 
HETATM   12  H   UNK N   1      32.307  14.930  10.497  0.00  0.00     0.157 HD
HETATM   13  H   UNK N   1      33.894  15.170  11.076  0.00  0.00     0.157 HD
ENDBRANCH   1  11
BRANCH   2  14
HETATM   14  N   UNK N   1      32.249  14.608   7.813  0.00  0.00    -0.392 N 
HETATM   15  H   UNK N   1      32.564  13.750   8.178  0.00  0.00     0.156 HD
HETATM   16  H   UNK N   1      31.398  14.651   7.320  0.00  0.00     0.156 HD
ENDBRANCH   2  14
TORSDOF 2
ENDMDL
