MODEL 1
REMARK VINA RESULT:      -7.0      0.000      0.000
REMARK  13 active torsions:
REMARK  status: ('A' for Active; 'I' for Inactive)
REMARK    1  A    between atoms: C_5  and  C_1 
REMARK    2  A    between atoms: O_25  and  C_1 
REMARK    3  A    between atoms: C_6  and  C_2 
REMARK    4  A    between atoms: O_31  and  C_2 
REMARK    5  A    between atoms: C_12  and  C_5 
REMARK    6  A    between atoms: C_5  and  N_14 
REMARK    7  A    between atoms: C_8  and  O_26 
REMARK    8  A    between atoms: C_9  and  O_27 
REMARK    9  A    between atoms: N_15  and  C_10 
REMARK   10  A    between atoms: O_28  and  C_12 
REMARK   11  A    between atoms: C_13  and  N_24 
REMARK   12  A    between atoms: N_22  and  S_33 
REMARK   13  A    between atoms: S_33  and  O_31 
ROOT
HETATM    1  C   UNK N   1      35.863  15.876  10.718  0.00  0.00     0.180 C 
HETATM    2  C   UNK N   1      35.468  14.655   9.897  0.00  0.00     0.182 C 
HETATM    3  C   UNK N   1      35.790  13.606  10.914  0.00  0.00     0.198 C 
HETATM    4  C   UNK N   1      35.151  14.259  12.141  0.00  0.00     0.262 C 
HETATM    5  O   UNK N   1      35.468  15.641  12.064  0.00  0.00    -0.353 OA
ENDROOT
BRANCH   1   6
HETATM    6  C   UNK N   1      35.216  17.120  10.129  0.00  0.00     0.226 C 
BRANCH   6   7
HETATM    7  O   UNK N   1      35.139  17.043   8.723  0.00  0.00    -0.257 OA
BRANCH   7   8
HETATM    8  S   UNK N   1      34.178  18.298   7.940  0.00  0.00     0.363 S 
HETATM    9  O   UNK N   1      35.283  19.151   8.584  0.00  0.00    -0.175 OA
HETATM   10  O   UNK N   1      34.584  17.628   6.614  0.00  0.00    -0.175 OA
BRANCH   8  11
HETATM   11  N   UNK N   1      33.105  17.340   8.946  0.00  0.00    -0.243 N 
HETATM   12  C   UNK N   1      31.941  16.918   8.595  0.00  0.00     0.151 C 
ATOM     13  HN  UNK N   1      33.430  17.098   9.882  1.00  0.00     0.182 HD
BRANCH  12  14
HETATM   14  C   UNK N   1      31.347  17.223   7.232  0.00  0.00     0.174 C 
BRANCH  14  15
HETATM   15  C   UNK N   1      29.826  17.337   7.292  0.00  0.00     0.197 C 
BRANCH  15  16
HETATM   16  O   UNK N   1      29.438  18.209   8.314  0.00  0.00    -0.398 OA
HETATM   17  H   UNK N   1      29.757  19.045   8.688  0.00  0.00     0.209 HD
ENDBRANCH  15  16
ENDBRANCH  14  15
BRANCH  14  18
HETATM   18  N   UNK N   1      31.700  16.183   6.278  0.00  0.00    -0.418 N 
HETATM   19  H   UNK N   1      31.449  16.255   5.291  0.00  0.00     0.150 HD
HETATM   20  H   UNK N   1      32.210  15.362   6.603  0.00  0.00     0.150 HD
ENDBRANCH  14  18
ENDBRANCH  12  14
BRANCH  12  21
HETATM   21  O   UNK N   1      31.231  16.194   9.483  0.00  0.00    -0.347 OA
HETATM   22  H   UNK N   1      30.667  15.448   9.525  0.00  0.00     0.219 HD
ENDBRANCH  12  21
ENDBRANCH   8  11
ENDBRANCH   7   8
ENDBRANCH   6   7
ENDBRANCH   1   6
BRANCH   2  23
HETATM   23  O   UNK N   1      34.087  14.658   9.637  0.00  0.00    -0.390 OA
HETATM   24  H   UNK N   1      33.224  14.319   9.351  0.00  0.00     0.210 HD
ENDBRANCH   2  23
BRANCH   3  25
HETATM   25  O   UNK N   1      35.245  12.363  10.590  0.00  0.00    -0.388 OA
HETATM   26  H   UNK N   1      35.466  11.917   9.758  0.00  0.00     0.210 HD
ENDBRANCH   3  25
BRANCH   4  27
HETATM   27  N   UNK N   1      35.602  13.651  13.396  0.00  0.00    -0.297 N 
HETATM   28  C   UNK N   1      36.544  14.116  14.258  0.00  0.00     0.188 A 
HETATM   29  N   UNK N   1      36.658  13.308  15.353  0.00  0.00    -0.346 N 
HETATM   30  C   UNK N   1      35.753  12.333  15.143  0.00  0.00     0.122 A 
ATOM     31  HN  UNK N   1      37.285  13.417  16.149  1.00  0.00     0.167 HD
HETATM   32  C   UNK N   1      35.407  11.248  15.934  0.00  0.00     0.131 A 
HETATM   33  C   UNK N   1      35.126  12.538  13.970  0.00  0.00     0.142 A 
HETATM   34  N   UNK N   1      34.428  10.408  15.479  0.00  0.00    -0.337 N 
HETATM   35  C   UNK N   1      33.806  10.636  14.276  0.00  0.00     0.183 A 
ATOM     36  HN  UNK N   1      34.158   9.601  16.041  1.00  0.00     0.168 HD
HETATM   37  N   UNK N   1      34.150  11.718  13.511  0.00  0.00    -0.336 N 
ATOM     38  HN  UNK N   1      33.686  11.901  12.622  1.00  0.00     0.168 HD
BRANCH  32  39
HETATM   39  N   UNK N   1      36.029  11.017  17.177  0.00  0.00    -0.383 N 
HETATM   40  H   UNK N   1      35.555  10.573  17.918  0.00  0.00     0.157 HD
HETATM   41  H   UNK N   1      36.961  11.307  17.310  0.00  0.00     0.157 HD
ENDBRANCH  32  39
ENDBRANCH   4  27
TORSDOF 13
ENDMDL
MODEL 2
REMARK VINA RESULT:      -6.7      3.480      9.999
REMARK  13 active torsions:
REMARK  status: ('A' for Active; 'I' for Inactive)
REMARK    1  A    between atoms: C_5  and  C_1 
REMARK    2  A    between atoms: O_25  and  C_1 
REMARK    3  A    between atoms: C_6  and  C_2 
REMARK    4  A    between atoms: O_31  and  C_2 
REMARK    5  A    between atoms: C_12  and  C_5 
REMARK    6  A    between atoms: C_5  and  N_14 
REMARK    7  A    between atoms: C_8  and  O_26 
REMARK    8  A    between atoms: C_9  and  O_27 
REMARK    9  A    between atoms: N_15  and  C_10 
REMARK   10  A    between atoms: O_28  and  C_12 
REMARK   11  A    between atoms: C_13  and  N_24 
REMARK   12  A    between atoms: N_22  and  S_33 
REMARK   13  A    between atoms: S_33  and  O_31 
ROOT
HETATM    1  C   UNK N   1      30.574  17.582   7.956  0.00  0.00     0.180 C 
HETATM    2  C   UNK N   1      29.811  17.944   9.225  0.00  0.00     0.182 C 
HETATM    3  C   UNK N   1      28.478  18.208   8.599  0.00  0.00     0.198 C 
HETATM    4  C   UNK N   1      28.401  16.991   7.678  0.00  0.00     0.262 C 
HETATM    5  O   UNK N   1      29.699  16.832   7.123  0.00  0.00    -0.353 OA
ENDROOT
BRANCH   1   6
HETATM    6  C   UNK N   1      31.836  16.816   8.319  0.00  0.00     0.226 C 
BRANCH   6   7
HETATM    7  O   UNK N   1      32.967  17.658   8.322  0.00  0.00    -0.257 OA
BRANCH   7   8
HETATM    8  S   UNK N   1      34.469  16.923   7.759  0.00  0.00     0.363 S 
HETATM    9  O   UNK N   1      33.465  15.811   7.414  0.00  0.00    -0.175 OA
HETATM   10  O   UNK N   1      34.519  18.074   6.737  0.00  0.00    -0.175 OA
BRANCH   8  11
HETATM   11  N   UNK N   1      34.698  17.416   9.428  0.00  0.00    -0.243 N 
HETATM   12  C   UNK N   1      35.152  16.662  10.367  0.00  0.00     0.151 C 
ATOM     13  HN  UNK N   1      34.452  18.376   9.672  1.00  0.00     0.182 HD
BRANCH  12  14
HETATM   14  C   UNK N   1      35.541  15.216  10.126  0.00  0.00     0.174 C 
BRANCH  14  15
HETATM   15  C   UNK N   1      34.505  14.250  10.695  0.00  0.00     0.197 C 
BRANCH  15  16
HETATM   16  O   UNK N   1      33.359  14.941  11.100  0.00  0.00    -0.398 OA
HETATM   17  H   UNK N   1      33.158  15.707  11.660  0.00  0.00     0.209 HD
ENDBRANCH  15  16
ENDBRANCH  14  15
BRANCH  14  18
HETATM   18  N   UNK N   1      36.831  14.927  10.734  0.00  0.00    -0.418 N 
HETATM   19  H   UNK N   1      37.230  15.528  11.456  0.00  0.00     0.150 HD
HETATM   20  H   UNK N   1      37.350  14.102  10.431  0.00  0.00     0.150 HD
ENDBRANCH  14  18
ENDBRANCH  12  14
BRANCH  12  21
HETATM   21  O   UNK N   1      35.267  17.186  11.604  0.00  0.00    -0.347 OA
HETATM   22  H   UNK N   1      35.917  17.393  12.246  0.00  0.00     0.219 HD
ENDBRANCH  12  21
ENDBRANCH   8  11
ENDBRANCH   7   8
ENDBRANCH   6   7
ENDBRANCH   1   6
BRANCH   2  23
HETATM   23  O   UNK N   1      29.723  16.835  10.083  0.00  0.00    -0.390 OA
HETATM   24  H   UNK N   1      30.022  16.145  10.696  0.00  0.00     0.210 HD
ENDBRANCH   2  23
BRANCH   3  25
HETATM   25  O   UNK N   1      27.450  18.268   9.541  0.00  0.00    -0.388 OA
HETATM   26  H   UNK N   1      27.538  17.852  10.412  0.00  0.00     0.210 HD
ENDBRANCH   3  25
BRANCH   4  27
HETATM   27  N   UNK N   1      27.368  17.134   6.648  0.00  0.00    -0.297 N 
HETATM   28  C   UNK N   1      26.268  16.360   6.454  0.00  0.00     0.188 A 
HETATM   29  N   UNK N   1      25.503  16.831   5.427  0.00  0.00    -0.346 N 
HETATM   30  C   UNK N   1      26.161  17.923   4.995  0.00  0.00     0.122 A 
ATOM     31  HN  UNK N   1      24.631  16.444   5.067  1.00  0.00     0.167 HD
HETATM   32  C   UNK N   1      25.840  18.822   3.989  0.00  0.00     0.131 A 
HETATM   33  C   UNK N   1      27.279  18.100   5.724  0.00  0.00     0.142 A 
HETATM   34  N   UNK N   1      26.692  19.868   3.767  0.00  0.00    -0.337 N 
HETATM   35  C   UNK N   1      27.829  20.025   4.522  0.00  0.00     0.183 A 
ATOM     36  HN  UNK N   1      26.481  20.541   3.030  1.00  0.00     0.168 HD
HETATM   37  N   UNK N   1      28.127  19.136   5.519  0.00  0.00    -0.336 N 
ATOM     38  HN  UNK N   1      28.963  19.250   6.092  1.00  0.00     0.168 HD
BRANCH  32  39
HETATM   39  N   UNK N   1      24.667  18.678   3.222  0.00  0.00    -0.383 N 
HETATM   40  H   UNK N   1      24.700  18.450   2.264  0.00  0.00     0.157 HD
HETATM   41  H   UNK N   1      23.792  18.809   3.654  0.00  0.00     0.157 HD
ENDBRANCH  32  39
ENDBRANCH   4  27
TORSDOF 13
ENDMDL
MODEL 3
REMARK VINA RESULT:      -6.7     11.385     16.830
REMARK  13 active torsions:
REMARK  status: ('A' for Active; 'I' for Inactive)
REMARK    1  A    between atoms: C_5  and  C_1 
REMARK    2  A    between atoms: O_25  and  C_1 
REMARK    3  A    between atoms: C_6  and  C_2 
REMARK    4  A    between atoms: O_31  and  C_2 
REMARK    5  A    between atoms: C_12  and  C_5 
REMARK    6  A    between atoms: C_5  and  N_14 
REMARK    7  A    between atoms: C_8  and  O_26 
REMARK    8  A    between atoms: C_9  and  O_27 
REMARK    9  A    between atoms: N_15  and  C_10 
REMARK   10  A    between atoms: O_28  and  C_12 
REMARK   11  A    between atoms: C_13  and  N_24 
REMARK   12  A    between atoms: N_22  and  S_33 
REMARK   13  A    between atoms: S_33  and  O_31 
ROOT
HETATM    1  C   UNK N   1      20.184  15.459   5.742  0.00  0.00     0.180 C 
HETATM    2  C   UNK N   1      19.473  14.320   5.021  0.00  0.00     0.182 C 
HETATM    3  C   UNK N   1      19.189  15.031   3.736  0.00  0.00     0.198 C 
HETATM    4  C   UNK N   1      20.555  15.680   3.514  0.00  0.00     0.262 C 
HETATM    5  O   UNK N   1      20.983  16.145   4.786  0.00  0.00    -0.353 OA
ENDROOT
BRANCH   1   6
HETATM    6  C   UNK N   1      21.003  14.902   6.895  0.00  0.00     0.226 C 
BRANCH   6   7
HETATM    7  O   UNK N   1      20.191  14.204   7.813  0.00  0.00    -0.257 OA
BRANCH   7   8
HETATM    8  S   UNK N   1      20.758  14.197   9.484  0.00  0.00     0.363 S 
HETATM    9  O   UNK N   1      21.045  15.657   9.096  0.00  0.00    -0.175 OA
HETATM   10  O   UNK N   1      19.292  13.916   9.864  0.00  0.00    -0.175 OA
BRANCH   8  11
HETATM   11  N   UNK N   1      21.557  12.886   8.634  0.00  0.00    -0.243 N 
HETATM   12  C   UNK N   1      22.538  12.193   9.096  0.00  0.00     0.151 C 
ATOM     13  HN  UNK N   1      21.217  12.655   7.700  1.00  0.00     0.182 HD
BRANCH  12  14
HETATM   14  C   UNK N   1      23.135  12.450  10.466  0.00  0.00     0.174 C 
BRANCH  14  15
HETATM   15  C   UNK N   1      24.656  12.318  10.454  0.00  0.00     0.197 C 
BRANCH  15  16
HETATM   16  O   UNK N   1      25.171  12.452  11.748  0.00  0.00    -0.398 OA
HETATM   17  H   UNK N   1      24.994  13.005  12.524  0.00  0.00     0.209 HD
ENDBRANCH  15  16
ENDBRANCH  14  15
BRANCH  14  18
HETATM   18  N   UNK N   1      22.594  11.516  11.442  0.00  0.00    -0.418 N 
HETATM   19  H   UNK N   1      23.167  10.777  11.850  0.00  0.00     0.150 HD
HETATM   20  H   UNK N   1      21.618  11.602  11.725  0.00  0.00     0.150 HD
ENDBRANCH  14  18
ENDBRANCH  12  14
BRANCH  12  21
HETATM   21  O   UNK N   1      23.051  11.218   8.318  0.00  0.00    -0.347 OA
HETATM   22  H   UNK N   1      22.962  10.853   7.460  0.00  0.00     0.219 HD
ENDBRANCH  12  21
ENDBRANCH   8  11
ENDBRANCH   7   8
ENDBRANCH   6   7
ENDBRANCH   1   6
BRANCH   2  23
HETATM   23  O   UNK N   1      20.356  13.252   4.789  0.00  0.00    -0.390 OA
HETATM   24  H   UNK N   1      21.203  12.794   4.667  0.00  0.00     0.210 HD
ENDBRANCH   2  23
BRANCH   3  25
HETATM   25  O   UNK N   1      18.807  14.157   2.716  0.00  0.00    -0.388 OA
HETATM   26  H   UNK N   1      18.915  14.394   1.782  0.00  0.00     0.210 HD
ENDBRANCH   3  25
BRANCH   4  27
HETATM   27  N   UNK N   1      20.510  16.751   2.514  0.00  0.00    -0.297 N 
HETATM   28  C   UNK N   1      20.273  16.640   1.181  0.00  0.00     0.188 A 
HETATM   29  N   UNK N   1      20.255  17.863   0.576  0.00  0.00    -0.346 N 
HETATM   30  C   UNK N   1      20.483  18.734   1.577  0.00  0.00     0.122 A 
ATOM     31  HN  UNK N   1      20.104  18.072  -0.411  1.00  0.00     0.167 HD
HETATM   32  C   UNK N   1      20.549  20.119   1.562  0.00  0.00     0.131 A 
HETATM   33  C   UNK N   1      20.640  18.066   2.736  0.00  0.00     0.142 A 
HETATM   34  N   UNK N   1      20.782  20.763   2.745  0.00  0.00    -0.337 N 
HETATM   35  C   UNK N   1      20.943  20.059   3.913  0.00  0.00     0.183 A 
ATOM     36  HN  UNK N   1      20.839  21.782   2.759  1.00  0.00     0.168 HD
HETATM   37  N   UNK N   1      20.864  18.693   3.915  0.00  0.00    -0.336 N 
ATOM     38  HN  UNK N   1      20.972  18.162   4.779  1.00  0.00     0.168 HD
BRANCH  32  39
HETATM   39  N   UNK N   1      20.367  20.850   0.371  0.00  0.00    -0.383 N 
HETATM   40  H   UNK N   1      20.001  21.764   0.376  0.00  0.00     0.157 HD
HETATM   41  H   UNK N   1      20.613  20.436  -0.489  0.00  0.00     0.157 HD
ENDBRANCH  32  39
ENDBRANCH   4  27
TORSDOF 13
ENDMDL
MODEL 4
REMARK VINA RESULT:      -6.6      3.314      8.140
REMARK  13 active torsions:
REMARK  status: ('A' for Active; 'I' for Inactive)
REMARK    1  A    between atoms: C_5  and  C_1 
REMARK    2  A    between atoms: O_25  and  C_1 
REMARK    3  A    between atoms: C_6  and  C_2 
REMARK    4  A    between atoms: O_31  and  C_2 
REMARK    5  A    between atoms: C_12  and  C_5 
REMARK    6  A    between atoms: C_5  and  N_14 
REMARK    7  A    between atoms: C_8  and  O_26 
REMARK    8  A    between atoms: C_9  and  O_27 
REMARK    9  A    between atoms: N_15  and  C_10 
REMARK   10  A    between atoms: O_28  and  C_12 
REMARK   11  A    between atoms: C_13  and  N_24 
REMARK   12  A    between atoms: N_22  and  S_33 
REMARK   13  A    between atoms: S_33  and  O_31 
ROOT
HETATM    1  C   UNK N   1      33.876  14.522   6.232  0.00  0.00     0.180 C 
HETATM    2  C   UNK N   1      34.801  15.677   6.594  0.00  0.00     0.182 C 
HETATM    3  C   UNK N   1      33.813  16.791   6.442  0.00  0.00     0.198 C 
HETATM    4  C   UNK N   1      32.631  16.164   7.182  0.00  0.00     0.262 C 
HETATM    5  O   UNK N   1      32.597  14.800   6.788  0.00  0.00    -0.353 OA
ENDROOT
BRANCH   1   6
HETATM    6  C   UNK N   1      34.464  13.217   6.744  0.00  0.00     0.226 C 
BRANCH   6   7
HETATM    7  O   UNK N   1      33.826  12.794   7.928  0.00  0.00    -0.257 OA
BRANCH   7   8
HETATM    8  S   UNK N   1      34.892  12.191   9.199  0.00  0.00     0.363 S 
HETATM    9  O   UNK N   1      34.277  10.874   8.699  0.00  0.00    -0.175 OA
HETATM   10  O   UNK N   1      36.047  12.724   8.329  0.00  0.00    -0.175 OA
BRANCH   8  11
HETATM   11  N   UNK N   1      33.866  13.434   9.894  0.00  0.00    -0.243 N 
HETATM   12  C   UNK N   1      34.247  14.313  10.754  0.00  0.00     0.151 C 
ATOM     13  HN  UNK N   1      32.892  13.462   9.592  1.00  0.00     0.182 HD
BRANCH  12  14
HETATM   14  C   UNK N   1      35.667  14.363  11.284  0.00  0.00     0.174 C 
BRANCH  14  15
HETATM   15  C   UNK N   1      35.740  13.938  12.748  0.00  0.00     0.197 C 
BRANCH  15  16
HETATM   16  O   UNK N   1      34.525  13.379  13.159  0.00  0.00    -0.398 OA
HETATM   17  H   UNK N   1      34.015  12.578  12.961  0.00  0.00     0.209 HD
ENDBRANCH  15  16
ENDBRANCH  14  15
BRANCH  14  18
HETATM   18  N   UNK N   1      36.211  15.708  11.161  0.00  0.00    -0.418 N 
HETATM   19  H   UNK N   1      35.887  16.352  10.439  0.00  0.00     0.150 HD
HETATM   20  H   UNK N   1      36.933  16.013  11.813  0.00  0.00     0.150 HD
ENDBRANCH  14  18
ENDBRANCH  12  14
BRANCH  12  21
HETATM   21  O   UNK N   1      33.338  15.203  11.200  0.00  0.00    -0.347 OA
HETATM   22  H   UNK N   1      32.901  15.988  10.935  0.00  0.00     0.219 HD
ENDBRANCH  12  21
ENDBRANCH   8  11
ENDBRANCH   7   8
ENDBRANCH   6   7
ENDBRANCH   1   6
BRANCH   2  23
HETATM   23  O   UNK N   1      35.211  15.584   7.934  0.00  0.00    -0.390 OA
HETATM   24  H   UNK N   1      35.518  15.883   8.805  0.00  0.00     0.210 HD
ENDBRANCH   2  23
BRANCH   3  25
HETATM   25  O   UNK N   1      34.264  17.985   7.009  0.00  0.00    -0.388 OA
HETATM   26  H   UNK N   1      35.198  18.116   7.233  0.00  0.00     0.210 HD
ENDBRANCH   3  25
BRANCH   4  27
HETATM   27  N   UNK N   1      31.368  16.856   6.907  0.00  0.00    -0.297 N 
HETATM   28  C   UNK N   1      30.741  17.008   5.712  0.00  0.00     0.188 A 
HETATM   29  N   UNK N   1      29.554  17.665   5.853  0.00  0.00    -0.346 N 
HETATM   30  C   UNK N   1      29.463  17.910   7.174  0.00  0.00     0.122 A 
ATOM     31  HN  UNK N   1      28.886  17.915   5.124  1.00  0.00     0.167 HD
HETATM   32  C   UNK N   1      28.458  18.527   7.903  0.00  0.00     0.131 A 
HETATM   33  C   UNK N   1      30.552  17.429   7.802  0.00  0.00     0.142 A 
HETATM   34  N   UNK N   1      28.619  18.632   9.257  0.00  0.00    -0.337 N 
HETATM   35  C   UNK N   1      29.742  18.137   9.875  0.00  0.00     0.183 A 
ATOM     36  HN  UNK N   1      27.896  19.085   9.815  1.00  0.00     0.168 HD
HETATM   37  N   UNK N   1      30.720  17.520   9.143  0.00  0.00    -0.336 N 
ATOM     38  HN  UNK N   1      31.552  17.140   9.594  1.00  0.00     0.168 HD
BRANCH  32  39
HETATM   39  N   UNK N   1      27.296  19.022   7.279  0.00  0.00    -0.383 N 
HETATM   40  H   UNK N   1      27.021  19.964   7.370  0.00  0.00     0.157 HD
HETATM   41  H   UNK N   1      26.744  18.412   6.738  0.00  0.00     0.157 HD
ENDBRANCH  32  39
ENDBRANCH   4  27
TORSDOF 13
ENDMDL
MODEL 5
REMARK VINA RESULT:      -6.6      1.688      2.436
REMARK  13 active torsions:
REMARK  status: ('A' for Active; 'I' for Inactive)
REMARK    1  A    between atoms: C_5  and  C_1 
REMARK    2  A    between atoms: O_25  and  C_1 
REMARK    3  A    between atoms: C_6  and  C_2 
REMARK    4  A    between atoms: O_31  and  C_2 
REMARK    5  A    between atoms: C_12  and  C_5 
REMARK    6  A    between atoms: C_5  and  N_14 
REMARK    7  A    between atoms: C_8  and  O_26 
REMARK    8  A    between atoms: C_9  and  O_27 
REMARK    9  A    between atoms: N_15  and  C_10 
REMARK   10  A    between atoms: O_28  and  C_12 
REMARK   11  A    between atoms: C_13  and  N_24 
REMARK   12  A    between atoms: N_22  and  S_33 
REMARK   13  A    between atoms: S_33  and  O_31 
ROOT
HETATM    1  C   UNK N   1      34.780  15.177  10.485  0.00  0.00     0.180 C 
HETATM    2  C   UNK N   1      35.693  15.826  11.519  0.00  0.00     0.182 C 
HETATM    3  C   UNK N   1      35.743  14.694  12.495  0.00  0.00     0.198 C 
HETATM    4  C   UNK N   1      35.972  13.544  11.515  0.00  0.00     0.262 C 
HETATM    5  O   UNK N   1      35.134  13.802  10.398  0.00  0.00    -0.353 OA
ENDROOT
BRANCH   1   6
HETATM    6  C   UNK N   1      34.917  15.901   9.156  0.00  0.00     0.226 C 
BRANCH   6   7
HETATM    7  O   UNK N   1      34.775  17.295   9.311  0.00  0.00    -0.257 OA
BRANCH   7   8
HETATM    8  S   UNK N   1      34.088  18.153   7.931  0.00  0.00     0.363 S 
HETATM    9  O   UNK N   1      35.087  19.202   8.446  0.00  0.00    -0.175 OA
HETATM   10  O   UNK N   1      34.719  17.044   7.068  0.00  0.00    -0.175 OA
BRANCH   8  11
HETATM   11  N   UNK N   1      32.765  17.620   8.953  0.00  0.00    -0.243 N 
HETATM   12  C   UNK N   1      31.632  17.181   8.529  0.00  0.00     0.151 C 
ATOM     13  HN  UNK N   1      32.905  17.662   9.963  1.00  0.00     0.182 HD
BRANCH  12  14
HETATM   14  C   UNK N   1      31.305  17.082   7.051  0.00  0.00     0.174 C 
BRANCH  14  15
HETATM   15  C   UNK N   1      29.800  17.125   6.801  0.00  0.00     0.197 C 
BRANCH  15  16
HETATM   16  O   UNK N   1      29.220  18.206   7.473  0.00  0.00    -0.398 OA
HETATM   17  H   UNK N   1      28.767  18.350   8.319  0.00  0.00     0.209 HD
ENDBRANCH  15  16
ENDBRANCH  14  15
BRANCH  14  18
HETATM   18  N   UNK N   1      31.835  15.848   6.492  0.00  0.00    -0.418 N 
HETATM   19  H   UNK N   1      31.551  15.511   5.572  0.00  0.00     0.150 HD
HETATM   20  H   UNK N   1      32.508  15.305   7.034  0.00  0.00     0.150 HD
ENDBRANCH  14  18
ENDBRANCH  12  14
BRANCH  12  21
HETATM   21  O   UNK N   1      30.710  16.812   9.441  0.00  0.00    -0.347 OA
HETATM   22  H   UNK N   1      30.645  16.515  10.327  0.00  0.00     0.219 HD
ENDBRANCH  12  21
ENDBRANCH   8  11
ENDBRANCH   7   8
ENDBRANCH   6   7
ENDBRANCH   1   6
BRANCH   2  23
HETATM   23  O   UNK N   1      36.972  16.048  10.982  0.00  0.00    -0.390 OA
HETATM   24  H   UNK N   1      37.733  15.931  10.392  0.00  0.00     0.210 HD
ENDBRANCH   2  23
BRANCH   3  25
HETATM   25  O   UNK N   1      36.763  14.845  13.436  0.00  0.00    -0.388 OA
HETATM   26  H   UNK N   1      37.596  14.357  13.359  0.00  0.00     0.210 HD
ENDBRANCH   3  25
BRANCH   4  27
HETATM   27  N   UNK N   1      35.709  12.234  12.119  0.00  0.00    -0.297 N 
HETATM   28  C   UNK N   1      34.662  11.401  11.885  0.00  0.00     0.188 A 
HETATM   29  N   UNK N   1      34.782  10.239  12.592  0.00  0.00    -0.346 N 
HETATM   30  C   UNK N   1      35.940  10.378  13.265  0.00  0.00     0.122 A 
ATOM     31  HN  UNK N   1      34.142   9.446  12.607  1.00  0.00     0.167 HD
HETATM   32  C   UNK N   1      36.587   9.501  14.124  0.00  0.00     0.131 A 
HETATM   33  C   UNK N   1      36.491  11.574  12.984  0.00  0.00     0.142 A 
HETATM   34  N   UNK N   1      37.777   9.897  14.668  0.00  0.00    -0.337 N 
HETATM   35  C   UNK N   1      38.317  11.124  14.369  0.00  0.00     0.183 A 
ATOM     36  HN  UNK N   1      38.270   9.272  15.305  1.00  0.00     0.168 HD
HETATM   37  N   UNK N   1      37.673  11.974  13.511  0.00  0.00    -0.336 N 
ATOM     38  HN  UNK N   1      38.071  12.883  13.274  1.00  0.00     0.168 HD
BRANCH  32  39
HETATM   39  N   UNK N   1      36.048   8.234  14.422  0.00  0.00    -0.383 N 
HETATM   40  H   UNK N   1      36.131   7.835  15.319  0.00  0.00     0.157 HD
HETATM   41  H   UNK N   1      35.577   7.734  13.716  0.00  0.00     0.157 HD
ENDBRANCH  32  39
ENDBRANCH   4  27
TORSDOF 13
ENDMDL
MODEL 6
REMARK VINA RESULT:      -6.5      3.551      9.952
REMARK  13 active torsions:
REMARK  status: ('A' for Active; 'I' for Inactive)
REMARK    1  A    between atoms: C_5  and  C_1 
REMARK    2  A    between atoms: O_25  and  C_1 
REMARK    3  A    between atoms: C_6  and  C_2 
REMARK    4  A    between atoms: O_31  and  C_2 
REMARK    5  A    between atoms: C_12  and  C_5 
REMARK    6  A    between atoms: C_5  and  N_14 
REMARK    7  A    between atoms: C_8  and  O_26 
REMARK    8  A    between atoms: C_9  and  O_27 
REMARK    9  A    between atoms: N_15  and  C_10 
REMARK   10  A    between atoms: O_28  and  C_12 
REMARK   11  A    between atoms: C_13  and  N_24 
REMARK   12  A    between atoms: N_22  and  S_33 
REMARK   13  A    between atoms: S_33  and  O_31 
ROOT
HETATM    1  C   UNK N   1      31.549  15.624   6.241  0.00  0.00     0.180 C 
HETATM    2  C   UNK N   1      31.890  16.160   4.856  0.00  0.00     0.182 C 
HETATM    3  C   UNK N   1      30.496  16.443   4.392  0.00  0.00     0.198 C 
HETATM    4  C   UNK N   1      29.962  17.133   5.647  0.00  0.00     0.262 C 
HETATM    5  O   UNK N   1      30.467  16.394   6.750  0.00  0.00    -0.353 OA
ENDROOT
BRANCH   1   6
HETATM    6  C   UNK N   1      32.780  15.686   7.131  0.00  0.00     0.226 C 
BRANCH   6   7
HETATM    7  O   UNK N   1      32.839  16.901   7.844  0.00  0.00    -0.257 OA
BRANCH   7   8
HETATM    8  S   UNK N   1      34.445  17.393   8.385  0.00  0.00     0.363 S 
HETATM    9  O   UNK N   1      34.780  16.806   7.004  0.00  0.00    -0.175 OA
HETATM   10  O   UNK N   1      33.896  18.832   8.348  0.00  0.00    -0.175 OA
BRANCH   8  11
HETATM   11  N   UNK N   1      33.742  16.373   9.628  0.00  0.00    -0.243 N 
HETATM   12  C   UNK N   1      34.410  15.653  10.460  0.00  0.00     0.151 C 
ATOM     13  HN  UNK N   1      32.725  16.350   9.697  1.00  0.00     0.182 HD
BRANCH  12  14
HETATM   14  C   UNK N   1      35.925  15.599  10.448  0.00  0.00     0.174 C 
BRANCH  14  15
HETATM   15  C   UNK N   1      36.443  14.467   9.564  0.00  0.00     0.197 C 
BRANCH  15  16
HETATM   16  O   UNK N   1      35.379  13.732   9.033  0.00  0.00    -0.398 OA
HETATM   17  H   UNK N   1      34.483  13.918   8.712  0.00  0.00     0.209 HD
ENDBRANCH  15  16
ENDBRANCH  14  15
BRANCH  14  18
HETATM   18  N   UNK N   1      36.441  15.410  11.796  0.00  0.00    -0.418 N 
HETATM   19  H   UNK N   1      37.337  15.802  12.086  0.00  0.00     0.150 HD
HETATM   20  H   UNK N   1      35.892  14.872  12.467  0.00  0.00     0.150 HD
ENDBRANCH  14  18
ENDBRANCH  12  14
BRANCH  12  21
HETATM   21  O   UNK N   1      33.724  14.917  11.358  0.00  0.00    -0.347 OA
HETATM   22  H   UNK N   1      33.631  14.804  12.283  0.00  0.00     0.219 HD
ENDBRANCH  12  21
ENDBRANCH   8  11
ENDBRANCH   7   8
ENDBRANCH   6   7
ENDBRANCH   1   6
BRANCH   2  23
HETATM   23  O   UNK N   1      32.612  17.362   4.954  0.00  0.00    -0.390 OA
HETATM   24  H   UNK N   1      33.301  17.976   5.252  0.00  0.00     0.210 HD
ENDBRANCH   2  23
BRANCH   3  25
HETATM   25  O   UNK N   1      30.466  17.246   3.251  0.00  0.00    -0.388 OA
HETATM   26  H   UNK N   1      29.643  17.655   2.943  0.00  0.00     0.210 HD
ENDBRANCH   3  25
BRANCH   4  27
HETATM   27  N   UNK N   1      28.498  17.219   5.658  0.00  0.00    -0.297 N 
HETATM   28  C   UNK N   1      27.619  16.429   6.327  0.00  0.00     0.188 A 
HETATM   29  N   UNK N   1      26.333  16.846   6.139  0.00  0.00    -0.346 N 
HETATM   30  C   UNK N   1      26.445  17.923   5.338  0.00  0.00     0.122 A 
ATOM     31  HN  UNK N   1      25.480  16.436   6.519  1.00  0.00     0.167 HD
HETATM   32  C   UNK N   1      25.469  18.772   4.837  0.00  0.00     0.131 A 
HETATM   33  C   UNK N   1      27.741  18.142   5.048  0.00  0.00     0.142 A 
HETATM   34  N   UNK N   1      25.870  19.813   4.047  0.00  0.00    -0.337 N 
HETATM   35  C   UNK N   1      27.198  20.013   3.761  0.00  0.00     0.183 A 
ATOM     36  HN  UNK N   1      25.171  20.450   3.663  1.00  0.00     0.168 HD
HETATM   37  N   UNK N   1      28.151  19.174   4.272  0.00  0.00    -0.336 N 
ATOM     38  HN  UNK N   1      29.141  19.320   4.074  1.00  0.00     0.168 HD
BRANCH  32  39
HETATM   39  N   UNK N   1      24.106  18.583   5.140  0.00  0.00    -0.383 N 
HETATM   40  H   UNK N   1      23.481  19.342   5.201  0.00  0.00     0.157 HD
HETATM   41  H   UNK N   1      23.770  17.671   5.294  0.00  0.00     0.157 HD
ENDBRANCH  32  39
ENDBRANCH   4  27
TORSDOF 13
ENDMDL
MODEL 7
REMARK VINA RESULT:      -6.4      3.669      9.535
REMARK  13 active torsions:
REMARK  status: ('A' for Active; 'I' for Inactive)
REMARK    1  A    between atoms: C_5  and  C_1 
REMARK    2  A    between atoms: O_25  and  C_1 
REMARK    3  A    between atoms: C_6  and  C_2 
REMARK    4  A    between atoms: O_31  and  C_2 
REMARK    5  A    between atoms: C_12  and  C_5 
REMARK    6  A    between atoms: C_5  and  N_14 
REMARK    7  A    between atoms: C_8  and  O_26 
REMARK    8  A    between atoms: C_9  and  O_27 
REMARK    9  A    between atoms: N_15  and  C_10 
REMARK   10  A    between atoms: O_28  and  C_12 
REMARK   11  A    between atoms: C_13  and  N_24 
REMARK   12  A    between atoms: N_22  and  S_33 
REMARK   13  A    between atoms: S_33  and  O_31 
ROOT
HETATM    1  C   UNK N   1      30.896  15.518   6.460  0.00  0.00     0.180 C 
HETATM    2  C   UNK N   1      30.230  15.438   5.092  0.00  0.00     0.182 C 
HETATM    3  C   UNK N   1      29.009  16.243   5.406  0.00  0.00     0.198 C 
HETATM    4  C   UNK N   1      29.674  17.404   6.148  0.00  0.00     0.262 C 
HETATM    5  O   UNK N   1      30.672  16.824   6.975  0.00  0.00    -0.353 OA
ENDROOT
BRANCH   1   6
HETATM    6  C   UNK N   1      32.375  15.188   6.329  0.00  0.00     0.226 C 
BRANCH   6   7
HETATM    7  O   UNK N   1      33.149  16.354   6.156  0.00  0.00    -0.257 OA
BRANCH   7   8
HETATM    8  S   UNK N   1      34.645  16.423   7.089  0.00  0.00     0.363 S 
HETATM    9  O   UNK N   1      35.100  15.575   5.890  0.00  0.00    -0.175 OA
HETATM   10  O   UNK N   1      34.613  17.939   6.820  0.00  0.00    -0.175 OA
BRANCH   8  11
HETATM   11  N   UNK N   1      33.372  15.841   8.147  0.00  0.00    -0.243 N 
HETATM   12  C   UNK N   1      33.526  15.520   9.385  0.00  0.00     0.151 C 
ATOM     13  HN  UNK N   1      32.436  15.750   7.751  1.00  0.00     0.182 HD
BRANCH  12  14
HETATM   14  C   UNK N   1      34.871  15.604  10.080  0.00  0.00     0.174 C 
BRANCH  14  15
HETATM   15  C   UNK N   1      35.154  14.358  10.915  0.00  0.00     0.197 C 
BRANCH  15  16
HETATM   16  O   UNK N   1      34.225  14.242  11.955  0.00  0.00    -0.398 OA
HETATM   17  H   UNK N   1      33.810  14.835  12.599  0.00  0.00     0.209 HD
ENDBRANCH  15  16
ENDBRANCH  14  15
BRANCH  14  18
HETATM   18  N   UNK N   1      34.924  16.770  10.950  0.00  0.00    -0.418 N 
HETATM   19  H   UNK N   1      35.374  16.735  11.864  0.00  0.00     0.150 HD
HETATM   20  H   UNK N   1      34.500  17.644  10.637  0.00  0.00     0.150 HD
ENDBRANCH  14  18
ENDBRANCH  12  14
BRANCH  12  21
HETATM   21  O   UNK N   1      32.448  15.084  10.068  0.00  0.00    -0.347 OA
HETATM   22  H   UNK N   1      32.003  15.216  10.881  0.00  0.00     0.219 HD
ENDBRANCH  12  21
ENDBRANCH   8  11
ENDBRANCH   7   8
ENDBRANCH   6   7
ENDBRANCH   1   6
BRANCH   2  23
HETATM   23  O   UNK N   1      31.002  16.101   4.124  0.00  0.00    -0.390 OA
HETATM   24  H   UNK N   1      31.728  16.633   3.761  0.00  0.00     0.210 HD
ENDBRANCH   2  23
BRANCH   3  25
HETATM   25  O   UNK N   1      28.316  16.631   4.258  0.00  0.00    -0.388 OA
HETATM   26  H   UNK N   1      28.464  17.497   3.848  0.00  0.00     0.210 HD
ENDBRANCH   3  25
BRANCH   4  27
HETATM   27  N   UNK N   1      28.711  18.204   6.911  0.00  0.00    -0.297 N 
HETATM   28  C   UNK N   1      28.417  18.118   8.235  0.00  0.00     0.188 A 
HETATM   29  N   UNK N   1      27.507  19.066   8.604  0.00  0.00    -0.346 N 
HETATM   30  C   UNK N   1      27.252  19.744   7.469  0.00  0.00     0.122 A 
ATOM     31  HN  UNK N   1      27.109  19.225   9.529  1.00  0.00     0.167 HD
HETATM   32  C   UNK N   1      26.425  20.834   7.243  0.00  0.00     0.131 A 
HETATM   33  C   UNK N   1      27.970  19.224   6.456  0.00  0.00     0.142 A 
HETATM   34  N   UNK N   1      26.364  21.342   5.975  0.00  0.00    -0.337 N 
HETATM   35  C   UNK N   1      27.104  20.791   4.957  0.00  0.00     0.183 A 
ATOM     36  HN  UNK N   1      25.760  22.141   5.783  1.00  0.00     0.168 HD
HETATM   37  N   UNK N   1      27.925  19.722   5.198  0.00  0.00    -0.336 N 
ATOM     38  HN  UNK N   1      28.486  19.313   4.451  1.00  0.00     0.168 HD
BRANCH  32  39
HETATM   39  N   UNK N   1      25.676  21.416   8.285  0.00  0.00    -0.383 N 
HETATM   40  H   UNK N   1      24.981  22.091   8.108  0.00  0.00     0.157 HD
HETATM   41  H   UNK N   1      25.851  21.140   9.215  0.00  0.00     0.157 HD
ENDBRANCH  32  39
ENDBRANCH   4  27
TORSDOF 13
ENDMDL
MODEL 8
REMARK VINA RESULT:      -6.4      2.766      4.682
REMARK  13 active torsions:
REMARK  status: ('A' for Active; 'I' for Inactive)
REMARK    1  A    between atoms: C_5  and  C_1 
REMARK    2  A    between atoms: O_25  and  C_1 
REMARK    3  A    between atoms: C_6  and  C_2 
REMARK    4  A    between atoms: O_31  and  C_2 
REMARK    5  A    between atoms: C_12  and  C_5 
REMARK    6  A    between atoms: C_5  and  N_14 
REMARK    7  A    between atoms: C_8  and  O_26 
REMARK    8  A    between atoms: C_9  and  O_27 
REMARK    9  A    between atoms: N_15  and  C_10 
REMARK   10  A    between atoms: O_28  and  C_12 
REMARK   11  A    between atoms: C_13  and  N_24 
REMARK   12  A    between atoms: N_22  and  S_33 
REMARK   13  A    between atoms: S_33  and  O_31 
ROOT
HETATM    1  C   UNK N   1      36.390  11.576  13.172  0.00  0.00     0.180 C 
HETATM    2  C   UNK N   1      34.890  11.390  12.981  0.00  0.00     0.182 C 
HETATM    3  C   UNK N   1      34.590  10.745  14.297  0.00  0.00     0.198 C 
HETATM    4  C   UNK N   1      35.392  11.675  15.207  0.00  0.00     0.262 C 
HETATM    5  O   UNK N   1      36.613  11.935  14.530  0.00  0.00    -0.353 OA
ENDROOT
BRANCH   1   6
HETATM    6  C   UNK N   1      36.903  12.626  12.199  0.00  0.00     0.226 C 
BRANCH   6   7
HETATM    7  O   UNK N   1      36.419  12.398  10.894  0.00  0.00    -0.257 OA
BRANCH   7   8
HETATM    8  S   UNK N   1      36.641  13.726   9.754  0.00  0.00     0.363 S 
HETATM    9  O   UNK N   1      38.006  13.731  10.460  0.00  0.00    -0.175 OA
HETATM   10  O   UNK N   1      36.499  12.658   8.652  0.00  0.00    -0.175 OA
BRANCH   8  11
HETATM   11  N   UNK N   1      35.174  14.034  10.668  0.00  0.00    -0.243 N 
HETATM   12  C   UNK N   1      34.241  14.848  10.318  0.00  0.00     0.151 C 
ATOM     13  HN  UNK N   1      35.052  13.527  11.544  1.00  0.00     0.182 HD
BRANCH  12  14
HETATM   14  C   UNK N   1      34.316  15.664   9.041  0.00  0.00     0.174 C 
BRANCH  14  15
HETATM   15  C   UNK N   1      34.784  17.092   9.309  0.00  0.00     0.197 C 
BRANCH  15  16
HETATM   16  O   UNK N   1      35.030  17.281  10.673  0.00  0.00    -0.398 OA
HETATM   17  H   UNK N   1      35.359  16.745  11.411  0.00  0.00     0.209 HD
ENDBRANCH  15  16
ENDBRANCH  14  15
BRANCH  14  18
HETATM   18  N   UNK N   1      33.015  15.714   8.390  0.00  0.00    -0.418 N 
HETATM   19  H   UNK N   1      32.926  15.822   7.380  0.00  0.00     0.150 HD
HETATM   20  H   UNK N   1      32.171  15.641   8.959  0.00  0.00     0.150 HD
ENDBRANCH  14  18
ENDBRANCH  12  14
BRANCH  12  21
HETATM   21  O   UNK N   1      33.173  14.980  11.131  0.00  0.00    -0.347 OA
HETATM   22  H   UNK N   1      32.747  14.546  11.843  0.00  0.00     0.219 HD
ENDBRANCH  12  21
ENDBRANCH   8  11
ENDBRANCH   7   8
ENDBRANCH   6   7
ENDBRANCH   1   6
BRANCH   2  23
HETATM   23  O   UNK N   1      34.241  12.634  12.902  0.00  0.00    -0.390 OA
HETATM   24  H   UNK N   1      33.779  13.430  13.210  0.00  0.00     0.210 HD
ENDBRANCH   2  23
BRANCH   3  25
HETATM   25  O   UNK N   1      33.223  10.720  14.580  0.00  0.00    -0.388 OA
HETATM   26  H   UNK N   1      32.897  10.684  15.492  0.00  0.00     0.210 HD
ENDBRANCH   3  25
BRANCH   4  27
HETATM   27  N   UNK N   1      35.604  11.106  16.541  0.00  0.00    -0.297 N 
HETATM   28  C   UNK N   1      36.021   9.853  16.859  0.00  0.00     0.188 A 
HETATM   29  N   UNK N   1      36.156   9.700  18.209  0.00  0.00    -0.346 N 
HETATM   30  C   UNK N   1      35.816  10.901  18.715  0.00  0.00     0.122 A 
ATOM     31  HN  UNK N   1      36.448   8.867  18.718  1.00  0.00     0.167 HD
HETATM   32  C   UNK N   1      35.791  11.343  20.029  0.00  0.00     0.131 A 
HETATM   33  C   UNK N   1      35.482  11.739  17.716  0.00  0.00     0.142 A 
HETATM   34  N   UNK N   1      35.414  12.637  20.263  0.00  0.00    -0.337 N 
HETATM   35  C   UNK N   1      35.073  13.472  19.227  0.00  0.00     0.183 A 
ATOM     36  HN  UNK N   1      35.384  12.985  21.222  1.00  0.00     0.168 HD
HETATM   37  N   UNK N   1      35.114  13.024  17.935  0.00  0.00    -0.336 N 
ATOM     38  HN  UNK N   1      34.873  13.640  17.158  1.00  0.00     0.168 HD
BRANCH  32  39
HETATM   39  N   UNK N   1      36.156  10.498  21.096  0.00  0.00    -0.383 N 
HETATM   40  H   UNK N   1      36.076   9.518  21.030  0.00  0.00     0.157 HD
HETATM   41  H   UNK N   1      36.499  10.896  21.929  0.00  0.00     0.157 HD
ENDBRANCH  32  39
ENDBRANCH   4  27
TORSDOF 13
ENDMDL
MODEL 9
REMARK VINA RESULT:      -6.3      3.027      8.952
REMARK  13 active torsions:
REMARK  status: ('A' for Active; 'I' for Inactive)
REMARK    1  A    between atoms: C_5  and  C_1 
REMARK    2  A    between atoms: O_25  and  C_1 
REMARK    3  A    between atoms: C_6  and  C_2 
REMARK    4  A    between atoms: O_31  and  C_2 
REMARK    5  A    between atoms: C_12  and  C_5 
REMARK    6  A    between atoms: C_5  and  N_14 
REMARK    7  A    between atoms: C_8  and  O_26 
REMARK    8  A    between atoms: C_9  and  O_27 
REMARK    9  A    between atoms: N_15  and  C_10 
REMARK   10  A    between atoms: O_28  and  C_12 
REMARK   11  A    between atoms: C_13  and  N_24 
REMARK   12  A    between atoms: N_22  and  S_33 
REMARK   13  A    between atoms: S_33  and  O_31 
ROOT
HETATM    1  C   UNK N   1      32.565  15.686   7.071  0.00  0.00     0.180 C 
HETATM    2  C   UNK N   1      33.197  16.651   8.068  0.00  0.00     0.182 C 
HETATM    3  C   UNK N   1      32.106  17.674   8.090  0.00  0.00     0.198 C 
HETATM    4  C   UNK N   1      30.902  16.738   8.203  0.00  0.00     0.262 C 
HETATM    5  O   UNK N   1      31.167  15.646   7.334  0.00  0.00    -0.353 OA
ENDROOT
BRANCH   1   6
HETATM    6  C   UNK N   1      33.222  14.321   7.194  0.00  0.00     0.226 C 
BRANCH   6   7
HETATM    7  O   UNK N   1      34.573  14.433   7.581  0.00  0.00    -0.257 OA
BRANCH   7   8
HETATM    8  S   UNK N   1      35.234  13.052   8.458  0.00  0.00     0.363 S 
HETATM    9  O   UNK N   1      33.727  12.807   8.642  0.00  0.00    -0.175 OA
HETATM   10  O   UNK N   1      35.791  12.594   7.096  0.00  0.00    -0.175 OA
BRANCH   8  11
HETATM   11  N   UNK N   1      35.975  14.508   9.099  0.00  0.00    -0.243 N 
HETATM   12  C   UNK N   1      36.384  14.659  10.310  0.00  0.00     0.151 C 
ATOM     13  HN  UNK N   1      36.091  15.295   8.462  1.00  0.00     0.182 HD
BRANCH  12  14
HETATM   14  C   UNK N   1      36.256  13.561  11.350  0.00  0.00     0.174 C 
BRANCH  14  15
HETATM   15  C   UNK N   1      35.085  13.814  12.296  0.00  0.00     0.197 C 
BRANCH  15  16
HETATM   16  O   UNK N   1      34.068  14.520  11.644  0.00  0.00    -0.398 OA
HETATM   17  H   UNK N   1      33.173  14.826  11.857  0.00  0.00     0.209 HD
ENDBRANCH  15  16
ENDBRANCH  14  15
BRANCH  14  18
HETATM   18  N   UNK N   1      37.476  13.457  12.136  0.00  0.00    -0.418 N 
HETATM   19  H   UNK N   1      37.483  13.019  13.057  0.00  0.00     0.150 HD
HETATM   20  H   UNK N   1      38.345  13.832  11.756  0.00  0.00     0.150 HD
ENDBRANCH  14  18
ENDBRANCH  12  14
BRANCH  12  21
HETATM   21  O   UNK N   1      36.930  15.842  10.655  0.00  0.00    -0.347 OA
HETATM   22  H   UNK N   1      37.706  16.198  11.040  0.00  0.00     0.219 HD
ENDBRANCH  12  21
ENDBRANCH   8  11
ENDBRANCH   7   8
ENDBRANCH   6   7
ENDBRANCH   1   6
BRANCH   2  23
HETATM   23  O   UNK N   1      33.313  16.052   9.333  0.00  0.00    -0.390 OA
HETATM   24  H   UNK N   1      33.393  15.341   9.989  0.00  0.00     0.210 HD
ENDBRANCH   2  23
BRANCH   3  25
HETATM   25  O   UNK N   1      32.230  18.564   9.158  0.00  0.00    -0.388 OA
HETATM   26  H   UNK N   1      33.016  18.564   9.725  0.00  0.00     0.210 HD
ENDBRANCH   3  25
BRANCH   4  27
HETATM   27  N   UNK N   1      29.639  17.410   7.886  0.00  0.00    -0.297 N 
HETATM   28  C   UNK N   1      28.777  18.018   8.742  0.00  0.00     0.188 A 
HETATM   29  N   UNK N   1      27.729  18.583   8.075  0.00  0.00    -0.346 N 
HETATM   30  C   UNK N   1      27.972  18.311   6.779  0.00  0.00     0.122 A 
ATOM     31  HN  UNK N   1      26.940  19.096   8.468  1.00  0.00     0.167 HD
HETATM   32  C   UNK N   1      27.259  18.659   5.642  0.00  0.00     0.131 A 
HETATM   33  C   UNK N   1      29.113  17.604   6.668  0.00  0.00     0.142 A 
HETATM   34  N   UNK N   1      27.749  18.257   4.430  0.00  0.00    -0.337 N 
HETATM   35  C   UNK N   1      28.913  17.533   4.343  0.00  0.00     0.183 A 
ATOM     36  HN  UNK N   1      27.240  18.497   3.579  1.00  0.00     0.168 HD
HETATM   37  N   UNK N   1      29.612  17.207   5.474  0.00  0.00    -0.336 N 
ATOM     38  HN  UNK N   1      30.482  16.679   5.418  1.00  0.00     0.168 HD
BRANCH  32  39
HETATM   39  N   UNK N   1      26.074  19.416   5.722  0.00  0.00    -0.383 N 
HETATM   40  H   UNK N   1      25.949  20.239   5.194  0.00  0.00     0.157 HD
HETATM   41  H   UNK N   1      25.351  19.116   6.320  0.00  0.00     0.157 HD
ENDBRANCH  32  39
ENDBRANCH   4  27
TORSDOF 13
ENDMDL
