MODEL 1
REMARK VINA RESULT:      -4.2      0.000      0.000
REMARK  8 active torsions:
REMARK  status: ('A' for Active; 'I' for Inactive)
REMARK    1  A    between atoms: O_1  and  C_2 
REMARK    2  A    between atoms: C_2  and  C_3 
REMARK    3  A    between atoms: C_3  and  O_4 
REMARK    4  A    between atoms: C_3  and  C_5 
REMARK    5  A    between atoms: C_5  and  O_6 
REMARK    6  A    between atoms: C_5  and  C_7 
REMARK    7  A    between atoms: C_7  and  C_9 
REMARK    8  A    between atoms: C_9  and  O_10 
ROOT
HETATM    1  C   UNK N   1      34.705  16.568   8.669  0.00  0.00     0.220 C 
ENDROOT
BRANCH   1   2
HETATM    2  C   UNK N   1      34.023  17.906   8.345  0.00  0.00     0.177 C 
BRANCH   2   3
HETATM    3  C   UNK N   1      33.350  17.872   6.978  0.00  0.00     0.198 C 
BRANCH   3   4
HETATM    4  O   UNK N   1      34.280  17.592   5.975  0.00  0.00    -0.398 OA
HETATM    5  H   UNK N   1      34.361  18.113   5.161  0.00  0.00     0.209 HD
ENDBRANCH   3   4
ENDBRANCH   2   3
BRANCH   2   6
HETATM    6  O   UNK N   1      34.963  18.939   8.342  0.00  0.00    -0.390 OA
HETATM    7  H   UNK N   1      35.047  19.534   7.580  0.00  0.00     0.210 HD
ENDBRANCH   2   6
ENDBRANCH   1   2
BRANCH   1   8
HETATM    8  O   UNK N   1      33.896  15.510   8.243  0.00  0.00    -0.385 OA
HETATM    9  H   UNK N   1      33.030  15.349   8.650  0.00  0.00     0.210 HD
ENDBRANCH   1   8
BRANCH   1  10
HETATM   10  C   UNK N   1      35.018  16.429  10.142  0.00  0.00     0.181 C 
HETATM   11  O   UNK N   1      35.608  17.327  10.723  0.00  0.00    -0.293 OA
BRANCH  10  12
HETATM   12  C   UNK N   1      34.629  15.202  10.911  0.00  0.00     0.245 C 
BRANCH  12  13
HETATM   13  O   UNK N   1      33.243  15.146  11.062  0.00  0.00    -0.393 OA
HETATM   14  H   UNK N   1      32.603  14.422  10.979  0.00  0.00     0.209 HD
ENDBRANCH  12  13
ENDBRANCH  10  12
ENDBRANCH   1  10
TORSDOF 8
ENDMDL
MODEL 2
REMARK VINA RESULT:      -4.2      2.265      3.530
REMARK  8 active torsions:
REMARK  status: ('A' for Active; 'I' for Inactive)
REMARK    1  A    between atoms: O_1  and  C_2 
REMARK    2  A    between atoms: C_2  and  C_3 
REMARK    3  A    between atoms: C_3  and  O_4 
REMARK    4  A    between atoms: C_3  and  C_5 
REMARK    5  A    between atoms: C_5  and  O_6 
REMARK    6  A    between atoms: C_5  and  C_7 
REMARK    7  A    between atoms: C_7  and  C_9 
REMARK    8  A    between atoms: C_9  and  O_10 
ROOT
HETATM    1  C   UNK N   1      35.037  14.772  11.311  0.00  0.00     0.220 C 
ENDROOT
BRANCH   1   2
HETATM    2  C   UNK N   1      35.578  16.155  10.920  0.00  0.00     0.177 C 
BRANCH   2   3
HETATM    3  C   UNK N   1      35.049  16.595   9.560  0.00  0.00     0.198 C 
BRANCH   3   4
HETATM    4  O   UNK N   1      33.834  17.268   9.694  0.00  0.00    -0.398 OA
HETATM    5  H   UNK N   1      33.406  17.434  10.549  0.00  0.00     0.209 HD
ENDBRANCH   3   4
ENDBRANCH   2   3
BRANCH   2   6
HETATM    6  O   UNK N   1      36.973  16.128  10.857  0.00  0.00    -0.390 OA
HETATM    7  H   UNK N   1      37.448  15.300  10.686  0.00  0.00     0.210 HD
ENDBRANCH   2   6
ENDBRANCH   1   2
BRANCH   1   8
HETATM    8  O   UNK N   1      33.645  14.828  11.441  0.00  0.00    -0.385 OA
HETATM    9  H   UNK N   1      33.202  15.647  11.712  0.00  0.00     0.210 HD
ENDBRANCH   1   8
BRANCH   1  10
HETATM   10  C   UNK N   1      35.661  14.255  12.588  0.00  0.00     0.181 C 
HETATM   11  O   UNK N   1      36.249  15.027  13.330  0.00  0.00    -0.293 OA
BRANCH  10  12
HETATM   12  C   UNK N   1      35.586  12.806  12.964  0.00  0.00     0.245 C 
BRANCH  12  13
HETATM   13  O   UNK N   1      34.279  12.464  13.316  0.00  0.00    -0.393 OA
HETATM   14  H   UNK N   1      33.483  12.289  12.792  0.00  0.00     0.209 HD
ENDBRANCH  12  13
ENDBRANCH  10  12
ENDBRANCH   1  10
TORSDOF 8
ENDMDL
MODEL 3
REMARK VINA RESULT:      -4.1      1.373      4.159
REMARK  8 active torsions:
REMARK  status: ('A' for Active; 'I' for Inactive)
REMARK    1  A    between atoms: O_1  and  C_2 
REMARK    2  A    between atoms: C_2  and  C_3 
REMARK    3  A    between atoms: C_3  and  O_4 
REMARK    4  A    between atoms: C_3  and  C_5 
REMARK    5  A    between atoms: C_5  and  O_6 
REMARK    6  A    between atoms: C_5  and  C_7 
REMARK    7  A    between atoms: C_7  and  C_9 
REMARK    8  A    between atoms: C_9  and  O_10 
ROOT
HETATM    1  C   UNK N   1      35.162  16.708   9.866  0.00  0.00     0.220 C 
ENDROOT
BRANCH   1   2
HETATM    2  C   UNK N   1      35.153  15.172   9.891  0.00  0.00     0.177 C 
BRANCH   2   3
HETATM    3  C   UNK N   1      34.526  14.641  11.175  0.00  0.00     0.198 C 
BRANCH   3   4
HETATM    4  O   UNK N   1      33.152  14.886  11.195  0.00  0.00    -0.398 OA
HETATM    5  H   UNK N   1      32.764  15.735  11.459  0.00  0.00     0.209 HD
ENDBRANCH   3   4
ENDBRANCH   2   3
BRANCH   2   6
HETATM    6  O   UNK N   1      36.457  14.680   9.808  0.00  0.00    -0.390 OA
HETATM    7  H   UNK N   1      36.814  14.094  10.494  0.00  0.00     0.210 HD
ENDBRANCH   2   6
ENDBRANCH   1   2
BRANCH   1   8
HETATM    8  O   UNK N   1      34.941  17.204  11.155  0.00  0.00    -0.385 OA
HETATM    9  H   UNK N   1      34.255  16.822  11.725  0.00  0.00     0.210 HD
ENDBRANCH   1   8
BRANCH   1  10
HETATM   10  C   UNK N   1      34.137  17.269   8.905  0.00  0.00     0.181 C 
HETATM   11  O   UNK N   1      33.031  16.756   8.833  0.00  0.00    -0.293 OA
BRANCH  10  12
HETATM   12  C   UNK N   1      34.450  18.442   8.025  0.00  0.00     0.245 C 
BRANCH  12  13
HETATM   13  O   UNK N   1      35.380  19.277   8.645  0.00  0.00    -0.393 OA
HETATM   14  H   UNK N   1      35.338  19.829   9.441  0.00  0.00     0.209 HD
ENDBRANCH  12  13
ENDBRANCH  10  12
ENDBRANCH   1  10
TORSDOF 8
ENDMDL
MODEL 4
REMARK VINA RESULT:      -4.1      0.673      3.805
REMARK  8 active torsions:
REMARK  status: ('A' for Active; 'I' for Inactive)
REMARK    1  A    between atoms: O_1  and  C_2 
REMARK    2  A    between atoms: C_2  and  C_3 
REMARK    3  A    between atoms: C_3  and  O_4 
REMARK    4  A    between atoms: C_3  and  C_5 
REMARK    5  A    between atoms: C_5  and  O_6 
REMARK    6  A    between atoms: C_5  and  C_7 
REMARK    7  A    between atoms: C_7  and  C_9 
REMARK    8  A    between atoms: C_9  and  O_10 
ROOT
HETATM    1  C   UNK N   1      33.716  16.976   9.014  0.00  0.00     0.220 C 
ENDROOT
BRANCH   1   2
HETATM    2  C   UNK N   1      34.851  16.404   9.878  0.00  0.00     0.177 C 
BRANCH   2   3
HETATM    3  C   UNK N   1      34.476  15.047  10.462  0.00  0.00     0.198 C 
BRANCH   3   4
HETATM    4  O   UNK N   1      33.238  15.108  11.104  0.00  0.00    -0.398 OA
HETATM    5  H   UNK N   1      33.132  15.348  12.038  0.00  0.00     0.209 HD
ENDBRANCH   3   4
ENDBRANCH   2   3
BRANCH   2   6
HETATM    6  O   UNK N   1      35.136  17.269  10.936  0.00  0.00    -0.390 OA
HETATM    7  H   UNK N   1      35.991  17.234  11.393  0.00  0.00     0.210 HD
ENDBRANCH   2   6
ENDBRANCH   1   2
BRANCH   1   8
HETATM    8  O   UNK N   1      33.016  15.931   8.402  0.00  0.00    -0.385 OA
HETATM    9  H   UNK N   1      32.754  15.144   8.905  0.00  0.00     0.210 HD
ENDBRANCH   1   8
BRANCH   1  10
HETATM   10  C   UNK N   1      34.225  17.947   7.973  0.00  0.00     0.181 C 
HETATM   11  O   UNK N   1      34.896  18.908   8.318  0.00  0.00    -0.293 OA
BRANCH  10  12
HETATM   12  C   UNK N   1      33.917  17.766   6.518  0.00  0.00     0.245 C 
BRANCH  12  13
HETATM   13  O   UNK N   1      34.641  16.691   6.000  0.00  0.00    -0.393 OA
HETATM   14  H   UNK N   1      35.583  16.565   5.811  0.00  0.00     0.209 HD
ENDBRANCH  12  13
ENDBRANCH  10  12
ENDBRANCH   1  10
TORSDOF 8
ENDMDL
MODEL 5
REMARK VINA RESULT:      -3.9      1.845      4.573
REMARK  8 active torsions:
REMARK  status: ('A' for Active; 'I' for Inactive)
REMARK    1  A    between atoms: O_1  and  C_2 
REMARK    2  A    between atoms: C_2  and  C_3 
REMARK    3  A    between atoms: C_3  and  O_4 
REMARK    4  A    between atoms: C_3  and  C_5 
REMARK    5  A    between atoms: C_5  and  O_6 
REMARK    6  A    between atoms: C_5  and  C_7 
REMARK    7  A    between atoms: C_7  and  C_9 
REMARK    8  A    between atoms: C_9  and  O_10 
ROOT
HETATM    1  C   UNK N   1      34.729  15.399  11.270  0.00  0.00     0.220 C 
ENDROOT
BRANCH   1   2
HETATM    2  C   UNK N   1      35.661  14.190  11.100  0.00  0.00     0.177 C 
BRANCH   2   3
HETATM    3  C   UNK N   1      35.298  13.067  12.066  0.00  0.00     0.198 C 
BRANCH   3   4
HETATM    4  O   UNK N   1      34.806  13.585  13.265  0.00  0.00    -0.398 OA
HETATM    5  H   UNK N   1      34.782  14.533  13.468  0.00  0.00     0.209 HD
ENDBRANCH   3   4
ENDBRANCH   2   3
BRANCH   2   6
HETATM    6  O   UNK N   1      36.985  14.562  11.344  0.00  0.00    -0.390 OA
HETATM    7  H   UNK N   1      37.607  14.701  10.613  0.00  0.00     0.210 HD
ENDBRANCH   2   6
ENDBRANCH   1   2
BRANCH   1   8
HETATM    8  O   UNK N   1      33.397  14.990  11.148  0.00  0.00    -0.385 OA
HETATM    9  H   UNK N   1      32.710  15.349  11.731  0.00  0.00     0.210 HD
ENDBRANCH   1   8
BRANCH   1  10
HETATM   10  C   UNK N   1      35.033  16.498  10.276  0.00  0.00     0.181 C 
HETATM   11  O   UNK N   1      35.914  17.309  10.521  0.00  0.00    -0.293 OA
BRANCH  10  12
HETATM   12  C   UNK N   1      34.269  16.625   8.993  0.00  0.00     0.245 C 
BRANCH  12  13
HETATM   13  O   UNK N   1      33.003  17.160   9.236  0.00  0.00    -0.393 OA
HETATM   14  H   UNK N   1      32.237  16.834   9.734  0.00  0.00     0.209 HD
ENDBRANCH  12  13
ENDBRANCH  10  12
ENDBRANCH   1  10
TORSDOF 8
ENDMDL
MODEL 6
REMARK VINA RESULT:      -3.8      1.303      2.673
REMARK  8 active torsions:
REMARK  status: ('A' for Active; 'I' for Inactive)
REMARK    1  A    between atoms: O_1  and  C_2 
REMARK    2  A    between atoms: C_2  and  C_3 
REMARK    3  A    between atoms: C_3  and  O_4 
REMARK    4  A    between atoms: C_3  and  C_5 
REMARK    5  A    between atoms: C_5  and  O_6 
REMARK    6  A    between atoms: C_5  and  C_7 
REMARK    7  A    between atoms: C_7  and  C_9 
REMARK    8  A    between atoms: C_9  and  O_10 
ROOT
HETATM    1  C   UNK N   1      34.691  16.562   9.770  0.00  0.00     0.220 C 
ENDROOT
BRANCH   1   2
HETATM    2  C   UNK N   1      34.605  16.972   8.292  0.00  0.00     0.177 C 
BRANCH   2   3
HETATM    3  C   UNK N   1      34.236  18.443   8.142  0.00  0.00     0.198 C 
BRANCH   3   4
HETATM    4  O   UNK N   1      35.323  19.261   8.455  0.00  0.00    -0.398 OA
HETATM    5  H   UNK N   1      36.184  18.920   8.741  0.00  0.00     0.209 HD
ENDBRANCH   3   4
ENDBRANCH   2   3
BRANCH   2   6
HETATM    6  O   UNK N   1      33.636  16.211   7.635  0.00  0.00    -0.390 OA
HETATM    7  H   UNK N   1      33.027  16.620   7.000  0.00  0.00     0.210 HD
ENDBRANCH   2   6
ENDBRANCH   1   2
BRANCH   1   8
HETATM    8  O   UNK N   1      35.502  17.465  10.465  0.00  0.00    -0.385 OA
HETATM    9  H   UNK N   1      35.631  18.370  10.140  0.00  0.00     0.210 HD
ENDBRANCH   1   8
BRANCH   1  10
HETATM   10  C   UNK N   1      35.209  15.152   9.942  0.00  0.00     0.181 C 
HETATM   11  O   UNK N   1      34.689  14.236   9.324  0.00  0.00    -0.293 OA
BRANCH  10  12
HETATM   12  C   UNK N   1      36.348  14.845  10.868  0.00  0.00     0.245 C 
BRANCH  12  13
HETATM   13  O   UNK N   1      37.466  15.608  10.528  0.00  0.00    -0.393 OA
HETATM   14  H   UNK N   1      38.392  15.376  10.360  0.00  0.00     0.209 HD
ENDBRANCH  12  13
ENDBRANCH  10  12
ENDBRANCH   1  10
TORSDOF 8
ENDMDL
MODEL 7
REMARK VINA RESULT:      -3.8      2.070      4.662
REMARK  8 active torsions:
REMARK  status: ('A' for Active; 'I' for Inactive)
REMARK    1  A    between atoms: O_1  and  C_2 
REMARK    2  A    between atoms: C_2  and  C_3 
REMARK    3  A    between atoms: C_3  and  O_4 
REMARK    4  A    between atoms: C_3  and  C_5 
REMARK    5  A    between atoms: C_5  and  O_6 
REMARK    6  A    between atoms: C_5  and  C_7 
REMARK    7  A    between atoms: C_7  and  C_9 
REMARK    8  A    between atoms: C_9  and  O_10 
ROOT
HETATM    1  C   UNK N   1      33.225  17.208   6.753  0.00  0.00     0.220 C 
ENDROOT
BRANCH   1   2
HETATM    2  C   UNK N   1      33.271  17.845   8.150  0.00  0.00     0.177 C 
BRANCH   2   3
HETATM    3  C   UNK N   1      34.699  17.933   8.675  0.00  0.00     0.198 C 
BRANCH   3   4
HETATM    4  O   UNK N   1      35.239  19.198   8.434  0.00  0.00    -0.398 OA
HETATM    5  H   UNK N   1      36.038  19.530   8.871  0.00  0.00     0.209 HD
ENDBRANCH   3   4
ENDBRANCH   2   3
BRANCH   2   6
HETATM    6  O   UNK N   1      32.522  17.085   9.052  0.00  0.00    -0.390 OA
HETATM    7  H   UNK N   1      31.554  17.142   9.069  0.00  0.00     0.210 HD
ENDBRANCH   2   6
ENDBRANCH   1   2
BRANCH   1   8
HETATM    8  O   UNK N   1      34.094  17.890   5.894  0.00  0.00    -0.385 OA
HETATM    9  H   UNK N   1      34.042  18.853   5.794  0.00  0.00     0.210 HD
ENDBRANCH   1   8
BRANCH   1  10
HETATM   10  C   UNK N   1      31.826  17.191   6.178  0.00  0.00     0.181 C 
HETATM   11  O   UNK N   1      30.870  17.403   6.908  0.00  0.00    -0.293 OA
BRANCH  10  12
HETATM   12  C   UNK N   1      31.581  16.910   4.727  0.00  0.00     0.245 C 
BRANCH  12  13
HETATM   13  O   UNK N   1      31.724  18.078   3.976  0.00  0.00    -0.393 OA
HETATM   14  H   UNK N   1      31.175  18.489   3.291  0.00  0.00     0.209 HD
ENDBRANCH  12  13
ENDBRANCH  10  12
ENDBRANCH   1  10
TORSDOF 8
ENDMDL
MODEL 8
REMARK VINA RESULT:      -3.8      1.170      3.402
REMARK  8 active torsions:
REMARK  status: ('A' for Active; 'I' for Inactive)
REMARK    1  A    between atoms: O_1  and  C_2 
REMARK    2  A    between atoms: C_2  and  C_3 
REMARK    3  A    between atoms: C_3  and  O_4 
REMARK    4  A    between atoms: C_3  and  C_5 
REMARK    5  A    between atoms: C_5  and  O_6 
REMARK    6  A    between atoms: C_5  and  C_7 
REMARK    7  A    between atoms: C_7  and  C_9 
REMARK    8  A    between atoms: C_9  and  O_10 
ROOT
HETATM    1  C   UNK N   1      34.386  16.081   8.691  0.00  0.00     0.220 C 
ENDROOT
BRANCH   1   2
HETATM    2  C   UNK N   1      35.295  16.189   9.925  0.00  0.00     0.177 C 
BRANCH   2   3
HETATM    3  C   UNK N   1      34.725  15.413  11.106  0.00  0.00     0.198 C 
BRANCH   3   4
HETATM    4  O   UNK N   1      33.359  15.180  10.933  0.00  0.00    -0.398 OA
HETATM    5  H   UNK N   1      32.723  15.162  11.666  0.00  0.00     0.209 HD
ENDBRANCH   3   4
ENDBRANCH   2   3
BRANCH   2   6
HETATM    6  O   UNK N   1      35.433  17.525  10.308  0.00  0.00    -0.390 OA
HETATM    7  H   UNK N   1      35.959  17.769  11.085  0.00  0.00     0.210 HD
ENDBRANCH   2   6
ENDBRANCH   1   2
BRANCH   1   8
HETATM    8  O   UNK N   1      35.045  15.376   7.678  0.00  0.00    -0.385 OA
HETATM    9  H   UNK N   1      34.567  14.744   7.118  0.00  0.00     0.210 HD
ENDBRANCH   1   8
BRANCH   1  10
HETATM   10  C   UNK N   1      33.947  17.438   8.184  0.00  0.00     0.181 C 
HETATM   11  O   UNK N   1      34.750  18.157   7.610  0.00  0.00    -0.293 OA
BRANCH  10  12
HETATM   12  C   UNK N   1      32.545  17.929   8.381  0.00  0.00     0.245 C 
BRANCH  12  13
HETATM   13  O   UNK N   1      31.833  17.047   9.195  0.00  0.00    -0.393 OA
HETATM   14  H   UNK N   1      31.014  17.141   9.706  0.00  0.00     0.209 HD
ENDBRANCH  12  13
ENDBRANCH  10  12
ENDBRANCH   1  10
TORSDOF 8
ENDMDL
MODEL 9
REMARK VINA RESULT:      -3.8     14.510     16.158
REMARK  8 active torsions:
REMARK  status: ('A' for Active; 'I' for Inactive)
REMARK    1  A    between atoms: O_1  and  C_2 
REMARK    2  A    between atoms: C_2  and  C_3 
REMARK    3  A    between atoms: C_3  and  O_4 
REMARK    4  A    between atoms: C_3  and  C_5 
REMARK    5  A    between atoms: C_5  and  O_6 
REMARK    6  A    between atoms: C_5  and  C_7 
REMARK    7  A    between atoms: C_7  and  C_9 
REMARK    8  A    between atoms: C_9  and  O_10 
ROOT
HETATM    1  C   UNK N   1      19.733  18.488   2.808  0.00  0.00     0.220 C 
ENDROOT
BRANCH   1   2
HETATM    2  C   UNK N   1      20.226  17.179   2.173  0.00  0.00     0.177 C 
BRANCH   2   3
HETATM    3  C   UNK N   1      20.065  17.200   0.657  0.00  0.00     0.198 C 
BRANCH   3   4
HETATM    4  O   UNK N   1      18.758  16.873   0.293  0.00  0.00    -0.398 OA
HETATM    5  H   UNK N   1      18.531  16.106  -0.255  0.00  0.00     0.209 HD
ENDBRANCH   3   4
ENDBRANCH   2   3
BRANCH   2   6
HETATM    6  O   UNK N   1      19.500  16.096   2.672  0.00  0.00    -0.390 OA
HETATM    7  H   UNK N   1      19.928  15.241   2.838  0.00  0.00     0.210 HD
ENDBRANCH   2   6
ENDBRANCH   1   2
BRANCH   1   8
HETATM    8  O   UNK N   1      18.420  18.746   2.399  0.00  0.00    -0.385 OA
HETATM    9  H   UNK N   1      17.835  18.025   2.117  0.00  0.00     0.210 HD
ENDBRANCH   1   8
BRANCH   1  10
HETATM   10  C   UNK N   1      20.628  19.659   2.468  0.00  0.00     0.181 C 
HETATM   11  O   UNK N   1      20.255  20.489   1.653  0.00  0.00    -0.293 OA
BRANCH  10  12
HETATM   12  C   UNK N   1      21.975  19.824   3.104  0.00  0.00     0.245 C 
BRANCH  12  13
HETATM   13  O   UNK N   1      22.495  21.087   2.816  0.00  0.00    -0.393 OA
HETATM   14  H   UNK N   1      23.400  21.435   2.795  0.00  0.00     0.209 HD
ENDBRANCH  12  13
ENDBRANCH  10  12
ENDBRANCH   1  10
TORSDOF 8
ENDMDL
