REMARK  9 active torsions:
REMARK  status: ('A' for Active; 'I' for Inactive)
REMARK    1  A    between atoms: O_1  and  P_2 
REMARK    2  A    between atoms: P_2  and  O_3 
REMARK    3  A    between atoms: P_2  and  O_5 
REMARK    4  A    between atoms: O_5  and  P_6 
REMARK    5  A    between atoms: P_6  and  O_7 
REMARK    6  A    between atoms: P_6  and  O_9 
REMARK    7  A    between atoms: O_9  and  P_10 
REMARK    8  A    between atoms: P_10  and  O_11 
REMARK    9  A    between atoms: P_10  and  O_12 
ROOT
HETATM    1  P   UNK N   1       3.880  -0.917  -0.045  0.00  0.00     0.410 P 
HETATM    2  O   UNK N   1       4.167   0.532  -0.534  0.00  0.00    -0.631 OA
ENDROOT
BRANCH   1   3
HETATM    3  O   UNK N   1       2.504  -0.548  -1.050  0.00  0.00    -0.195 OA
BRANCH   3   4
HETATM    4  P   UNK N   1       1.078  -0.810  -0.079  0.00  0.00     0.399 P 
HETATM    5  O   UNK N   1       0.722   0.533   0.613  0.00  0.00    -0.631 OA
BRANCH   4   6
HETATM    6  O   UNK N   1      -0.269  -1.219  -1.094  0.00  0.00    -0.307 OA
HETATM    7  H   UNK N   1      -0.844  -0.681  -1.661  0.00  0.00     0.222 HD
ENDBRANCH   4   6
BRANCH   4   8
HETATM    8  O   UNK N   1       1.285  -2.007   1.162  0.00  0.00    -0.307 OA
HETATM    9  H   UNK N   1       0.764  -2.442   1.855  0.00  0.00     0.222 HD
ENDBRANCH   4   8
ENDBRANCH   3   4
ENDBRANCH   1   3
BRANCH   1  10
HETATM   10  O   UNK N   1       3.781  -2.043  -1.365  0.00  0.00    -0.307 OA
HETATM   11  H   UNK N   1       3.209  -2.310  -2.102  0.00  0.00     0.222 HD
ENDBRANCH   1  10
BRANCH   1  12
HETATM   12  O   UNK N   1       5.424  -1.060  -0.839  0.00  0.00    -0.195 OA
BRANCH  12  13
HETATM   13  P   UNK N   1       6.578  -1.453   0.405  0.00  0.00     0.399 P 
HETATM   14  O   UNK N   1       7.978  -1.185  -0.209  0.00  0.00    -0.631 OA
BRANCH  13  15
HETATM   15  O   UNK N   1       6.452  -0.416   1.792  0.00  0.00    -0.307 OA
HETATM   16  H   UNK N   1       6.919  -0.065   2.566  0.00  0.00     0.222 HD
ENDBRANCH  13  15
BRANCH  13  17
HETATM   17  O   UNK N   1       6.543  -3.135   0.833  0.00  0.00    -0.307 OA
HETATM   18  H   UNK N   1       5.719  -3.588   1.071  0.00  0.00     0.222 HD
ENDBRANCH  13  17
ENDBRANCH  12  13
ENDBRANCH   1  12
TORSDOF 9
