MODEL 1
REMARK VINA RESULT:      -5.0      0.000      0.000
REMARK  6 active torsions:
REMARK  status: ('A' for Active; 'I' for Inactive)
REMARK    1  A    between atoms: O_1  and  C_2 
REMARK    2  A    between atoms: C_3  and  C_2 
REMARK    3  A    between atoms: C_5  and  S_6 
REMARK    4  A    between atoms: C_7  and  O_8 
REMARK    5  A    between atoms: C_9  and  O_10 
REMARK    6  A    between atoms: C_11  and  O_12 
ROOT
HETATM    1  C   UNK N   1      34.153  15.408   9.214  0.00  0.00     0.178 A 
HETATM    2  O   UNK N   1      33.704  14.902   8.001  0.00  0.00    -0.363 OA
HETATM    3  C   UNK N   1      33.670  15.757   6.893  0.00  0.00     0.212 A 
HETATM    4  C   UNK N   1      34.105  17.230   6.958  0.00  0.00     0.188 A 
HETATM    5  C   UNK N   1      34.592  17.795   8.255  0.00  0.00     0.181 A 
HETATM    6  C   UNK N   1      34.620  16.872   9.415  0.00  0.00     0.180 A 
ENDROOT
BRANCH   1   7
HETATM    7  C   UNK N   1      34.109  14.333  10.257  0.00  0.00     0.198 C 
BRANCH   7   8
HETATM    8  O   UNK N   1      33.571  14.805  11.434  0.00  0.00    -0.398 OA
HETATM    9  H   UNK N   1      32.614  14.942  11.510  0.00  0.00     0.209 HD
ENDBRANCH   7   8
ENDBRANCH   1   7
BRANCH   6  10
HETATM   10  O   UNK N   1      35.068  17.355  10.653  0.00  0.00    -0.390 OA
HETATM   11  H   UNK N   1      34.595  17.120  11.466  0.00  0.00     0.210 HD
ENDBRANCH   6  10
BRANCH   3  12
HETATM   12  S   UNK N   1      33.056  14.879   5.441  0.00  0.00    -0.148 SA
HETATM   13  H   UNK N   1      33.689  13.756   5.009  0.00  0.00     0.104 HD
ENDBRANCH   3  12
BRANCH   5  14
HETATM   14  O   UNK N   1      35.002  19.125   8.383  0.00  0.00    -0.390 OA
HETATM   15  H   UNK N   1      35.947  19.344   8.365  0.00  0.00     0.210 HD
ENDBRANCH   5  14
BRANCH   4  16
HETATM   16  O   UNK N   1      34.055  18.052   5.826  0.00  0.00    -0.389 OA
HETATM   17  H   UNK N   1      34.213  19.006   5.911  0.00  0.00     0.210 HD
ENDBRANCH   4  16
TORSDOF 6
ENDMDL
MODEL 2
REMARK VINA RESULT:      -4.9     13.845     15.252
REMARK  6 active torsions:
REMARK  status: ('A' for Active; 'I' for Inactive)
REMARK    1  A    between atoms: O_1  and  C_2 
REMARK    2  A    between atoms: C_3  and  C_2 
REMARK    3  A    between atoms: C_5  and  S_6 
REMARK    4  A    between atoms: C_7  and  O_8 
REMARK    5  A    between atoms: C_9  and  O_10 
REMARK    6  A    between atoms: C_11  and  O_12 
ROOT
HETATM    1  C   UNK N   1      20.695  19.714   2.315  0.00  0.00     0.178 A 
HETATM    2  O   UNK N   1      21.995  19.650   2.800  0.00  0.00    -0.363 OA
HETATM    3  C   UNK N   1      22.318  18.638   3.711  0.00  0.00     0.212 A 
HETATM    4  C   UNK N   1      21.300  17.595   4.199  0.00  0.00     0.188 A 
HETATM    5  C   UNK N   1      19.894  17.646   3.689  0.00  0.00     0.181 A 
HETATM    6  C   UNK N   1      19.574  18.726   2.725  0.00  0.00     0.180 A 
ENDROOT
BRANCH   1   7
HETATM    7  C   UNK N   1      20.568  20.863   1.362  0.00  0.00     0.198 C 
BRANCH   7   8
HETATM    8  O   UNK N   1      20.584  20.427   0.054  0.00  0.00    -0.398 OA
HETATM    9  H   UNK N   1      21.069  20.929  -0.619  0.00  0.00     0.209 HD
ENDBRANCH   7   8
ENDBRANCH   1   7
BRANCH   6  10
HETATM   10  O   UNK N   1      18.270  18.816   2.219  0.00  0.00    -0.390 OA
HETATM   11  H   UNK N   1      17.515  18.560   2.772  0.00  0.00     0.210 HD
ENDBRANCH   6  10
BRANCH   3  12
HETATM   12  S   UNK N   1      24.052  18.758   4.195  0.00  0.00    -0.148 SA
HETATM   13  H   UNK N   1      24.383  18.907   5.505  0.00  0.00     0.104 HD
ENDBRANCH   3  12
BRANCH   5  14
HETATM   14  O   UNK N   1      18.920  16.729   4.092  0.00  0.00    -0.390 OA
HETATM   15  H   UNK N   1      18.391  16.261   3.426  0.00  0.00     0.210 HD
ENDBRANCH   5  14
BRANCH   4  16
HETATM   16  O   UNK N   1      21.663  16.597   5.112  0.00  0.00    -0.389 OA
HETATM   17  H   UNK N   1      21.818  15.690   4.804  0.00  0.00     0.210 HD
ENDBRANCH   4  16
TORSDOF 6
ENDMDL
MODEL 3
REMARK VINA RESULT:      -4.8     11.954     12.985
REMARK  6 active torsions:
REMARK  status: ('A' for Active; 'I' for Inactive)
REMARK    1  A    between atoms: O_1  and  C_2 
REMARK    2  A    between atoms: C_3  and  C_2 
REMARK    3  A    between atoms: C_5  and  S_6 
REMARK    4  A    between atoms: C_7  and  O_8 
REMARK    5  A    between atoms: C_9  and  O_10 
REMARK    6  A    between atoms: C_11  and  O_12 
ROOT
HETATM    1  C   UNK N   1      23.408  12.923  10.119  0.00  0.00     0.178 A 
HETATM    2  O   UNK N   1      22.969  13.849   9.180  0.00  0.00    -0.363 OA
HETATM    3  C   UNK N   1      21.602  14.145   9.124  0.00  0.00     0.212 A 
HETATM    4  C   UNK N   1      20.565  13.493  10.052  0.00  0.00     0.188 A 
HETATM    5  C   UNK N   1      21.016  12.493  11.070  0.00  0.00     0.181 A 
HETATM    6  C   UNK N   1      22.468  12.194  11.113  0.00  0.00     0.180 A 
ENDROOT
BRANCH   1   7
HETATM    7  C   UNK N   1      24.893  12.757  10.008  0.00  0.00     0.198 C 
BRANCH   7   8
HETATM    8  O   UNK N   1      25.486  12.749  11.252  0.00  0.00    -0.398 OA
HETATM    9  H   UNK N   1      26.026  11.992  11.527  0.00  0.00     0.209 HD
ENDBRANCH   7   8
ENDBRANCH   1   7
BRANCH   6  10
HETATM   10  O   UNK N   1      22.940  11.264  12.049  0.00  0.00    -0.390 OA
HETATM   11  H   UNK N   1      23.815  11.381  12.451  0.00  0.00     0.210 HD
ENDBRANCH   6  10
BRANCH   3  12
HETATM   12  S   UNK N   1      21.277  15.366   7.836  0.00  0.00    -0.148 SA
HETATM   13  H   UNK N   1      20.048  15.434   7.259  0.00  0.00     0.104 HD
ENDBRANCH   3  12
BRANCH   5  14
HETATM   14  O   UNK N   1      20.126  11.864  11.944  0.00  0.00    -0.390 OA
HETATM   15  H   UNK N   1      19.827  10.959  11.762  0.00  0.00     0.210 HD
ENDBRANCH   5  14
BRANCH   4  16
HETATM   16  O   UNK N   1      19.206  13.817   9.963  0.00  0.00    -0.389 OA
HETATM   17  H   UNK N   1      18.537  13.114   9.981  0.00  0.00     0.210 HD
ENDBRANCH   4  16
TORSDOF 6
ENDMDL
MODEL 4
REMARK VINA RESULT:      -4.7     14.309     15.564
REMARK  6 active torsions:
REMARK  status: ('A' for Active; 'I' for Inactive)
REMARK    1  A    between atoms: O_1  and  C_2 
REMARK    2  A    between atoms: C_3  and  C_2 
REMARK    3  A    between atoms: C_5  and  S_6 
REMARK    4  A    between atoms: C_7  and  O_8 
REMARK    5  A    between atoms: C_9  and  O_10 
REMARK    6  A    between atoms: C_11  and  O_12 
ROOT
HETATM    1  C   UNK N   1      20.216  17.819   1.340  0.00  0.00     0.178 A 
HETATM    2  O   UNK N   1      20.110  17.048   2.491  0.00  0.00    -0.363 OA
HETATM    3  C   UNK N   1      20.400  17.645   3.723  0.00  0.00     0.212 A 
HETATM    4  C   UNK N   1      20.830  19.115   3.861  0.00  0.00     0.188 A 
HETATM    5  C   UNK N   1      20.950  19.963   2.634  0.00  0.00     0.181 A 
HETATM    6  C   UNK N   1      20.638  19.310   1.340  0.00  0.00     0.180 A 
ENDROOT
BRANCH   1   7
HETATM    7  C   UNK N   1      19.863  16.990   0.144  0.00  0.00     0.198 C 
BRANCH   7   8
HETATM    8  O   UNK N   1      18.509  16.740   0.094  0.00  0.00    -0.398 OA
HETATM    9  H   UNK N   1      17.964  16.861   0.887  0.00  0.00     0.209 HD
ENDBRANCH   7   8
ENDBRANCH   1   7
BRANCH   6  10
HETATM   10  O   UNK N   1      20.736  20.064   0.162  0.00  0.00    -0.390 OA
HETATM   11  H   UNK N   1      19.934  20.396  -0.270  0.00  0.00     0.210 HD
ENDBRANCH   6  10
BRANCH   3  12
HETATM   12  S   UNK N   1      20.194  16.454   5.063  0.00  0.00    -0.148 SA
HETATM   13  H   UNK N   1      21.286  15.926   5.676  0.00  0.00     0.104 HD
ENDBRANCH   3  12
BRANCH   5  14
HETATM   14  O   UNK N   1      21.336  21.305   2.689  0.00  0.00    -0.390 OA
HETATM   15  H   UNK N   1      21.643  21.687   3.526  0.00  0.00     0.210 HD
ENDBRANCH   5  14
BRANCH   4  16
HETATM   16  O   UNK N   1      21.111  19.674   5.113  0.00  0.00    -0.389 OA
HETATM   17  H   UNK N   1      20.892  19.187   5.923  0.00  0.00     0.210 HD
ENDBRANCH   4  16
TORSDOF 6
ENDMDL
MODEL 5
REMARK VINA RESULT:      -4.7      1.279      3.600
REMARK  6 active torsions:
REMARK  status: ('A' for Active; 'I' for Inactive)
REMARK    1  A    between atoms: O_1  and  C_2 
REMARK    2  A    between atoms: C_3  and  C_2 
REMARK    3  A    between atoms: C_5  and  S_6 
REMARK    4  A    between atoms: C_7  and  O_8 
REMARK    5  A    between atoms: C_9  and  O_10 
REMARK    6  A    between atoms: C_11  and  O_12 
ROOT
HETATM    1  C   UNK N   1      33.998  17.124   8.523  0.00  0.00     0.178 A 
HETATM    2  O   UNK N   1      33.245  16.528   7.518  0.00  0.00    -0.363 OA
HETATM    3  C   UNK N   1      32.708  15.257   7.753  0.00  0.00     0.212 A 
HETATM    4  C   UNK N   1      32.911  14.492   9.070  0.00  0.00     0.188 A 
HETATM    5  C   UNK N   1      33.718  15.115  10.165  0.00  0.00     0.181 A 
HETATM    6  C   UNK N   1      34.278  16.461   9.896  0.00  0.00     0.180 A 
ENDROOT
BRANCH   1   7
HETATM    7  C   UNK N   1      34.473  18.469   8.066  0.00  0.00     0.198 C 
BRANCH   7   8
HETATM    8  O   UNK N   1      35.451  18.961   8.904  0.00  0.00    -0.398 OA
HETATM    9  H   UNK N   1      35.745  19.881   8.818  0.00  0.00     0.209 HD
ENDBRANCH   7   8
ENDBRANCH   1   7
BRANCH   6  10
HETATM   10  O   UNK N   1      35.041  17.088  10.891  0.00  0.00    -0.390 OA
HETATM   11  H   UNK N   1      36.005  17.150  10.797  0.00  0.00     0.210 HD
ENDBRANCH   6  10
BRANCH   3  12
HETATM   12  S   UNK N   1      31.777  14.694   6.313  0.00  0.00    -0.148 SA
HETATM   13  H   UNK N   1      32.341  14.746   5.077  0.00  0.00     0.104 HD
ENDBRANCH   3  12
BRANCH   5  14
HETATM   14  O   UNK N   1      33.941  14.474  11.386  0.00  0.00    -0.390 OA
HETATM   15  H   UNK N   1      33.612  14.870  12.209  0.00  0.00     0.210 HD
ENDBRANCH   5  14
BRANCH   4  16
HETATM   16  O   UNK N   1      32.355  13.221   9.264  0.00  0.00    -0.389 OA
HETATM   17  H   UNK N   1      32.475  12.531   8.593  0.00  0.00     0.210 HD
ENDBRANCH   4  16
TORSDOF 6
ENDMDL
MODEL 6
REMARK VINA RESULT:      -4.7     13.765     15.132
REMARK  6 active torsions:
REMARK  status: ('A' for Active; 'I' for Inactive)
REMARK    1  A    between atoms: O_1  and  C_2 
REMARK    2  A    between atoms: C_3  and  C_2 
REMARK    3  A    between atoms: C_5  and  S_6 
REMARK    4  A    between atoms: C_7  and  O_8 
REMARK    5  A    between atoms: C_9  and  O_10 
REMARK    6  A    between atoms: C_11  and  O_12 
ROOT
HETATM    1  C   UNK N   1      21.770  19.530   3.018  0.00  0.00     0.178 A 
HETATM    2  O   UNK N   1      21.865  18.923   4.264  0.00  0.00    -0.363 OA
HETATM    3  C   UNK N   1      20.989  17.872   4.562  0.00  0.00     0.212 A 
HETATM    4  C   UNK N   1      19.928  17.361   3.573  0.00  0.00     0.188 A 
HETATM    5  C   UNK N   1      19.810  18.001   2.226  0.00  0.00     0.181 A 
HETATM    6  C   UNK N   1      20.747  19.112   1.932  0.00  0.00     0.180 A 
ENDROOT
BRANCH   1   7
HETATM    7  C   UNK N   1      22.792  20.621   2.911  0.00  0.00     0.198 C 
BRANCH   7   8
HETATM    8  O   UNK N   1      22.191  21.851   2.751  0.00  0.00    -0.398 OA
HETATM    9  H   UNK N   1      21.245  21.905   2.545  0.00  0.00     0.209 HD
ENDBRANCH   7   8
ENDBRANCH   1   7
BRANCH   6  10
HETATM   10  O   UNK N   1      20.676  19.745   0.683  0.00  0.00    -0.390 OA
HETATM   11  H   UNK N   1      19.816  20.017   0.325  0.00  0.00     0.210 HD
ENDBRANCH   6  10
BRANCH   3  12
HETATM   12  S   UNK N   1      21.300  17.247   6.225  0.00  0.00    -0.148 SA
HETATM   13  H   UNK N   1      20.806  17.912   7.304  0.00  0.00     0.104 HD
ENDBRANCH   3  12
BRANCH   5  14
HETATM   14  O   UNK N   1      18.868  17.585   1.282  0.00  0.00    -0.390 OA
HETATM   15  H   UNK N   1      19.161  17.272   0.411  0.00  0.00     0.210 HD
ENDBRANCH   5  14
BRANCH   4  16
HETATM   16  O   UNK N   1      19.071  16.306   3.910  0.00  0.00    -0.389 OA
HETATM   17  H   UNK N   1      18.481  15.927   3.240  0.00  0.00     0.210 HD
ENDBRANCH   4  16
TORSDOF 6
ENDMDL
MODEL 7
REMARK VINA RESULT:      -4.6     13.208     14.266
REMARK  6 active torsions:
REMARK  status: ('A' for Active; 'I' for Inactive)
REMARK    1  A    between atoms: O_1  and  C_2 
REMARK    2  A    between atoms: C_3  and  C_2 
REMARK    3  A    between atoms: C_5  and  S_6 
REMARK    4  A    between atoms: C_7  and  O_8 
REMARK    5  A    between atoms: C_9  and  O_10 
REMARK    6  A    between atoms: C_11  and  O_12 
ROOT
HETATM    1  C   UNK N   1      20.944  17.939   3.411  0.00  0.00     0.178 A 
HETATM    2  O   UNK N   1      22.237  17.852   3.912  0.00  0.00    -0.363 OA
HETATM    3  C   UNK N   1      23.091  18.948   3.748  0.00  0.00     0.212 A 
HETATM    4  C   UNK N   1      22.664  20.244   3.039  0.00  0.00     0.188 A 
HETATM    5  C   UNK N   1      21.276  20.359   2.493  0.00  0.00     0.181 A 
HETATM    6  C   UNK N   1      20.388  19.186   2.678  0.00  0.00     0.180 A 
ENDROOT
BRANCH   1   7
HETATM    7  C   UNK N   1      20.207  16.666   3.693  0.00  0.00     0.198 C 
BRANCH   7   8
HETATM    8  O   UNK N   1      18.875  16.909   3.952  0.00  0.00    -0.398 OA
HETATM    9  H   UNK N   1      18.615  17.362   4.770  0.00  0.00     0.209 HD
ENDBRANCH   7   8
ENDBRANCH   1   7
BRANCH   6  10
HETATM   10  O   UNK N   1      19.077  19.245   2.183  0.00  0.00    -0.390 OA
HETATM   11  H   UNK N   1      18.742  18.538   1.610  0.00  0.00     0.210 HD
ENDBRANCH   6  10
BRANCH   3  12
HETATM   12  S   UNK N   1      24.705  18.601   4.475  0.00  0.00    -0.148 SA
HETATM   13  H   UNK N   1      25.185  19.391   5.471  0.00  0.00     0.104 HD
ENDBRANCH   3  12
BRANCH   5  14
HETATM   14  O   UNK N   1      20.824  21.508   1.838  0.00  0.00    -0.390 OA
HETATM   15  H   UNK N   1      21.303  21.845   1.065  0.00  0.00     0.210 HD
ENDBRANCH   5  14
BRANCH   4  16
HETATM   16  O   UNK N   1      23.550  21.319   2.896  0.00  0.00    -0.389 OA
HETATM   17  H   UNK N   1      23.391  22.146   3.377  0.00  0.00     0.210 HD
ENDBRANCH   4  16
TORSDOF 6
ENDMDL
MODEL 8
REMARK VINA RESULT:      -4.5     11.620     12.315
REMARK  6 active torsions:
REMARK  status: ('A' for Active; 'I' for Inactive)
REMARK    1  A    between atoms: O_1  and  C_2 
REMARK    2  A    between atoms: C_3  and  C_2 
REMARK    3  A    between atoms: C_5  and  S_6 
REMARK    4  A    between atoms: C_7  and  O_8 
REMARK    5  A    between atoms: C_9  and  O_10 
REMARK    6  A    between atoms: C_11  and  O_12 
ROOT
HETATM    1  C   UNK N   1      44.305  20.501   2.948  0.00  0.00     0.178 A 
HETATM    2  O   UNK N   1      43.182  20.200   2.186  0.00  0.00    -0.363 OA
HETATM    3  C   UNK N   1      42.229  21.204   1.978  0.00  0.00     0.212 A 
HETATM    4  C   UNK N   1      42.368  22.623   2.553  0.00  0.00     0.188 A 
HETATM    5  C   UNK N   1      43.569  22.967   3.376  0.00  0.00     0.181 A 
HETATM    6  C   UNK N   1      44.566  21.889   3.584  0.00  0.00     0.180 A 
ENDROOT
BRANCH   1   7
HETATM    7  C   UNK N   1      45.187  19.294   3.044  0.00  0.00     0.198 C 
BRANCH   7   8
HETATM    8  O   UNK N   1      46.504  19.654   3.224  0.00  0.00    -0.398 OA
HETATM    9  H   UNK N   1      46.825  19.896   4.107  0.00  0.00     0.209 HD
ENDBRANCH   7   8
ENDBRANCH   1   7
BRANCH   6  10
HETATM   10  O   UNK N   1      45.709  22.163   4.348  0.00  0.00    -0.390 OA
HETATM   11  H   UNK N   1      45.721  21.955   5.295  0.00  0.00     0.210 HD
ENDBRANCH   6  10
BRANCH   3  12
HETATM   12  S   UNK N   1      40.871  20.581   0.967  0.00  0.00    -0.148 SA
HETATM   13  H   UNK N   1      40.771  20.951  -0.338  0.00  0.00     0.104 HD
ENDBRANCH   3  12
BRANCH   5  14
HETATM   14  O   UNK N   1      43.757  24.237   3.928  0.00  0.00    -0.390 OA
HETATM   15  H   UNK N   1      43.629  24.375   4.880  0.00  0.00     0.210 HD
ENDBRANCH   5  14
BRANCH   4  16
HETATM   16  O   UNK N   1      41.391  23.599   2.322  0.00  0.00    -0.389 OA
HETATM   17  H   UNK N   1      40.467  23.338   2.185  0.00  0.00     0.210 HD
ENDBRANCH   4  16
TORSDOF 6
ENDMDL
MODEL 9
REMARK VINA RESULT:      -4.4     12.825     14.252
REMARK  6 active torsions:
REMARK  status: ('A' for Active; 'I' for Inactive)
REMARK    1  A    between atoms: O_1  and  C_2 
REMARK    2  A    between atoms: C_3  and  C_2 
REMARK    3  A    between atoms: C_5  and  S_6 
REMARK    4  A    between atoms: C_7  and  O_8 
REMARK    5  A    between atoms: C_9  and  O_10 
REMARK    6  A    between atoms: C_11  and  O_12 
ROOT
HETATM    1  C   UNK N   1      29.433  22.962  -3.689  0.00  0.00     0.178 A 
HETATM    2  O   UNK N   1      29.419  22.451  -4.981  0.00  0.00    -0.363 OA
HETATM    3  C   UNK N   1      30.414  21.538  -5.348  0.00  0.00     0.212 A 
HETATM    4  C   UNK N   1      31.521  21.074  -4.387  0.00  0.00     0.188 A 
HETATM    5  C   UNK N   1      31.553  21.611  -2.991  0.00  0.00     0.181 A 
HETATM    6  C   UNK N   1      30.491  22.577  -2.624  0.00  0.00     0.180 A 
ENDROOT
BRANCH   1   7
HETATM    7  C   UNK N   1      28.290  23.913  -3.511  0.00  0.00     0.198 C 
BRANCH   7   8
HETATM    8  O   UNK N   1      27.574  23.622  -2.370  0.00  0.00    -0.398 OA
HETATM    9  H   UNK N   1      26.903  24.242  -2.047  0.00  0.00     0.209 HD
ENDBRANCH   7   8
ENDBRANCH   1   7
BRANCH   6  10
HETATM   10  O   UNK N   1      30.479  23.109  -1.327  0.00  0.00    -0.390 OA
HETATM   11  H   UNK N   1      29.871  23.831  -1.104  0.00  0.00     0.210 HD
ENDBRANCH   6  10
BRANCH   3  12
HETATM   12  S   UNK N   1      30.190  21.020  -7.062  0.00  0.00    -0.148 SA
HETATM   13  H   UNK N   1      31.189  20.361  -7.708  0.00  0.00     0.104 HD
ENDBRANCH   3  12
BRANCH   5  14
HETATM   14  O   UNK N   1      32.531  21.231  -2.067  0.00  0.00    -0.390 OA
HETATM   15  H   UNK N   1      32.585  21.678  -1.208  0.00  0.00     0.210 HD
ENDBRANCH   5  14
BRANCH   4  16
HETATM   16  O   UNK N   1      32.498  20.158  -4.794  0.00  0.00    -0.389 OA
HETATM   17  H   UNK N   1      32.614  19.958  -5.736  0.00  0.00     0.210 HD
ENDBRANCH   4  16
TORSDOF 6
ENDMDL
