MODEL 1
REMARK VINA RESULT:      -8.3      0.000      0.000
REMARK WARNING: 32 MAX_TORS EXCEEDED!!!
REMARK  33 active torsions:
REMARK  status: ('A' for Active; 'I' for Inactive)
REMARK    1  A    between atoms: C_9  and  C_3 
REMARK    2  A    between atoms: O_39  and  C_3 
REMARK    3  A    between atoms: C_11  and  C_4 
REMARK    4  A    between atoms: O_40  and  C_4 
REMARK    5  A    between atoms: C_12  and  C_5 
REMARK    6  A    between atoms: O_41  and  C_5 
REMARK    7  A    between atoms: C_13  and  C_6 
REMARK    8  A    between atoms: O_42  and  C_6 
REMARK    9  A    between atoms: C_14  and  C_7 
REMARK   10  A    between atoms: O_58  and  C_7 
REMARK   11  A    between atoms: C_10  and  N_38 
REMARK   12  A    between atoms: C_15  and  N_38 
REMARK   13  A    between atoms: C_16  and  O_43 
REMARK   14  A    between atoms: C_18  and  O_45 
REMARK   15  A    between atoms: C_19  and  O_46 
REMARK   16  A    between atoms: C_20  and  O_47 
REMARK   17  A    between atoms: C_21  and  O_48 
REMARK   18  A    between atoms: C_22  and  O_49 
REMARK   19  A    between atoms: C_23  and  O_50 
REMARK   20  A    between atoms: C_24  and  O_51 
REMARK   21  A    between atoms: C_25  and  O_52 
REMARK   22  A    between atoms: C_26  and  O_53 
REMARK   23  A    between atoms: C_27  and  O_54 
REMARK   24  A    between atoms: C_28  and  O_55 
REMARK   25  A    between atoms: C_29  and  O_56 
REMARK   26  A    between atoms: C_30  and  O_64 
REMARK   27  A    between atoms: C_31  and  O_65 
REMARK   28  A    between atoms: C_32  and  O_66 
REMARK   29  A    between atoms: C_33  and  O_57 
REMARK   30  A    between atoms: C_34  and  O_58 
REMARK   31  A    between atoms: C_35  and  O_65 
REMARK   32  A    between atoms: C_36  and  O_66 
REMARK   33  A    between atoms: C_37  and  O_64 
ROOT
HETATM    1  C   UNK N   1      22.473  19.559   2.848  0.00  0.00     0.179 C 
HETATM    2  C   UNK N   1      21.694  20.569   1.997  0.00  0.00     0.180 C 
HETATM    3  C   UNK N   1      20.374  19.912   1.553  0.00  0.00     0.183 C 
HETATM    4  C   UNK N   1      19.607  19.353   2.783  0.00  0.00     0.204 C 
HETATM    5  C   UNK N   1      20.535  18.400   3.552  0.00  0.00     0.292 C 
HETATM    6  O   UNK N   1      21.419  21.718   2.743  0.00  0.00    -0.390 OA
HETATM    7  O   UNK N   1      21.684  19.163   3.961  0.00  0.00    -0.348 OA
HETATM    8  H   UNK N   1      21.247  22.588   3.137  0.00  0.00     0.210 HD
ENDROOT
BRANCH   1   9
HETATM    9  C   UNK N   1      23.817  20.121   3.328  0.00  0.00     0.198 C 
BRANCH   9  10
HETATM   10  O   UNK N   1      24.401  20.958   2.375  0.00  0.00    -0.398 OA
HETATM   11  H   UNK N   1      24.750  21.382   1.577  0.00  0.00     0.209 HD
ENDBRANCH   9  10
ENDBRANCH   1   9
BRANCH   3  12
HETATM   12  O   UNK N   1      20.657  18.871   0.660  0.00  0.00    -0.390 OA
HETATM   13  H   UNK N   1      20.629  18.165  -0.004  0.00  0.00     0.210 HD
ENDBRANCH   3  12
BRANCH   4  14
HETATM   14  O   UNK N   1      18.460  18.678   2.362  0.00  0.00    -0.388 OA
HETATM   15  H   UNK N   1      17.927  18.811   1.563  0.00  0.00     0.210 HD
ENDBRANCH   4  14
BRANCH   5  16
HETATM   16  O   UNK N   1      19.853  17.742   4.653  0.00  0.00    -0.348 OA
BRANCH  16  17
HETATM   17  C   UNK N   1      20.140  16.348   4.699  0.00  0.00     0.187 C 
HETATM   18  C   UNK N   1      21.033  15.931   5.874  0.00  0.00     0.180 C 
HETATM   19  O   UNK N   1      20.667  14.601   6.059  0.00  0.00    -0.348 OA
HETATM   20  C   UNK N   1      21.274  13.711   5.163  0.00  0.00     0.292 C 
HETATM   21  C   UNK N   1      21.016  14.188   3.674  0.00  0.00     0.204 C 
HETATM   22  C   UNK N   1      20.936  15.753   3.497  0.00  0.00     0.183 C 
BRANCH  18  23
HETATM   23  C   UNK N   1      20.963  16.689   7.209  0.00  0.00     0.198 C 
BRANCH  23  24
HETATM   24  O   UNK N   1      21.171  18.059   7.062  0.00  0.00    -0.398 OA
HETATM   25  H   UNK N   1      21.125  18.715   7.775  0.00  0.00     0.209 HD
ENDBRANCH  23  24
ENDBRANCH  18  23
BRANCH  20  26
HETATM   26  O   UNK N   1      22.596  13.462   5.593  0.00  0.00    -0.346 OA
BRANCH  26  27
HETATM   27  C   UNK N   1      23.610  13.857   4.618  0.00  0.00     0.187 C 
HETATM   28  C   UNK N   1      24.426  12.712   4.005  0.00  0.00    -0.027 C 
HETATM   29  C   UNK N   1      25.790  12.742   3.957  0.00  0.00     0.008 C 
HETATM   30  C   UNK N   1      26.713  13.815   4.588  0.00  0.00     0.132 C 
HETATM   31  C   UNK N   1      25.956  14.593   5.622  0.00  0.00     0.175 C 
HETATM   32  C   UNK N   1      24.558  15.043   5.012  0.00  0.00     0.182 C 
BRANCH  28  33
HETATM   33  C   UNK N   1      23.737  11.554   3.333  0.00  0.00     0.201 C 
BRANCH  33  34
HETATM   34  O   UNK N   1      23.164  11.917   2.112  0.00  0.00    -0.397 OA
HETATM   35  H   UNK N   1      22.586  11.397   1.532  0.00  0.00     0.209 HD
ENDBRANCH  33  34
ENDBRANCH  28  33
BRANCH  30  36
HETATM   36  N   UNK N   1      27.332  14.814   3.695  0.00  0.00    -0.402 N 
HETATM   37  H   UNK N   1      26.898  15.126   2.827  0.00  0.00     0.154 HD
BRANCH  36  38
HETATM   38  C   UNK N   1      28.611  15.312   4.163  0.00  0.00     0.137 C 
HETATM   39  C   UNK N   1      29.671  15.053   3.048  0.00  0.00     0.145 C 
HETATM   40  C   UNK N   1      29.900  13.599   2.692  0.00  0.00     0.042 C 
HETATM   41  O   UNK N   1      30.926  15.678   3.304  0.00  0.00    -0.352 OA
HETATM   42  C   UNK N   1      31.056  16.082   4.657  0.00  0.00     0.292 C 
HETATM   43  C   UNK N   1      30.099  17.269   4.920  0.00  0.00     0.204 C 
HETATM   44  C   UNK N   1      28.643  16.849   4.421  0.00  0.00     0.176 C 
BRANCH  42  45
HETATM   45  O   UNK N   1      32.429  16.118   5.037  0.00  0.00    -0.348 OA
BRANCH  45  46
HETATM   46  C   UNK N   1      32.485  16.373   6.460  0.00  0.00     0.187 C 
HETATM   47  C   UNK N   1      33.108  15.200   7.242  0.00  0.00     0.180 C 
HETATM   48  O   UNK N   1      33.057  15.400   8.663  0.00  0.00    -0.348 OA
HETATM   49  C   UNK N   1      33.605  16.637   9.144  0.00  0.00     0.291 C 
HETATM   50  C   UNK N   1      33.025  17.858   8.392  0.00  0.00     0.204 C 
HETATM   51  C   UNK N   1      33.230  17.681   6.908  0.00  0.00     0.183 C 
BRANCH  47  52
HETATM   52  C   UNK N   1      34.517  14.859   6.757  0.00  0.00     0.198 C 
BRANCH  52  53
HETATM   53  O   UNK N   1      35.134  13.975   7.641  0.00  0.00    -0.398 OA
HETATM   54  H   UNK N   1      34.690  13.724   8.466  0.00  0.00     0.209 HD
ENDBRANCH  52  53
ENDBRANCH  47  52
BRANCH  49  55
HETATM   55  O   UNK N   1      35.025  16.574   9.169  0.00  0.00    -0.356 OA
BRANCH  55  56
HETATM   56  C   UNK N   1      35.511  16.608  10.503  0.00  0.00     0.205 C 
BRANCH  56  57
HETATM   57  C   UNK N   1      35.973  15.258  11.083  0.00  0.00     0.180 C 
HETATM   58  C   UNK N   1      34.884  14.632  11.995  0.00  0.00     0.180 C 
HETATM   59  C   UNK N   1      35.442  13.341  12.607  0.00  0.00     0.183 C 
HETATM   60  C   UNK N   1      35.910  12.418  11.476  0.00  0.00     0.204 C 
HETATM   61  C   UNK N   1      36.915  13.167  10.579  0.00  0.00     0.288 C 
HETATM   62  O   UNK N   1      36.353  14.360  10.046  0.00  0.00    -0.349 OA
BRANCH  58  63
HETATM   63  O   UNK N   1      33.733  14.337  11.257  0.00  0.00    -0.390 OA
HETATM   64  H   UNK N   1      33.099  13.715  10.868  0.00  0.00     0.210 HD
ENDBRANCH  58  63
BRANCH  59  65
HETATM   65  O   UNK N   1      34.466  12.707  13.382  0.00  0.00    -0.390 OA
HETATM   66  H   UNK N   1      34.465  11.800  13.726  0.00  0.00     0.210 HD
ENDBRANCH  59  65
BRANCH  60  67
HETATM   67  O   UNK N   1      36.497  11.264  12.003  0.00  0.00    -0.388 OA
HETATM   68  H   UNK N   1      37.334  11.316  12.490  0.00  0.00     0.210 HD
ENDBRANCH  60  67
BRANCH  61  69
HETATM   69  O   UNK N   1      38.104  13.444  11.265  0.00  0.00    -0.369 OA
HETATM   70  H   UNK N   1      38.984  13.849  11.314  0.00  0.00     0.212 HD
ENDBRANCH  61  69
ENDBRANCH  56  57
ENDBRANCH  55  56
ENDBRANCH  49  55
BRANCH  50  71
HETATM   71  O   UNK N   1      31.659  17.974   8.674  0.00  0.00    -0.388 OA
HETATM   72  H   UNK N   1      30.802  18.150   9.095  0.00  0.00     0.210 HD
ENDBRANCH  50  71
BRANCH  51  73
HETATM   73  O   UNK N   1      34.588  17.647   6.574  0.00  0.00    -0.390 OA
HETATM   74  H   UNK N   1      35.490  17.441   6.282  0.00  0.00     0.210 HD
ENDBRANCH  51  73
ENDBRANCH  45  46
ENDBRANCH  42  45
BRANCH  43  75
HETATM   75  O   UNK N   1      30.532  18.429   4.272  0.00  0.00    -0.388 OA
HETATM   76  H   UNK N   1      30.221  18.910   3.489  0.00  0.00     0.210 HD
ENDBRANCH  43  75
BRANCH  44  77
HETATM   77  O   UNK N   1      28.324  17.517   3.232  0.00  0.00    -0.391 OA
HETATM   78  H   UNK N   1      28.565  17.644   2.301  0.00  0.00     0.210 HD
ENDBRANCH  44  77
ENDBRANCH  36  38
ENDBRANCH  30  36
BRANCH  31  79
HETATM   79  O   UNK N   1      25.943  13.772   6.747  0.00  0.00    -0.391 OA
HETATM   80  H   UNK N   1      25.416  13.460   7.499  0.00  0.00     0.210 HD
ENDBRANCH  31  79
BRANCH  32  81
HETATM   81  O   UNK N   1      24.819  15.814   3.877  0.00  0.00    -0.390 OA
HETATM   82  H   UNK N   1      24.670  16.722   3.576  0.00  0.00     0.210 HD
ENDBRANCH  32  81
ENDBRANCH  26  27
ENDBRANCH  20  26
BRANCH  21  83
HETATM   83  O   UNK N   1      19.760  13.686   3.308  0.00  0.00    -0.388 OA
HETATM   84  H   UNK N   1      18.827  13.427   3.270  0.00  0.00     0.210 HD
ENDBRANCH  21  83
BRANCH  22  85
HETATM   85  O   UNK N   1      20.321  16.073   2.285  0.00  0.00    -0.390 OA
HETATM   86  H   UNK N   1      20.610  16.629   1.543  0.00  0.00     0.210 HD
ENDBRANCH  22  85
ENDBRANCH  16  17
ENDBRANCH   5  16
TORSDOF 33
ENDMDL
MODEL 2
REMARK VINA RESULT:      -8.2      3.523      7.458
REMARK WARNING: 32 MAX_TORS EXCEEDED!!!
REMARK  33 active torsions:
REMARK  status: ('A' for Active; 'I' for Inactive)
REMARK    1  A    between atoms: C_9  and  C_3 
REMARK    2  A    between atoms: O_39  and  C_3 
REMARK    3  A    between atoms: C_11  and  C_4 
REMARK    4  A    between atoms: O_40  and  C_4 
REMARK    5  A    between atoms: C_12  and  C_5 
REMARK    6  A    between atoms: O_41  and  C_5 
REMARK    7  A    between atoms: C_13  and  C_6 
REMARK    8  A    between atoms: O_42  and  C_6 
REMARK    9  A    between atoms: C_14  and  C_7 
REMARK   10  A    between atoms: O_58  and  C_7 
REMARK   11  A    between atoms: C_10  and  N_38 
REMARK   12  A    between atoms: C_15  and  N_38 
REMARK   13  A    between atoms: C_16  and  O_43 
REMARK   14  A    between atoms: C_18  and  O_45 
REMARK   15  A    between atoms: C_19  and  O_46 
REMARK   16  A    between atoms: C_20  and  O_47 
REMARK   17  A    between atoms: C_21  and  O_48 
REMARK   18  A    between atoms: C_22  and  O_49 
REMARK   19  A    between atoms: C_23  and  O_50 
REMARK   20  A    between atoms: C_24  and  O_51 
REMARK   21  A    between atoms: C_25  and  O_52 
REMARK   22  A    between atoms: C_26  and  O_53 
REMARK   23  A    between atoms: C_27  and  O_54 
REMARK   24  A    between atoms: C_28  and  O_55 
REMARK   25  A    between atoms: C_29  and  O_56 
REMARK   26  A    between atoms: C_30  and  O_64 
REMARK   27  A    between atoms: C_31  and  O_65 
REMARK   28  A    between atoms: C_32  and  O_66 
REMARK   29  A    between atoms: C_33  and  O_57 
REMARK   30  A    between atoms: C_34  and  O_58 
REMARK   31  A    between atoms: C_35  and  O_65 
REMARK   32  A    between atoms: C_36  and  O_66 
REMARK   33  A    between atoms: C_37  and  O_64 
ROOT
HETATM    1  C   UNK N   1      21.619  17.423   4.316  0.00  0.00     0.179 C 
HETATM    2  C   UNK N   1      20.572  18.071   3.404  0.00  0.00     0.180 C 
HETATM    3  C   UNK N   1      20.898  19.571   3.283  0.00  0.00     0.183 C 
HETATM    4  C   UNK N   1      22.373  19.771   2.842  0.00  0.00     0.204 C 
HETATM    5  C   UNK N   1      23.288  19.025   3.825  0.00  0.00     0.292 C 
HETATM    6  O   UNK N   1      20.603  17.480   2.137  0.00  0.00    -0.390 OA
HETATM    7  O   UNK N   1      22.918  17.636   3.780  0.00  0.00    -0.348 OA
HETATM    8  H   UNK N   1      20.481  17.090   1.258  0.00  0.00     0.210 HD
ENDROOT
BRANCH   1   9
HETATM    9  C   UNK N   1      21.369  15.922   4.510  0.00  0.00     0.198 C 
BRANCH   9  10
HETATM   10  O   UNK N   1      20.026  15.590   4.322  0.00  0.00    -0.398 OA
HETATM   11  H   UNK N   1      19.117  15.467   4.007  0.00  0.00     0.209 HD
ENDBRANCH   9  10
ENDBRANCH   1   9
BRANCH   3  12
HETATM   12  O   UNK N   1      20.688  20.188   4.523  0.00  0.00    -0.390 OA
HETATM   13  H   UNK N   1      20.770  20.593   5.400  0.00  0.00     0.210 HD
ENDBRANCH   3  12
BRANCH   4  14
HETATM   14  O   UNK N   1      22.685  21.132   2.825  0.00  0.00    -0.388 OA
HETATM   15  H   UNK N   1      23.546  21.564   2.720  0.00  0.00     0.210 HD
ENDBRANCH   4  14
BRANCH   5  16
HETATM   16  O   UNK N   1      24.694  19.261   3.551  0.00  0.00    -0.348 OA
BRANCH  16  17
HETATM   17  C   UNK N   1      25.534  18.359   4.265  0.00  0.00     0.187 C 
HETATM   18  C   UNK N   1      26.702  19.035   4.994  0.00  0.00     0.180 C 
HETATM   19  O   UNK N   1      26.953  18.139   6.030  0.00  0.00    -0.348 OA
HETATM   20  C   UNK N   1      27.714  17.025   5.652  0.00  0.00     0.292 C 
HETATM   21  C   UNK N   1      27.039  16.310   4.410  0.00  0.00     0.204 C 
HETATM   22  C   UNK N   1      26.292  17.287   3.423  0.00  0.00     0.183 C 
BRANCH  18  23
HETATM   23  C   UNK N   1      26.549  20.458   5.552  0.00  0.00     0.198 C 
BRANCH  23  24
HETATM   24  O   UNK N   1      26.471  20.486   6.943  0.00  0.00    -0.398 OA
HETATM   25  H   UNK N   1      25.880  21.053   7.463  0.00  0.00     0.209 HD
ENDBRANCH  23  24
ENDBRANCH  18  23
BRANCH  20  26
HETATM   26  O   UNK N   1      29.073  17.405   5.579  0.00  0.00    -0.346 OA
BRANCH  26  27
HETATM   27  C   UNK N   1      29.947  16.608   6.435  0.00  0.00     0.187 C 
HETATM   28  C   UNK N   1      30.605  17.360   7.599  0.00  0.00    -0.027 C 
HETATM   29  C   UNK N   1      31.945  17.285   7.842  0.00  0.00     0.008 C 
HETATM   30  C   UNK N   1      33.005  16.571   6.965  0.00  0.00     0.132 C 
HETATM   31  C   UNK N   1      32.450  16.330   5.593  0.00  0.00     0.175 C 
HETATM   32  C   UNK N   1      31.001  15.689   5.724  0.00  0.00     0.182 C 
BRANCH  28  33
HETATM   33  C   UNK N   1      29.767  18.128   8.586  0.00  0.00     0.201 C 
BRANCH  33  34
HETATM   34  O   UNK N   1      28.937  19.063   7.961  0.00  0.00    -0.397 OA
HETATM   35  H   UNK N   1      29.169  19.926   7.583  0.00  0.00     0.209 HD
ENDBRANCH  33  34
ENDBRANCH  28  33
BRANCH  30  36
HETATM   36  N   UNK N   1      33.531  15.272   7.427  0.00  0.00    -0.402 N 
HETATM   37  H   UNK N   1      33.638  14.465   6.812  0.00  0.00     0.154 HD
BRANCH  36  38
HETATM   38  C   UNK N   1      33.884  15.244   8.834  0.00  0.00     0.137 C 
HETATM   39  C   UNK N   1      34.249  13.776   9.215  0.00  0.00     0.145 C 
HETATM   40  C   UNK N   1      33.135  12.763   9.049  0.00  0.00     0.042 C 
HETATM   41  O   UNK N   1      34.807  13.653  10.520  0.00  0.00    -0.352 OA
HETATM   42  C   UNK N   1      34.574  14.805  11.313  0.00  0.00     0.292 C 
HETATM   43  C   UNK N   1      35.424  15.973  10.760  0.00  0.00     0.204 C 
HETATM   44  C   UNK N   1      35.139  16.094   9.196  0.00  0.00     0.176 C 
BRANCH  42  45
HETATM   45  O   UNK N   1      34.563  14.464  12.696  0.00  0.00    -0.348 OA
BRANCH  45  46
HETATM   46  C   UNK N   1      35.301  13.229  12.852  0.00  0.00     0.187 C 
HETATM   47  C   UNK N   1      36.655  13.440  13.555  0.00  0.00     0.180 C 
HETATM   48  O   UNK N   1      37.441  12.238  13.605  0.00  0.00    -0.348 OA
HETATM   49  C   UNK N   1      36.790  11.085  14.159  0.00  0.00     0.291 C 
HETATM   50  C   UNK N   1      35.416  10.821  13.500  0.00  0.00     0.204 C 
HETATM   51  C   UNK N   1      34.562  12.062  13.599  0.00  0.00     0.183 C 
BRANCH  47  52
HETATM   52  C   UNK N   1      36.503  14.087  14.932  0.00  0.00     0.198 C 
BRANCH  52  53
HETATM   53  O   UNK N   1      37.753  14.275  15.521  0.00  0.00    -0.398 OA
HETATM   54  H   UNK N   1      37.891  15.004  16.146  0.00  0.00     0.209 HD
ENDBRANCH  52  53
ENDBRANCH  47  52
BRANCH  49  55
HETATM   55  O   UNK N   1      36.762  11.166  15.579  0.00  0.00    -0.356 OA
BRANCH  55  56
HETATM   56  C   UNK N   1      36.291   9.953  16.147  0.00  0.00     0.205 C 
BRANCH  56  57
HETATM   57  C   UNK N   1      36.022   9.984  17.664  0.00  0.00     0.180 C 
HETATM   58  C   UNK N   1      35.994  11.440  18.203  0.00  0.00     0.180 C 
HETATM   59  C   UNK N   1      35.813  11.393  19.726  0.00  0.00     0.183 C 
HETATM   60  C   UNK N   1      34.550  10.586  20.051  0.00  0.00     0.204 C 
HETATM   61  C   UNK N   1      34.641   9.196  19.391  0.00  0.00     0.288 C 
HETATM   62  O   UNK N   1      34.819   9.294  17.984  0.00  0.00    -0.349 OA
BRANCH  58  63
HETATM   63  O   UNK N   1      34.938  12.156  17.631  0.00  0.00    -0.390 OA
HETATM   64  H   UNK N   1      34.040  12.221  17.272  0.00  0.00     0.210 HD
ENDBRANCH  58  63
BRANCH  59  65
HETATM   65  O   UNK N   1      35.712  12.687  20.244  0.00  0.00    -0.390 OA
HETATM   66  H   UNK N   1      35.075  13.381  20.013  0.00  0.00     0.210 HD
ENDBRANCH  59  65
BRANCH  60  67
HETATM   67  O   UNK N   1      34.400  10.458  21.434  0.00  0.00    -0.388 OA
HETATM   68  H   UNK N   1      35.162  10.243  21.994  0.00  0.00     0.210 HD
ENDBRANCH  60  67
BRANCH  61  69
HETATM   69  O   UNK N   1      35.659   8.424  19.966  0.00  0.00    -0.369 OA
HETATM   70  H   UNK N   1      36.451   8.336  20.519  0.00  0.00     0.212 HD
ENDBRANCH  61  69
ENDBRANCH  56  57
ENDBRANCH  55  56
ENDBRANCH  49  55
BRANCH  50  71
HETATM   71  O   UNK N   1      35.601  10.477  12.156  0.00  0.00    -0.388 OA
HETATM   72  H   UNK N   1      35.981  10.261  11.290  0.00  0.00     0.210 HD
ENDBRANCH  50  71
BRANCH  51  73
HETATM   73  O   UNK N   1      34.281  12.391  14.929  0.00  0.00    -0.390 OA
HETATM   74  H   UNK N   1      34.152  12.440  15.889  0.00  0.00     0.210 HD
ENDBRANCH  51  73
ENDBRANCH  45  46
ENDBRANCH  42  45
BRANCH  43  75
HETATM   75  O   UNK N   1      36.786  15.775  11.005  0.00  0.00    -0.388 OA
HETATM   76  H   UNK N   1      37.575  16.320  10.858  0.00  0.00     0.210 HD
ENDBRANCH  43  75
BRANCH  44  77
HETATM   77  O   UNK N   1      36.235  15.622   8.462  0.00  0.00    -0.391 OA
HETATM   78  H   UNK N   1      36.624  15.536   7.577  0.00  0.00     0.210 HD
ENDBRANCH  44  77
ENDBRANCH  36  38
ENDBRANCH  30  36
BRANCH  31  79
HETATM   79  O   UNK N   1      32.566  17.556   4.942  0.00  0.00    -0.391 OA
HETATM   80  H   UNK N   1      32.081  18.316   4.583  0.00  0.00     0.210 HD
ENDBRANCH  31  79
BRANCH  32  81
HETATM   81  O   UNK N   1      31.126  14.499   6.443  0.00  0.00    -0.390 OA
HETATM   82  H   UNK N   1      31.683  14.143   7.152  0.00  0.00     0.210 HD
ENDBRANCH  32  81
ENDBRANCH  26  27
ENDBRANCH  20  26
BRANCH  21  83
HETATM   83  O   UNK N   1      26.059  15.453   4.930  0.00  0.00    -0.388 OA
HETATM   84  H   UNK N   1      25.267  15.068   5.336  0.00  0.00     0.210 HD
ENDBRANCH  21  83
BRANCH  22  85
HETATM   85  O   UNK N   1      25.407  16.573   2.611  0.00  0.00    -0.390 OA
HETATM   86  H   UNK N   1      24.443  16.628   2.506  0.00  0.00     0.210 HD
ENDBRANCH  22  85
ENDBRANCH  16  17
ENDBRANCH   5  16
TORSDOF 33
ENDMDL
MODEL 3
REMARK VINA RESULT:      -7.9      2.091      4.142
REMARK WARNING: 32 MAX_TORS EXCEEDED!!!
REMARK  33 active torsions:
REMARK  status: ('A' for Active; 'I' for Inactive)
REMARK    1  A    between atoms: C_9  and  C_3 
REMARK    2  A    between atoms: O_39  and  C_3 
REMARK    3  A    between atoms: C_11  and  C_4 
REMARK    4  A    between atoms: O_40  and  C_4 
REMARK    5  A    between atoms: C_12  and  C_5 
REMARK    6  A    between atoms: O_41  and  C_5 
REMARK    7  A    between atoms: C_13  and  C_6 
REMARK    8  A    between atoms: O_42  and  C_6 
REMARK    9  A    between atoms: C_14  and  C_7 
REMARK   10  A    between atoms: O_58  and  C_7 
REMARK   11  A    between atoms: C_10  and  N_38 
REMARK   12  A    between atoms: C_15  and  N_38 
REMARK   13  A    between atoms: C_16  and  O_43 
REMARK   14  A    between atoms: C_18  and  O_45 
REMARK   15  A    between atoms: C_19  and  O_46 
REMARK   16  A    between atoms: C_20  and  O_47 
REMARK   17  A    between atoms: C_21  and  O_48 
REMARK   18  A    between atoms: C_22  and  O_49 
REMARK   19  A    between atoms: C_23  and  O_50 
REMARK   20  A    between atoms: C_24  and  O_51 
REMARK   21  A    between atoms: C_25  and  O_52 
REMARK   22  A    between atoms: C_26  and  O_53 
REMARK   23  A    between atoms: C_27  and  O_54 
REMARK   24  A    between atoms: C_28  and  O_55 
REMARK   25  A    between atoms: C_29  and  O_56 
REMARK   26  A    between atoms: C_30  and  O_64 
REMARK   27  A    between atoms: C_31  and  O_65 
REMARK   28  A    between atoms: C_32  and  O_66 
REMARK   29  A    between atoms: C_33  and  O_57 
REMARK   30  A    between atoms: C_34  and  O_58 
REMARK   31  A    between atoms: C_35  and  O_65 
REMARK   32  A    between atoms: C_36  and  O_66 
REMARK   33  A    between atoms: C_37  and  O_64 
ROOT
HETATM    1  C   UNK N   1      21.839  19.305   2.649  0.00  0.00     0.179 C 
HETATM    2  C   UNK N   1      20.337  19.608   2.611  0.00  0.00     0.180 C 
HETATM    3  C   UNK N   1      19.579  18.279   2.439  0.00  0.00     0.183 C 
HETATM    4  C   UNK N   1      20.020  17.259   3.523  0.00  0.00     0.204 C 
HETATM    5  C   UNK N   1      21.547  17.103   3.463  0.00  0.00     0.292 C 
HETATM    6  O   UNK N   1      19.939  20.225   3.800  0.00  0.00    -0.390 OA
HETATM    7  O   UNK N   1      22.117  18.400   3.710  0.00  0.00    -0.348 OA
HETATM    8  H   UNK N   1      19.571  20.729   4.543  0.00  0.00     0.210 HD
ENDROOT
BRANCH   1   9
HETATM    9  C   UNK N   1      22.683  20.576   2.805  0.00  0.00     0.198 C 
BRANCH   9  10
HETATM   10  O   UNK N   1      21.909  21.732   2.687  0.00  0.00    -0.398 OA
HETATM   11  H   UNK N   1      21.225  22.418   2.710  0.00  0.00     0.209 HD
ENDBRANCH   9  10
ENDBRANCH   1   9
BRANCH   3  12
HETATM   12  O   UNK N   1      19.847  17.760   1.166  0.00  0.00    -0.390 OA
HETATM   13  H   UNK N   1      20.205  17.551   0.289  0.00  0.00     0.210 HD
ENDBRANCH   3  12
BRANCH   4  14
HETATM   14  O   UNK N   1      19.397  16.030   3.302  0.00  0.00    -0.388 OA
HETATM   15  H   UNK N   1      18.476  15.769   3.459  0.00  0.00     0.210 HD
ENDBRANCH   4  14
BRANCH   5  16
HETATM   16  O   UNK N   1      22.029  16.075   4.369  0.00  0.00    -0.348 OA
BRANCH  16  17
HETATM   17  C   UNK N   1      23.172  15.403   3.852  0.00  0.00     0.187 C 
HETATM   18  C   UNK N   1      24.450  16.251   3.847  0.00  0.00     0.180 C 
HETATM   19  O   UNK N   1      25.444  15.279   3.911  0.00  0.00    -0.348 OA
HETATM   20  C   UNK N   1      25.731  14.674   2.681  0.00  0.00     0.292 C 
HETATM   21  C   UNK N   1      24.401  14.109   2.035  0.00  0.00     0.204 C 
HETATM   22  C   UNK N   1      23.110  14.955   2.359  0.00  0.00     0.183 C 
BRANCH  18  23
HETATM   23  C   UNK N   1      24.679  17.314   4.934  0.00  0.00     0.198 C 
BRANCH  23  24
HETATM   24  O   UNK N   1      23.863  17.130   6.048  0.00  0.00    -0.398 OA
HETATM   25  H   UNK N   1      24.129  17.268   6.971  0.00  0.00     0.209 HD
ENDBRANCH  23  24
ENDBRANCH  18  23
BRANCH  20  26
HETATM   26  O   UNK N   1      26.554  15.542   1.928  0.00  0.00    -0.346 OA
BRANCH  26  27
HETATM   27  C   UNK N   1      27.983  15.315   2.133  0.00  0.00     0.187 C 
HETATM   28  C   UNK N   1      28.369  13.918   2.635  0.00  0.00    -0.027 C 
HETATM   29  C   UNK N   1      29.196  13.739   3.706  0.00  0.00     0.008 C 
HETATM   30  C   UNK N   1      29.761  14.846   4.632  0.00  0.00     0.132 C 
HETATM   31  C   UNK N   1      28.955  16.100   4.475  0.00  0.00     0.175 C 
HETATM   32  C   UNK N   1      28.775  16.412   2.927  0.00  0.00     0.182 C 
BRANCH  28  33
HETATM   33  C   UNK N   1      27.930  12.686   1.889  0.00  0.00     0.201 C 
BRANCH  33  34
HETATM   34  O   UNK N   1      27.516  11.667   2.750  0.00  0.00    -0.397 OA
HETATM   35  H   UNK N   1      27.830  11.460   3.645  0.00  0.00     0.209 HD
ENDBRANCH  33  34
ENDBRANCH  28  33
BRANCH  30  36
HETATM   36  N   UNK N   1      31.172  15.243   4.464  0.00  0.00    -0.402 N 
HETATM   37  H   UNK N   1      31.659  15.196   3.569  0.00  0.00     0.154 HD
BRANCH  36  38
HETATM   38  C   UNK N   1      31.806  15.705   5.684  0.00  0.00     0.137 C 
HETATM   39  C   UNK N   1      33.078  14.836   5.931  0.00  0.00     0.145 C 
HETATM   40  C   UNK N   1      32.828  13.356   6.131  0.00  0.00     0.042 C 
HETATM   41  O   UNK N   1      33.898  15.322   6.990  0.00  0.00    -0.352 OA
HETATM   42  C   UNK N   1      33.213  16.251   7.814  0.00  0.00     0.292 C 
HETATM   43  C   UNK N   1      32.991  17.558   7.017  0.00  0.00     0.204 C 
HETATM   44  C   UNK N   1      32.311  17.177   5.625  0.00  0.00     0.176 C 
BRANCH  42  45
HETATM   45  O   UNK N   1      33.762  16.250   9.129  0.00  0.00    -0.348 OA
BRANCH  45  46
HETATM   46  C   UNK N   1      34.666  15.124   9.228  0.00  0.00     0.187 C 
HETATM   47  C   UNK N   1      36.037  15.523   9.807  0.00  0.00     0.180 C 
HETATM   48  O   UNK N   1      36.974  14.434   9.796  0.00  0.00    -0.348 OA
HETATM   49  C   UNK N   1      36.531  13.218  10.416  0.00  0.00     0.291 C 
HETATM   50  C   UNK N   1      35.151  12.765   9.884  0.00  0.00     0.204 C 
HETATM   51  C   UNK N   1      34.154  13.886  10.048  0.00  0.00     0.183 C 
BRANCH  47  52
HETATM   52  C   UNK N   1      35.922  16.172  11.186  0.00  0.00     0.198 C 
BRANCH  52  53
HETATM   53  O   UNK N   1      34.938  17.159  11.178  0.00  0.00    -0.398 OA
HETATM   54  H   UNK N   1      34.644  17.559  12.012  0.00  0.00     0.209 HD
ENDBRANCH  52  53
ENDBRANCH  47  52
BRANCH  49  55
HETATM   55  O   UNK N   1      36.617  13.323  11.831  0.00  0.00    -0.356 OA
BRANCH  55  56
HETATM   56  C   UNK N   1      37.134  12.128  12.399  0.00  0.00     0.205 C 
BRANCH  56  57
HETATM   57  C   UNK N   1      36.694  11.827  13.844  0.00  0.00     0.180 C 
HETATM   58  C   UNK N   1      35.570  12.794  14.305  0.00  0.00     0.180 C 
HETATM   59  C   UNK N   1      35.245  12.500  15.775  0.00  0.00     0.183 C 
HETATM   60  C   UNK N   1      34.884  11.016  15.916  0.00  0.00     0.204 C 
HETATM   61  C   UNK N   1      36.024  10.150  15.344  0.00  0.00     0.288 C 
HETATM   62  O   UNK N   1      36.293  10.469  13.985  0.00  0.00    -0.349 OA
BRANCH  58  63
HETATM   63  O   UNK N   1      34.419  12.617  13.531  0.00  0.00    -0.390 OA
HETATM   64  H   UNK N   1      33.838  12.085  12.966  0.00  0.00     0.210 HD
ENDBRANCH  58  63
BRANCH  59  65
HETATM   65  O   UNK N   1      34.187  13.303  16.211  0.00  0.00    -0.390 OA
HETATM   66  H   UNK N   1      33.774  14.054  15.757  0.00  0.00     0.210 HD
ENDBRANCH  59  65
BRANCH  60  67
HETATM   67  O   UNK N   1      34.659  10.697  17.258  0.00  0.00    -0.388 OA
HETATM   68  H   UNK N   1      34.516   9.777  17.527  0.00  0.00     0.210 HD
ENDBRANCH  60  67
BRANCH  61  69
HETATM   69  O   UNK N   1      37.187  10.261  16.118  0.00  0.00    -0.369 OA
HETATM   70  H   UNK N   1      37.637  10.467  16.951  0.00  0.00     0.212 HD
ENDBRANCH  61  69
ENDBRANCH  56  57
ENDBRANCH  55  56
ENDBRANCH  49  55
BRANCH  50  71
HETATM   71  O   UNK N   1      35.262  12.421   8.531  0.00  0.00    -0.388 OA
HETATM   72  H   UNK N   1      35.594  12.194   7.649  0.00  0.00     0.210 HD
ENDBRANCH  50  71
BRANCH  51  73
HETATM   73  O   UNK N   1      33.950  14.203  11.395  0.00  0.00    -0.390 OA
HETATM   74  H   UNK N   1      33.796  14.229  12.352  0.00  0.00     0.210 HD
ENDBRANCH  51  73
ENDBRANCH  45  46
ENDBRANCH  42  45
BRANCH  43  75
HETATM   75  O   UNK N   1      34.191  18.245   6.813  0.00  0.00    -0.388 OA
HETATM   76  H   UNK N   1      34.402  19.154   6.548  0.00  0.00     0.210 HD
ENDBRANCH  43  75
BRANCH  44  77
HETATM   77  O   UNK N   1      33.237  17.299   4.580  0.00  0.00    -0.391 OA
HETATM   78  H   UNK N   1      33.630  17.904   3.931  0.00  0.00     0.210 HD
ENDBRANCH  44  77
ENDBRANCH  36  38
ENDBRANCH  30  36
BRANCH  31  79
HETATM   79  O   UNK N   1      27.808  15.884   5.236  0.00  0.00    -0.391 OA
HETATM   80  H   UNK N   1      27.085  15.267   5.429  0.00  0.00     0.210 HD
ENDBRANCH  31  79
BRANCH  32  81
HETATM   81  O   UNK N   1      30.048  16.545   2.370  0.00  0.00    -0.390 OA
HETATM   82  H   UNK N   1      30.961  16.644   2.679  0.00  0.00     0.210 HD
ENDBRANCH  32  81
ENDBRANCH  26  27
ENDBRANCH  20  26
BRANCH  21  83
HETATM   83  O   UNK N   1      24.192  12.843   2.598  0.00  0.00    -0.388 OA
HETATM   84  H   UNK N   1      24.073  12.088   3.195  0.00  0.00     0.210 HD
ENDBRANCH  21  83
BRANCH  22  85
HETATM   85  O   UNK N   1      21.961  14.200   2.113  0.00  0.00    -0.390 OA
HETATM   86  H   UNK N   1      21.648  13.746   1.314  0.00  0.00     0.210 HD
ENDBRANCH  22  85
ENDBRANCH  16  17
ENDBRANCH   5  16
TORSDOF 33
ENDMDL
MODEL 4
REMARK VINA RESULT:      -7.8      2.387     12.370
REMARK WARNING: 32 MAX_TORS EXCEEDED!!!
REMARK  33 active torsions:
REMARK  status: ('A' for Active; 'I' for Inactive)
REMARK    1  A    between atoms: C_9  and  C_3 
REMARK    2  A    between atoms: O_39  and  C_3 
REMARK    3  A    between atoms: C_11  and  C_4 
REMARK    4  A    between atoms: O_40  and  C_4 
REMARK    5  A    between atoms: C_12  and  C_5 
REMARK    6  A    between atoms: O_41  and  C_5 
REMARK    7  A    between atoms: C_13  and  C_6 
REMARK    8  A    between atoms: O_42  and  C_6 
REMARK    9  A    between atoms: C_14  and  C_7 
REMARK   10  A    between atoms: O_58  and  C_7 
REMARK   11  A    between atoms: C_10  and  N_38 
REMARK   12  A    between atoms: C_15  and  N_38 
REMARK   13  A    between atoms: C_16  and  O_43 
REMARK   14  A    between atoms: C_18  and  O_45 
REMARK   15  A    between atoms: C_19  and  O_46 
REMARK   16  A    between atoms: C_20  and  O_47 
REMARK   17  A    between atoms: C_21  and  O_48 
REMARK   18  A    between atoms: C_22  and  O_49 
REMARK   19  A    between atoms: C_23  and  O_50 
REMARK   20  A    between atoms: C_24  and  O_51 
REMARK   21  A    between atoms: C_25  and  O_52 
REMARK   22  A    between atoms: C_26  and  O_53 
REMARK   23  A    between atoms: C_27  and  O_54 
REMARK   24  A    between atoms: C_28  and  O_55 
REMARK   25  A    between atoms: C_29  and  O_56 
REMARK   26  A    between atoms: C_30  and  O_64 
REMARK   27  A    between atoms: C_31  and  O_65 
REMARK   28  A    between atoms: C_32  and  O_66 
REMARK   29  A    between atoms: C_33  and  O_57 
REMARK   30  A    between atoms: C_34  and  O_58 
REMARK   31  A    between atoms: C_35  and  O_65 
REMARK   32  A    between atoms: C_36  and  O_66 
REMARK   33  A    between atoms: C_37  and  O_64 
ROOT
HETATM    1  C   UNK N   1      34.179  14.376  10.312  0.00  0.00     0.179 C 
HETATM    2  C   UNK N   1      34.719  12.983   9.972  0.00  0.00     0.180 C 
HETATM    3  C   UNK N   1      33.789  12.345   8.924  0.00  0.00     0.183 C 
HETATM    4  C   UNK N   1      33.608  13.297   7.710  0.00  0.00     0.204 C 
HETATM    5  C   UNK N   1      33.111  14.658   8.220  0.00  0.00     0.292 C 
HETATM    6  O   UNK N   1      36.014  13.080   9.455  0.00  0.00    -0.390 OA
HETATM    7  O   UNK N   1      34.105  15.161   9.129  0.00  0.00    -0.348 OA
HETATM    8  H   UNK N   1      36.938  13.023   9.165  0.00  0.00     0.210 HD
ENDROOT
BRANCH   1   9
HETATM    9  C   UNK N   1      35.036  15.090  11.365  0.00  0.00     0.198 C 
BRANCH   9  10
HETATM   10  O   UNK N   1      34.969  16.478  11.237  0.00  0.00    -0.398 OA
HETATM   11  H   UNK N   1      35.039  17.408  10.971  0.00  0.00     0.209 HD
ENDBRANCH   9  10
ENDBRANCH   1   9
BRANCH   3  12
HETATM   12  O   UNK N   1      32.544  12.087   9.511  0.00  0.00    -0.390 OA
HETATM   13  H   UNK N   1      31.604  12.029   9.739  0.00  0.00     0.210 HD
ENDBRANCH   3  12
BRANCH   4  14
HETATM   14  O   UNK N   1      32.691  12.752   6.810  0.00  0.00    -0.388 OA
HETATM   15  H   UNK N   1      31.833  13.097   6.520  0.00  0.00     0.210 HD
ENDBRANCH   4  14
BRANCH   5  16
HETATM   16  O   UNK N   1      32.802  15.571   7.133  0.00  0.00    -0.348 OA
BRANCH  16  17
HETATM   17  C   UNK N   1      31.468  16.063   7.214  0.00  0.00     0.187 C 
HETATM   18  C   UNK N   1      30.753  16.159   5.861  0.00  0.00     0.180 C 
HETATM   19  O   UNK N   1      29.416  16.046   6.232  0.00  0.00    -0.348 OA
HETATM   20  C   UNK N   1      28.855  17.235   6.717  0.00  0.00     0.292 C 
HETATM   21  C   UNK N   1      29.743  17.808   7.896  0.00  0.00     0.204 C 
HETATM   22  C   UNK N   1      31.286  17.518   7.748  0.00  0.00     0.183 C 
BRANCH  18  23
HETATM   23  C   UNK N   1      31.076  15.159   4.740  0.00  0.00     0.198 C 
BRANCH  23  24
HETATM   24  O   UNK N   1      32.445  15.023   4.517  0.00  0.00    -0.398 OA
HETATM   25  H   UNK N   1      32.944  14.193   4.569  0.00  0.00     0.209 HD
ENDBRANCH  23  24
ENDBRANCH  18  23
BRANCH  20  26
HETATM   26  O   UNK N   1      28.536  18.068   5.621  0.00  0.00    -0.346 OA
BRANCH  26  27
HETATM   27  C   UNK N   1      27.101  18.280   5.447  0.00  0.00     0.187 C 
HETATM   28  C   UNK N   1      26.445  17.489   4.308  0.00  0.00    -0.027 C 
HETATM   29  C   UNK N   1      25.641  18.090   3.383  0.00  0.00     0.008 C 
HETATM   30  C   UNK N   1      25.362  19.608   3.247  0.00  0.00     0.132 C 
HETATM   31  C   UNK N   1      26.411  20.385   3.985  0.00  0.00     0.175 C 
HETATM   32  C   UNK N   1      26.593  19.764   5.436  0.00  0.00     0.182 C 
BRANCH  28  33
HETATM   33  C   UNK N   1      26.581  15.992   4.236  0.00  0.00     0.201 C 
BRANCH  33  34
HETATM   34  O   UNK N   1      27.824  15.599   3.732  0.00  0.00    -0.397 OA
HETATM   35  H   UNK N   1      28.297  15.930   2.953  0.00  0.00     0.209 HD
ENDBRANCH  33  34
ENDBRANCH  28  33
BRANCH  30  36
HETATM   36  N   UNK N   1      24.062  20.123   3.720  0.00  0.00    -0.402 N 
HETATM   37  H   UNK N   1      23.976  20.936   4.331  0.00  0.00     0.154 HD
BRANCH  36  38
HETATM   38  C   UNK N   1      22.919  19.371   3.239  0.00  0.00     0.137 C 
HETATM   39  C   UNK N   1      22.007  19.039   4.460  0.00  0.00     0.145 C 
HETATM   40  C   UNK N   1      22.642  18.181   5.535  0.00  0.00     0.042 C 
HETATM   41  O   UNK N   1      20.750  18.478   4.091  0.00  0.00    -0.352 OA
HETATM   42  C   UNK N   1      20.745  18.010   2.753  0.00  0.00     0.292 C 
HETATM   43  C   UNK N   1      20.794  19.225   1.798  0.00  0.00     0.204 C 
HETATM   44  C   UNK N   1      22.013  20.154   2.242  0.00  0.00     0.176 C 
BRANCH  42  45
HETATM   45  O   UNK N   1      19.795  16.960   2.595  0.00  0.00    -0.348 OA
BRANCH  45  46
HETATM   46  C   UNK N   1      20.486  15.705   2.804  0.00  0.00     0.187 C 
HETATM   47  C   UNK N   1      20.877  15.489   4.278  0.00  0.00     0.180 C 
HETATM   48  O   UNK N   1      21.666  14.304   4.468  0.00  0.00    -0.348 OA
HETATM   49  C   UNK N   1      21.112  13.090   3.939  0.00  0.00     0.291 C 
HETATM   50  C   UNK N   1      20.690  13.242   2.459  0.00  0.00     0.204 C 
HETATM   51  C   UNK N   1      19.743  14.409   2.322  0.00  0.00     0.183 C 
BRANCH  47  52
HETATM   52  C   UNK N   1      19.670  15.535   5.215  0.00  0.00     0.198 C 
BRANCH  52  53
HETATM   53  O   UNK N   1      18.722  16.442   4.742  0.00  0.00    -0.398 OA
HETATM   54  H   UNK N   1      18.854  17.394   4.870  0.00  0.00     0.209 HD
ENDBRANCH  52  53
ENDBRANCH  47  52
BRANCH  49  55
HETATM   55  O   UNK N   1      20.095  12.592   4.799  0.00  0.00    -0.356 OA
BRANCH  55  56
HETATM   56  C   UNK N   1      20.575  11.505   5.577  0.00  0.00     0.205 C 
BRANCH  56  57
HETATM   57  C   UNK N   1      21.111  11.868   6.975  0.00  0.00     0.180 C 
HETATM   58  C   UNK N   1      22.622  11.537   7.105  0.00  0.00     0.180 C 
HETATM   59  C   UNK N   1      23.067  11.837   8.542  0.00  0.00     0.183 C 
HETATM   60  C   UNK N   1      22.719  13.293   8.875  0.00  0.00     0.204 C 
HETATM   61  C   UNK N   1      21.218  13.537   8.623  0.00  0.00     0.288 C 
HETATM   62  O   UNK N   1      20.856  13.234   7.282  0.00  0.00    -0.349 OA
BRANCH  58  63
HETATM   63  O   UNK N   1      23.374  12.311   6.216  0.00  0.00    -0.390 OA
HETATM   64  H   UNK N   1      24.189  12.514   5.731  0.00  0.00     0.210 HD
ENDBRANCH  58  63
BRANCH  59  65
HETATM   65  O   UNK N   1      24.440  11.619   8.684  0.00  0.00    -0.390 OA
HETATM   66  H   UNK N   1      24.926  10.782   8.627  0.00  0.00     0.210 HD
ENDBRANCH  59  65
BRANCH  60  67
HETATM   67  O   UNK N   1      23.039  13.576  10.206  0.00  0.00    -0.388 OA
HETATM   68  H   UNK N   1      23.033  14.490  10.530  0.00  0.00     0.210 HD
ENDBRANCH  60  67
BRANCH  61  69
HETATM   69  O   UNK N   1      20.425  12.815   9.525  0.00  0.00    -0.369 OA
HETATM   70  H   UNK N   1      20.326  12.243  10.302  0.00  0.00     0.212 HD
ENDBRANCH  61  69
ENDBRANCH  56  57
ENDBRANCH  55  56
ENDBRANCH  49  55
BRANCH  50  71
HETATM   71  O   UNK N   1      21.825  13.455   1.668  0.00  0.00    -0.388 OA
HETATM   72  H   UNK N   1      22.671  13.362   1.203  0.00  0.00     0.210 HD
ENDBRANCH  50  71
BRANCH  51  73
HETATM   73  O   UNK N   1      18.555  14.197   3.029  0.00  0.00    -0.390 OA
HETATM   74  H   UNK N   1      17.722  13.885   3.415  0.00  0.00     0.210 HD
ENDBRANCH  51  73
ENDBRANCH  45  46
ENDBRANCH  42  45
BRANCH  43  75
HETATM   75  O   UNK N   1      19.592  19.939   1.815  0.00  0.00    -0.388 OA
HETATM   76  H   UNK N   1      18.693  19.722   2.105  0.00  0.00     0.210 HD
ENDBRANCH  43  75
BRANCH  44  77
HETATM   77  O   UNK N   1      21.539  21.313   2.870  0.00  0.00    -0.391 OA
HETATM   78  H   UNK N   1      20.866  21.677   3.466  0.00  0.00     0.210 HD
ENDBRANCH  44  77
ENDBRANCH  36  38
ENDBRANCH  30  36
BRANCH  31  79
HETATM   79  O   UNK N   1      27.514  20.391   3.134  0.00  0.00    -0.391 OA
HETATM   80  H   UNK N   1      27.917  19.986   2.351  0.00  0.00     0.210 HD
ENDBRANCH  31  79
BRANCH  32  81
HETATM   81  O   UNK N   1      25.357  19.826   6.083  0.00  0.00    -0.390 OA
HETATM   82  H   UNK N   1      24.979  19.567   6.937  0.00  0.00     0.210 HD
ENDBRANCH  32  81
ENDBRANCH  26  27
ENDBRANCH  20  26
BRANCH  21  83
HETATM   83  O   UNK N   1      29.330  17.149   9.061  0.00  0.00    -0.388 OA
HETATM   84  H   UNK N   1      29.000  16.511   9.714  0.00  0.00     0.210 HD
ENDBRANCH  21  83
BRANCH  22  85
HETATM   85  O   UNK N   1      31.931  17.682   8.977  0.00  0.00    -0.390 OA
HETATM   86  H   UNK N   1      31.740  18.262   9.731  0.00  0.00     0.210 HD
ENDBRANCH  22  85
ENDBRANCH  16  17
ENDBRANCH   5  16
TORSDOF 33
ENDMDL
MODEL 5
REMARK VINA RESULT:      -7.8      3.414     13.384
REMARK WARNING: 32 MAX_TORS EXCEEDED!!!
REMARK  33 active torsions:
REMARK  status: ('A' for Active; 'I' for Inactive)
REMARK    1  A    between atoms: C_9  and  C_3 
REMARK    2  A    between atoms: O_39  and  C_3 
REMARK    3  A    between atoms: C_11  and  C_4 
REMARK    4  A    between atoms: O_40  and  C_4 
REMARK    5  A    between atoms: C_12  and  C_5 
REMARK    6  A    between atoms: O_41  and  C_5 
REMARK    7  A    between atoms: C_13  and  C_6 
REMARK    8  A    between atoms: O_42  and  C_6 
REMARK    9  A    between atoms: C_14  and  C_7 
REMARK   10  A    between atoms: O_58  and  C_7 
REMARK   11  A    between atoms: C_10  and  N_38 
REMARK   12  A    between atoms: C_15  and  N_38 
REMARK   13  A    between atoms: C_16  and  O_43 
REMARK   14  A    between atoms: C_18  and  O_45 
REMARK   15  A    between atoms: C_19  and  O_46 
REMARK   16  A    between atoms: C_20  and  O_47 
REMARK   17  A    between atoms: C_21  and  O_48 
REMARK   18  A    between atoms: C_22  and  O_49 
REMARK   19  A    between atoms: C_23  and  O_50 
REMARK   20  A    between atoms: C_24  and  O_51 
REMARK   21  A    between atoms: C_25  and  O_52 
REMARK   22  A    between atoms: C_26  and  O_53 
REMARK   23  A    between atoms: C_27  and  O_54 
REMARK   24  A    between atoms: C_28  and  O_55 
REMARK   25  A    between atoms: C_29  and  O_56 
REMARK   26  A    between atoms: C_30  and  O_64 
REMARK   27  A    between atoms: C_31  and  O_65 
REMARK   28  A    between atoms: C_32  and  O_66 
REMARK   29  A    between atoms: C_33  and  O_57 
REMARK   30  A    between atoms: C_34  and  O_58 
REMARK   31  A    between atoms: C_35  and  O_65 
REMARK   32  A    between atoms: C_36  and  O_66 
REMARK   33  A    between atoms: C_37  and  O_64 
ROOT
HETATM    1  C   UNK N   1      35.436  12.706  14.831  0.00  0.00     0.179 C 
HETATM    2  C   UNK N   1      35.368  11.372  15.582  0.00  0.00     0.180 C 
HETATM    3  C   UNK N   1      34.543  10.383  14.738  0.00  0.00     0.183 C 
HETATM    4  C   UNK N   1      35.109  10.300  13.294  0.00  0.00     0.204 C 
HETATM    5  C   UNK N   1      35.158  11.716  12.701  0.00  0.00     0.292 C 
HETATM    6  O   UNK N   1      36.654  10.862  15.779  0.00  0.00    -0.390 OA
HETATM    7  O   UNK N   1      36.013  12.503  13.548  0.00  0.00    -0.348 OA
HETATM    8  H   UNK N   1      37.497  10.460  16.042  0.00  0.00     0.210 HD
ENDROOT
BRANCH   1   9
HETATM    9  C   UNK N   1      36.231  13.766  15.604  0.00  0.00     0.198 C 
BRANCH   9  10
HETATM   10  O   UNK N   1      37.563  13.822  15.190  0.00  0.00    -0.398 OA
HETATM   11  H   UNK N   1      38.403  13.831  14.706  0.00  0.00     0.209 HD
ENDBRANCH   9  10
ENDBRANCH   1   9
BRANCH   3  12
HETATM   12  O   UNK N   1      33.211  10.813  14.699  0.00  0.00    -0.390 OA
HETATM   13  H   UNK N   1      32.331  11.174  14.889  0.00  0.00     0.210 HD
ENDBRANCH   3  12
BRANCH   4  14
HETATM   14  O   UNK N   1      34.300   9.474  12.513  0.00  0.00    -0.388 OA
HETATM   15  H   UNK N   1      33.349   9.297  12.585  0.00  0.00     0.210 HD
ENDBRANCH   4  14
BRANCH   5  16
HETATM   16  O   UNK N   1      35.565  11.712  11.307  0.00  0.00    -0.348 OA
BRANCH  16  17
HETATM   17  C   UNK N   1      35.442  13.000  10.713  0.00  0.00     0.187 C 
HETATM   18  C   UNK N   1      34.699  13.003   9.371  0.00  0.00     0.180 C 
HETATM   19  O   UNK N   1      34.190  14.297   9.325  0.00  0.00    -0.348 OA
HETATM   20  C   UNK N   1      35.119  15.263   8.917  0.00  0.00     0.292 C 
HETATM   21  C   UNK N   1      36.417  15.177   9.821  0.00  0.00     0.204 C 
HETATM   22  C   UNK N   1      36.768  13.722  10.318  0.00  0.00     0.183 C 
BRANCH  18  23
HETATM   23  C   UNK N   1      33.580  11.985   9.102  0.00  0.00     0.198 C 
BRANCH  23  24
HETATM   24  O   UNK N   1      32.308  12.548   9.185  0.00  0.00    -0.398 OA
HETATM   25  H   UNK N   1      31.923  13.167   8.545  0.00  0.00     0.209 HD
ENDBRANCH  23  24
ENDBRANCH  18  23
BRANCH  20  26
HETATM   26  O   UNK N   1      35.248  15.207   7.511  0.00  0.00    -0.346 OA
BRANCH  26  27
HETATM   27  C   UNK N   1      34.420  16.185   6.810  0.00  0.00     0.187 C 
HETATM   28  C   UNK N   1      33.729  17.229   7.696  0.00  0.00    -0.027 C 
HETATM   29  C   UNK N   1      32.395  17.497   7.589  0.00  0.00     0.008 C 
HETATM   30  C   UNK N   1      31.372  16.752   6.695  0.00  0.00     0.132 C 
HETATM   31  C   UNK N   1      31.932  15.426   6.277  0.00  0.00     0.175 C 
HETATM   32  C   UNK N   1      33.414  15.635   5.740  0.00  0.00     0.182 C 
BRANCH  28  33
HETATM   33  C   UNK N   1      34.529  18.077   8.648  0.00  0.00     0.201 C 
BRANCH  33  34
HETATM   34  O   UNK N   1      35.312  19.024   7.983  0.00  0.00    -0.397 OA
HETATM   35  H   UNK N   1      36.140  18.894   7.494  0.00  0.00     0.209 HD
ENDBRANCH  33  34
ENDBRANCH  28  33
BRANCH  30  36
HETATM   36  N   UNK N   1      30.917  17.413   5.457  0.00  0.00    -0.402 N 
HETATM   37  H   UNK N   1      31.371  18.240   5.070  0.00  0.00     0.154 HD
BRANCH  36  38
HETATM   38  C   UNK N   1      29.766  16.782   4.839  0.00  0.00     0.137 C 
HETATM   39  C   UNK N   1      28.808  17.905   4.335  0.00  0.00     0.145 C 
HETATM   40  C   UNK N   1      28.251  18.818   5.408  0.00  0.00     0.042 C 
HETATM   41  O   UNK N   1      27.738  17.417   3.530  0.00  0.00    -0.352 OA
HETATM   42  C   UNK N   1      27.565  16.016   3.663  0.00  0.00     0.292 C 
HETATM   43  C   UNK N   1      28.761  15.298   2.994  0.00  0.00     0.204 C 
HETATM   44  C   UNK N   1      30.104  15.926   3.581  0.00  0.00     0.176 C 
BRANCH  42  45
HETATM   45  O   UNK N   1      26.214  15.653   3.391  0.00  0.00    -0.348 OA
BRANCH  45  46
HETATM   46  C   UNK N   1      25.918  14.457   4.150  0.00  0.00     0.187 C 
HETATM   47  C   UNK N   1      26.502  14.508   5.575  0.00  0.00     0.180 C 
HETATM   48  O   UNK N   1      26.314  13.276   6.290  0.00  0.00    -0.348 OA
HETATM   49  C   UNK N   1      24.967  12.782   6.344  0.00  0.00     0.291 C 
HETATM   50  C   UNK N   1      24.317  12.714   4.942  0.00  0.00     0.204 C 
HETATM   51  C   UNK N   1      24.403  14.067   4.280  0.00  0.00     0.183 C 
BRANCH  47  52
HETATM   52  C   UNK N   1      26.005  15.717   6.367  0.00  0.00     0.198 C 
BRANCH  52  53
HETATM   53  O   UNK N   1      26.624  15.768   7.615  0.00  0.00    -0.398 OA
HETATM   54  H   UNK N   1      26.504  16.544   8.186  0.00  0.00     0.209 HD
ENDBRANCH  52  53
ENDBRANCH  47  52
BRANCH  49  55
HETATM   55  O   UNK N   1      24.214  13.501   7.314  0.00  0.00    -0.356 OA
BRANCH  55  56
HETATM   56  C   UNK N   1      24.690  13.233   8.625  0.00  0.00     0.205 C 
BRANCH  56  57
HETATM   57  C   UNK N   1      23.609  13.087   9.713  0.00  0.00     0.180 C 
HETATM   58  C   UNK N   1      22.204  13.454   9.166  0.00  0.00     0.180 C 
HETATM   59  C   UNK N   1      21.194  13.375  10.319  0.00  0.00     0.183 C 
HETATM   60  C   UNK N   1      21.270  11.979  10.948  0.00  0.00     0.204 C 
HETATM   61  C   UNK N   1      22.722  11.679  11.370  0.00  0.00     0.288 C 
HETATM   62  O   UNK N   1      23.617  11.777  10.269  0.00  0.00    -0.349 OA
BRANCH  58  63
HETATM   63  O   UNK N   1      21.822  12.569   8.153  0.00  0.00    -0.390 OA
HETATM   64  H   UNK N   1      21.167  12.185   7.550  0.00  0.00     0.210 HD
ENDBRANCH  58  63
BRANCH  59  65
HETATM   65  O   UNK N   1      19.902  13.631   9.854  0.00  0.00    -0.390 OA
HETATM   66  H   UNK N   1      19.095  13.114  10.002  0.00  0.00     0.210 HD
ENDBRANCH  59  65
BRANCH  60  67
HETATM   67  O   UNK N   1      20.418  11.898  12.054  0.00  0.00    -0.388 OA
HETATM   68  H   UNK N   1      20.083  11.040  12.355  0.00  0.00     0.210 HD
ENDBRANCH  60  67
BRANCH  61  69
HETATM   69  O   UNK N   1      23.133  12.514  12.417  0.00  0.00    -0.369 OA
HETATM   70  H   UNK N   1      22.941  13.050  13.202  0.00  0.00     0.212 HD
ENDBRANCH  61  69
ENDBRANCH  56  57
ENDBRANCH  55  56
ENDBRANCH  49  55
BRANCH  50  71
HETATM   71  O   UNK N   1      24.983  11.760   4.165  0.00  0.00    -0.388 OA
HETATM   72  H   UNK N   1      25.656  11.216   3.726  0.00  0.00     0.210 HD
ENDBRANCH  50  71
BRANCH  51  73
HETATM   73  O   UNK N   1      23.676  15.034   4.982  0.00  0.00    -0.390 OA
HETATM   74  H   UNK N   1      23.233  15.825   5.327  0.00  0.00     0.210 HD
ENDBRANCH  51  73
ENDBRANCH  45  46
ENDBRANCH  42  45
BRANCH  43  75
HETATM   75  O   UNK N   1      28.719  15.422   1.603  0.00  0.00    -0.388 OA
HETATM   76  H   UNK N   1      28.074  15.803   0.987  0.00  0.00     0.210 HD
ENDBRANCH  43  75
BRANCH  44  77
HETATM   77  O   UNK N   1      30.718  16.745   2.625  0.00  0.00    -0.391 OA
HETATM   78  H   UNK N   1      31.557  16.977   2.196  0.00  0.00     0.210 HD
ENDBRANCH  44  77
ENDBRANCH  36  38
ENDBRANCH  30  36
BRANCH  31  79
HETATM   79  O   UNK N   1      31.749  14.597   7.382  0.00  0.00    -0.391 OA
HETATM   80  H   UNK N   1      31.868  13.701   7.733  0.00  0.00     0.210 HD
ENDBRANCH  31  79
BRANCH  32  81
HETATM   81  O   UNK N   1      33.355  16.529   4.669  0.00  0.00    -0.390 OA
HETATM   82  H   UNK N   1      33.029  16.537   3.756  0.00  0.00     0.210 HD
ENDBRANCH  32  81
ENDBRANCH  26  27
ENDBRANCH  20  26
BRANCH  21  83
HETATM   83  O   UNK N   1      36.151  15.932  10.971  0.00  0.00    -0.388 OA
HETATM   84  H   UNK N   1      35.738  16.394  11.717  0.00  0.00     0.210 HD
ENDBRANCH  21  83
BRANCH  22  85
HETATM   85  O   UNK N   1      37.646  13.779  11.403  0.00  0.00    -0.390 OA
HETATM   86  H   UNK N   1      37.542  14.140  12.298  0.00  0.00     0.210 HD
ENDBRANCH  22  85
ENDBRANCH  16  17
ENDBRANCH   5  16
TORSDOF 33
ENDMDL
MODEL 6
REMARK VINA RESULT:      -7.7      1.957     14.423
REMARK WARNING: 32 MAX_TORS EXCEEDED!!!
REMARK  33 active torsions:
REMARK  status: ('A' for Active; 'I' for Inactive)
REMARK    1  A    between atoms: C_9  and  C_3 
REMARK    2  A    between atoms: O_39  and  C_3 
REMARK    3  A    between atoms: C_11  and  C_4 
REMARK    4  A    between atoms: O_40  and  C_4 
REMARK    5  A    between atoms: C_12  and  C_5 
REMARK    6  A    between atoms: O_41  and  C_5 
REMARK    7  A    between atoms: C_13  and  C_6 
REMARK    8  A    between atoms: O_42  and  C_6 
REMARK    9  A    between atoms: C_14  and  C_7 
REMARK   10  A    between atoms: O_58  and  C_7 
REMARK   11  A    between atoms: C_10  and  N_38 
REMARK   12  A    between atoms: C_15  and  N_38 
REMARK   13  A    between atoms: C_16  and  O_43 
REMARK   14  A    between atoms: C_18  and  O_45 
REMARK   15  A    between atoms: C_19  and  O_46 
REMARK   16  A    between atoms: C_20  and  O_47 
REMARK   17  A    between atoms: C_21  and  O_48 
REMARK   18  A    between atoms: C_22  and  O_49 
REMARK   19  A    between atoms: C_23  and  O_50 
REMARK   20  A    between atoms: C_24  and  O_51 
REMARK   21  A    between atoms: C_25  and  O_52 
REMARK   22  A    between atoms: C_26  and  O_53 
REMARK   23  A    between atoms: C_27  and  O_54 
REMARK   24  A    between atoms: C_28  and  O_55 
REMARK   25  A    between atoms: C_29  and  O_56 
REMARK   26  A    between atoms: C_30  and  O_64 
REMARK   27  A    between atoms: C_31  and  O_65 
REMARK   28  A    between atoms: C_32  and  O_66 
REMARK   29  A    between atoms: C_33  and  O_57 
REMARK   30  A    between atoms: C_34  and  O_58 
REMARK   31  A    between atoms: C_35  and  O_65 
REMARK   32  A    between atoms: C_36  and  O_66 
REMARK   33  A    between atoms: C_37  and  O_64 
ROOT
HETATM    1  C   UNK N   1      35.996  10.159  12.172  0.00  0.00     0.179 C 
HETATM    2  C   UNK N   1      35.255  10.419  13.488  0.00  0.00     0.180 C 
HETATM    3  C   UNK N   1      36.055  11.455  14.298  0.00  0.00     0.183 C 
HETATM    4  C   UNK N   1      36.335  12.717  13.437  0.00  0.00     0.204 C 
HETATM    5  C   UNK N   1      37.034  12.284  12.140  0.00  0.00     0.292 C 
HETATM    6  O   UNK N   1      33.972  10.912  13.231  0.00  0.00    -0.390 OA
HETATM    7  O   UNK N   1      36.146  11.380  11.459  0.00  0.00    -0.348 OA
HETATM    8  H   UNK N   1      33.042  11.179  13.168  0.00  0.00     0.210 HD
ENDROOT
BRANCH   1   9
HETATM    9  C   UNK N   1      35.278   9.124  11.297  0.00  0.00     0.198 C 
BRANCH   9  10
HETATM   10  O   UNK N   1      34.247   9.698  10.551  0.00  0.00    -0.398 OA
HETATM   11  H   UNK N   1      33.610  10.281  10.112  0.00  0.00     0.209 HD
ENDBRANCH   9  10
ENDBRANCH   1   9
BRANCH   3  12
HETATM   12  O   UNK N   1      37.267  10.882  14.704  0.00  0.00    -0.390 OA
HETATM   13  H   UNK N   1      38.099  10.389  14.778  0.00  0.00     0.210 HD
ENDBRANCH   3  12
BRANCH   4  14
HETATM   14  O   UNK N   1      37.139  13.609  14.148  0.00  0.00    -0.388 OA
HETATM   15  H   UNK N   1      37.270  13.691  15.105  0.00  0.00     0.210 HD
ENDBRANCH   4  14
BRANCH   5  16
HETATM   16  O   UNK N   1      37.437  13.421  11.330  0.00  0.00    -0.348 OA
BRANCH  16  17
HETATM   17  C   UNK N   1      36.341  13.982  10.616  0.00  0.00     0.187 C 
HETATM   18  C   UNK N   1      36.532  14.010   9.095  0.00  0.00     0.180 C 
HETATM   19  O   UNK N   1      35.217  13.991   8.637  0.00  0.00    -0.348 OA
HETATM   20  C   UNK N   1      34.582  15.239   8.673  0.00  0.00     0.292 C 
HETATM   21  C   UNK N   1      34.686  15.855  10.128  0.00  0.00     0.204 C 
HETATM   22  C   UNK N   1      36.009  15.480  10.900  0.00  0.00     0.183 C 
BRANCH  18  23
HETATM   23  C   UNK N   1      37.350  12.914   8.396  0.00  0.00     0.198 C 
BRANCH  23  24
HETATM   24  O   UNK N   1      36.978  11.630   8.788  0.00  0.00    -0.398 OA
HETATM   25  H   UNK N   1      36.110  11.224   8.638  0.00  0.00     0.209 HD
ENDBRANCH  23  24
ENDBRANCH  18  23
BRANCH  20  26
HETATM   26  O   UNK N   1      35.013  16.002   7.564  0.00  0.00    -0.346 OA
BRANCH  26  27
HETATM   27  C   UNK N   1      33.997  16.145   6.524  0.00  0.00     0.187 C 
HETATM   28  C   UNK N   1      32.607  16.579   7.006  0.00  0.00    -0.027 C 
HETATM   29  C   UNK N   1      31.474  15.915   6.636  0.00  0.00     0.008 C 
HETATM   30  C   UNK N   1      31.399  14.603   5.813  0.00  0.00     0.132 C 
HETATM   31  C   UNK N   1      32.731  13.917   5.829  0.00  0.00     0.175 C 
HETATM   32  C   UNK N   1      33.866  14.975   5.486  0.00  0.00     0.182 C 
BRANCH  28  33
HETATM   33  C   UNK N   1      32.437  17.830   7.826  0.00  0.00     0.201 C 
BRANCH  33  34
HETATM   34  O   UNK N   1      33.624  18.559   7.931  0.00  0.00    -0.397 OA
HETATM   35  H   UNK N   1      33.746  19.499   8.136  0.00  0.00     0.209 HD
ENDBRANCH  33  34
ENDBRANCH  28  33
BRANCH  30  36
HETATM   36  N   UNK N   1      31.001  14.693   4.395  0.00  0.00    -0.402 N 
HETATM   37  H   UNK N   1      31.611  15.072   3.670  0.00  0.00     0.154 HD
BRANCH  36  38
HETATM   38  C   UNK N   1      29.667  14.193   4.123  0.00  0.00     0.137 C 
HETATM   39  C   UNK N   1      28.966  15.186   3.145  0.00  0.00     0.145 C 
HETATM   40  C   UNK N   1      28.780  16.595   3.668  0.00  0.00     0.042 C 
HETATM   41  O   UNK N   1      27.723  14.702   2.642  0.00  0.00    -0.352 OA
HETATM   42  C   UNK N   1      27.225  13.616   3.405  0.00  0.00     0.292 C 
HETATM   43  C   UNK N   1      28.120  12.379   3.158  0.00  0.00     0.204 C 
HETATM   44  C   UNK N   1      29.636  12.809   3.407  0.00  0.00     0.176 C 
BRANCH  42  45
HETATM   45  O   UNK N   1      25.805  13.553   3.313  0.00  0.00    -0.348 OA
BRANCH  45  46
HETATM   46  C   UNK N   1      25.263  14.617   4.132  0.00  0.00     0.187 C 
HETATM   47  C   UNK N   1      24.532  15.685   3.296  0.00  0.00     0.180 C 
HETATM   48  O   UNK N   1      24.097  16.800   4.090  0.00  0.00    -0.348 OA
HETATM   49  C   UNK N   1      23.309  16.478   5.246  0.00  0.00     0.291 C 
HETATM   50  C   UNK N   1      23.985  15.401   6.127  0.00  0.00     0.204 C 
HETATM   51  C   UNK N   1      24.293  14.185   5.289  0.00  0.00     0.183 C 
BRANCH  47  52
HETATM   52  C   UNK N   1      23.397  15.095   2.458  0.00  0.00     0.198 C 
BRANCH  52  53
HETATM   53  O   UNK N   1      23.912  14.362   1.390  0.00  0.00    -0.398 OA
HETATM   54  H   UNK N   1      23.973  13.396   1.449  0.00  0.00     0.209 HD
ENDBRANCH  52  53
ENDBRANCH  47  52
BRANCH  49  55
HETATM   55  O   UNK N   1      21.971  16.182   4.867  0.00  0.00    -0.356 OA
BRANCH  55  56
HETATM   56  C   UNK N   1      21.108  17.271   5.162  0.00  0.00     0.205 C 
BRANCH  56  57
HETATM   57  C   UNK N   1      20.672  18.125   3.956  0.00  0.00     0.180 C 
HETATM   58  C   UNK N   1      21.459  19.462   3.897  0.00  0.00     0.180 C 
HETATM   59  C   UNK N   1      20.915  20.298   2.731  0.00  0.00     0.183 C 
HETATM   60  C   UNK N   1      21.001  19.470   1.444  0.00  0.00     0.204 C 
HETATM   61  C   UNK N   1      20.269  18.127   1.642  0.00  0.00     0.288 C 
HETATM   62  O   UNK N   1      20.804  17.398   2.740  0.00  0.00    -0.349 OA
BRANCH  58  63
HETATM   63  O   UNK N   1      22.823  19.223   3.699  0.00  0.00    -0.390 OA
HETATM   64  H   UNK N   1      23.655  19.346   3.218  0.00  0.00     0.210 HD
ENDBRANCH  58  63
BRANCH  59  65
HETATM   65  O   UNK N   1      21.644  21.483   2.599  0.00  0.00    -0.390 OA
HETATM   66  H   UNK N   1      21.631  22.266   3.170  0.00  0.00     0.210 HD
ENDBRANCH  59  65
BRANCH  60  67
HETATM   67  O   UNK N   1      20.439  20.174   0.375  0.00  0.00    -0.388 OA
HETATM   68  H   UNK N   1      20.090  19.702  -0.396  0.00  0.00     0.210 HD
ENDBRANCH  60  67
BRANCH  61  69
HETATM   69  O   UNK N   1      18.890  18.316   1.799  0.00  0.00    -0.369 OA
HETATM   70  H   UNK N   1      17.977  17.992   1.755  0.00  0.00     0.212 HD
ENDBRANCH  61  69
ENDBRANCH  56  57
ENDBRANCH  55  56
ENDBRANCH  49  55
BRANCH  50  71
HETATM   71  O   UNK N   1      25.167  15.917   6.671  0.00  0.00    -0.388 OA
HETATM   72  H   UNK N   1      26.086  16.189   6.821  0.00  0.00     0.210 HD
ENDBRANCH  50  71
BRANCH  51  73
HETATM   73  O   UNK N   1      23.129  13.587   4.796  0.00  0.00    -0.390 OA
HETATM   74  H   UNK N   1      22.445  13.047   4.369  0.00  0.00     0.210 HD
ENDBRANCH  51  73
ENDBRANCH  45  46
ENDBRANCH  42  45
BRANCH  43  75
HETATM   75  O   UNK N   1      27.952  11.873   1.866  0.00  0.00    -0.388 OA
HETATM   76  H   UNK N   1      27.176  11.740   1.299  0.00  0.00     0.210 HD
ENDBRANCH  43  75
BRANCH  44  77
HETATM   77  O   UNK N   1      30.320  12.911   2.189  0.00  0.00    -0.391 OA
HETATM   78  H   UNK N   1      30.353  12.611   1.267  0.00  0.00     0.210 HD
ENDBRANCH  44  77
ENDBRANCH  36  38
ENDBRANCH  30  36
BRANCH  31  79
HETATM   79  O   UNK N   1      32.787  13.276   7.065  0.00  0.00    -0.391 OA
HETATM   80  H   UNK N   1      32.451  13.271   7.975  0.00  0.00     0.210 HD
ENDBRANCH  31  79
BRANCH  32  81
HETATM   81  O   UNK N   1      33.580  15.513   4.230  0.00  0.00    -0.390 OA
HETATM   82  H   UNK N   1      33.018  16.208   3.857  0.00  0.00     0.210 HD
ENDBRANCH  32  81
ENDBRANCH  26  27
ENDBRANCH  20  26
BRANCH  21  83
HETATM   83  O   UNK N   1      33.630  15.307  10.869  0.00  0.00    -0.388 OA
HETATM   84  H   UNK N   1      33.036  14.995  11.569  0.00  0.00     0.210 HD
ENDBRANCH  21  83
BRANCH  22  85
HETATM   85  O   UNK N   1      35.852  15.704  12.270  0.00  0.00    -0.390 OA
HETATM   86  H   UNK N   1      36.432  15.514  13.024  0.00  0.00     0.210 HD
ENDBRANCH  22  85
ENDBRANCH  16  17
ENDBRANCH   5  16
TORSDOF 33
ENDMDL
MODEL 7
REMARK VINA RESULT:      -7.7      2.848      6.640
REMARK WARNING: 32 MAX_TORS EXCEEDED!!!
REMARK  33 active torsions:
REMARK  status: ('A' for Active; 'I' for Inactive)
REMARK    1  A    between atoms: C_9  and  C_3 
REMARK    2  A    between atoms: O_39  and  C_3 
REMARK    3  A    between atoms: C_11  and  C_4 
REMARK    4  A    between atoms: O_40  and  C_4 
REMARK    5  A    between atoms: C_12  and  C_5 
REMARK    6  A    between atoms: O_41  and  C_5 
REMARK    7  A    between atoms: C_13  and  C_6 
REMARK    8  A    between atoms: O_42  and  C_6 
REMARK    9  A    between atoms: C_14  and  C_7 
REMARK   10  A    between atoms: O_58  and  C_7 
REMARK   11  A    between atoms: C_10  and  N_38 
REMARK   12  A    between atoms: C_15  and  N_38 
REMARK   13  A    between atoms: C_16  and  O_43 
REMARK   14  A    between atoms: C_18  and  O_45 
REMARK   15  A    between atoms: C_19  and  O_46 
REMARK   16  A    between atoms: C_20  and  O_47 
REMARK   17  A    between atoms: C_21  and  O_48 
REMARK   18  A    between atoms: C_22  and  O_49 
REMARK   19  A    between atoms: C_23  and  O_50 
REMARK   20  A    between atoms: C_24  and  O_51 
REMARK   21  A    between atoms: C_25  and  O_52 
REMARK   22  A    between atoms: C_26  and  O_53 
REMARK   23  A    between atoms: C_27  and  O_54 
REMARK   24  A    between atoms: C_28  and  O_55 
REMARK   25  A    between atoms: C_29  and  O_56 
REMARK   26  A    between atoms: C_30  and  O_64 
REMARK   27  A    between atoms: C_31  and  O_65 
REMARK   28  A    between atoms: C_32  and  O_66 
REMARK   29  A    between atoms: C_33  and  O_57 
REMARK   30  A    between atoms: C_34  and  O_58 
REMARK   31  A    between atoms: C_35  and  O_65 
REMARK   32  A    between atoms: C_36  and  O_66 
REMARK   33  A    between atoms: C_37  and  O_64 
ROOT
HETATM    1  C   UNK N   1      21.778  17.473   4.314  0.00  0.00     0.179 C 
HETATM    2  C   UNK N   1      20.738  18.048   3.347  0.00  0.00     0.180 C 
HETATM    3  C   UNK N   1      20.979  19.564   3.222  0.00  0.00     0.183 C 
HETATM    4  C   UNK N   1      22.459  19.848   2.846  0.00  0.00     0.204 C 
HETATM    5  C   UNK N   1      23.370  19.167   3.878  0.00  0.00     0.292 C 
HETATM    6  O   UNK N   1      20.862  17.448   2.091  0.00  0.00    -0.390 OA
HETATM    7  O   UNK N   1      23.086  17.758   3.834  0.00  0.00    -0.348 OA
HETATM    8  H   UNK N   1      20.804  17.042   1.211  0.00  0.00     0.210 HD
ENDROOT
BRANCH   1   9
HETATM    9  C   UNK N   1      21.609  15.962   4.515  0.00  0.00     0.198 C 
BRANCH   9  10
HETATM   10  O   UNK N   1      20.434  15.487   3.930  0.00  0.00    -0.398 OA
HETATM   11  H   UNK N   1      19.745  15.001   3.451  0.00  0.00     0.209 HD
ENDBRANCH   9  10
ENDBRANCH   1   9
BRANCH   3  12
HETATM   12  O   UNK N   1      20.676  20.179   4.443  0.00  0.00    -0.390 OA
HETATM   13  H   UNK N   1      20.661  20.719   5.248  0.00  0.00     0.210 HD
ENDBRANCH   3  12
BRANCH   4  14
HETATM   14  O   UNK N   1      22.689  21.224   2.826  0.00  0.00    -0.388 OA
HETATM   15  H   UNK N   1      22.075  21.953   2.999  0.00  0.00     0.210 HD
ENDBRANCH   4  14
BRANCH   5  16
HETATM   16  O   UNK N   1      24.771  19.484   3.665  0.00  0.00    -0.348 OA
BRANCH  16  17
HETATM   17  C   UNK N   1      25.631  18.618   4.398  0.00  0.00     0.187 C 
HETATM   18  C   UNK N   1      26.749  19.340   5.159  0.00  0.00     0.180 C 
HETATM   19  O   UNK N   1      27.012  18.453   6.199  0.00  0.00    -0.348 OA
HETATM   20  C   UNK N   1      27.829  17.375   5.838  0.00  0.00     0.292 C 
HETATM   21  C   UNK N   1      27.219  16.635   4.578  0.00  0.00     0.204 C 
HETATM   22  C   UNK N   1      26.456  17.582   3.574  0.00  0.00     0.183 C 
BRANCH  18  23
HETATM   23  C   UNK N   1      26.520  20.754   5.716  0.00  0.00     0.198 C 
BRANCH  23  24
HETATM   24  O   UNK N   1      26.083  20.748   7.039  0.00  0.00    -0.398 OA
HETATM   25  H   UNK N   1      25.185  20.962   7.337  0.00  0.00     0.209 HD
ENDBRANCH  23  24
ENDBRANCH  18  23
BRANCH  20  26
HETATM   26  O   UNK N   1      29.172  17.813   5.801  0.00  0.00    -0.346 OA
BRANCH  26  27
HETATM   27  C   UNK N   1      30.140  16.751   6.061  0.00  0.00     0.187 C 
HETATM   28  C   UNK N   1      31.231  17.080   7.088  0.00  0.00    -0.027 C 
HETATM   29  C   UNK N   1      32.554  16.866   6.830  0.00  0.00     0.008 C 
HETATM   30  C   UNK N   1      33.169  16.397   5.487  0.00  0.00     0.132 C 
HETATM   31  C   UNK N   1      32.187  16.612   4.376  0.00  0.00     0.175 C 
HETATM   32  C   UNK N   1      30.771  16.037   4.815  0.00  0.00     0.182 C 
BRANCH  28  33
HETATM   33  C   UNK N   1      30.865  17.556   8.469  0.00  0.00     0.201 C 
BRANCH  33  34
HETATM   34  O   UNK N   1      31.092  16.580   9.442  0.00  0.00    -0.397 OA
HETATM   35  H   UNK N   1      30.634  15.735   9.576  0.00  0.00     0.209 HD
ENDBRANCH  33  34
ENDBRANCH  28  33
BRANCH  30  36
HETATM   36  N   UNK N   1      33.613  14.994   5.377  0.00  0.00    -0.402 N 
HETATM   37  H   UNK N   1      33.200  14.331   4.720  0.00  0.00     0.154 HD
BRANCH  36  38
HETATM   38  C   UNK N   1      34.689  14.641   6.284  0.00  0.00     0.137 C 
HETATM   39  C   UNK N   1      34.308  13.305   6.993  0.00  0.00     0.145 C 
HETATM   40  C   UNK N   1      33.053  13.350   7.839  0.00  0.00     0.042 C 
HETATM   41  O   UNK N   1      35.374  12.748   7.758  0.00  0.00    -0.352 OA
HETATM   42  C   UNK N   1      36.403  13.691   8.007  0.00  0.00     0.292 C 
HETATM   43  C   UNK N   1      37.143  13.985   6.681  0.00  0.00     0.204 C 
HETATM   44  C   UNK N   1      36.053  14.368   5.582  0.00  0.00     0.176 C 
BRANCH  42  45
HETATM   45  O   UNK N   1      37.099  13.364   9.207  0.00  0.00    -0.348 OA
BRANCH  45  46
HETATM   46  C   UNK N   1      36.115  13.197  10.255  0.00  0.00     0.187 C 
HETATM   47  C   UNK N   1      36.091  11.762  10.814  0.00  0.00     0.180 C 
HETATM   48  O   UNK N   1      35.037  11.562  11.769  0.00  0.00    -0.348 OA
HETATM   49  C   UNK N   1      34.990  12.498  12.857  0.00  0.00     0.291 C 
HETATM   50  C   UNK N   1      35.020  13.963  12.364  0.00  0.00     0.204 C 
HETATM   51  C   UNK N   1      36.225  14.173  11.480  0.00  0.00     0.183 C 
BRANCH  47  52
HETATM   52  C   UNK N   1      37.452  11.323  11.356  0.00  0.00     0.198 C 
BRANCH  52  53
HETATM   53  O   UNK N   1      37.341  10.097  12.011  0.00  0.00    -0.398 OA
HETATM   54  H   UNK N   1      36.473   9.782  12.309  0.00  0.00     0.209 HD
ENDBRANCH  52  53
ENDBRANCH  47  52
BRANCH  49  55
HETATM   55  O   UNK N   1      35.978  12.177  13.829  0.00  0.00    -0.356 OA
BRANCH  55  56
HETATM   56  C   UNK N   1      35.471  11.257  14.784  0.00  0.00     0.205 C 
BRANCH  56  57
HETATM   57  C   UNK N   1      35.700  11.630  16.261  0.00  0.00     0.180 C 
HETATM   58  C   UNK N   1      35.455  13.143  16.506  0.00  0.00     0.180 C 
HETATM   59  C   UNK N   1      35.788  13.461  17.970  0.00  0.00     0.183 C 
HETATM   60  C   UNK N   1      34.959  12.544  18.877  0.00  0.00     0.204 C 
HETATM   61  C   UNK N   1      35.205  11.072  18.488  0.00  0.00     0.288 C 
HETATM   62  O   UNK N   1      34.893  10.834  17.121  0.00  0.00    -0.349 OA
BRANCH  58  63
HETATM   63  O   UNK N   1      34.121  13.474  16.250  0.00  0.00    -0.390 OA
HETATM   64  H   UNK N   1      33.185  13.246  16.147  0.00  0.00     0.210 HD
ENDBRANCH  58  63
BRANCH  59  65
HETATM   65  O   UNK N   1      35.514  14.803  18.251  0.00  0.00    -0.390 OA
HETATM   66  H   UNK N   1      36.000  15.408  18.832  0.00  0.00     0.210 HD
ENDBRANCH  59  65
BRANCH  60  67
HETATM   67  O   UNK N   1      35.297  12.753  20.217  0.00  0.00    -0.388 OA
HETATM   68  H   UNK N   1      34.712  12.444  20.926  0.00  0.00     0.210 HD
ENDBRANCH  60  67
BRANCH  61  69
HETATM   69  O   UNK N   1      36.521  10.683  18.770  0.00  0.00    -0.369 OA
HETATM   70  H   UNK N   1      37.309  10.695  19.335  0.00  0.00     0.212 HD
ENDBRANCH  61  69
ENDBRANCH  56  57
ENDBRANCH  55  56
ENDBRANCH  49  55
BRANCH  50  71
HETATM   71  O   UNK N   1      33.850  14.238  11.646  0.00  0.00    -0.388 OA
HETATM   72  H   UNK N   1      33.209  14.458  10.952  0.00  0.00     0.210 HD
ENDBRANCH  50  71
BRANCH  51  73
HETATM   73  O   UNK N   1      37.421  13.992  12.184  0.00  0.00    -0.390 OA
HETATM   74  H   UNK N   1      38.158  13.965  12.814  0.00  0.00     0.210 HD
ENDBRANCH  51  73
ENDBRANCH  45  46
ENDBRANCH  42  45
BRANCH  43  75
HETATM   75  O   UNK N   1      37.905  12.889   6.266  0.00  0.00    -0.388 OA
HETATM   76  H   UNK N   1      38.514  12.289   6.724  0.00  0.00     0.210 HD
ENDBRANCH  43  75
BRANCH  44  77
HETATM   77  O   UNK N   1      35.893  13.320   4.667  0.00  0.00    -0.391 OA
HETATM   78  H   UNK N   1      35.723  13.092   3.739  0.00  0.00     0.210 HD
ENDBRANCH  44  77
ENDBRANCH  36  38
ENDBRANCH  30  36
BRANCH  31  79
HETATM   79  O   UNK N   1      32.276  17.970   4.078  0.00  0.00    -0.391 OA
HETATM   80  H   UNK N   1      32.572  18.837   4.397  0.00  0.00     0.210 HD
ENDBRANCH  31  79
BRANCH  32  81
HETATM   81  O   UNK N   1      30.934  14.680   5.102  0.00  0.00    -0.390 OA
HETATM   82  H   UNK N   1      31.062  13.853   4.615  0.00  0.00     0.210 HD
ENDBRANCH  32  81
ENDBRANCH  26  27
ENDBRANCH  20  26
BRANCH  21  83
HETATM   83  O   UNK N   1      26.264  15.734   5.069  0.00  0.00    -0.388 OA
HETATM   84  H   UNK N   1      25.462  15.307   5.408  0.00  0.00     0.210 HD
ENDBRANCH  21  83
BRANCH  22  85
HETATM   85  O   UNK N   1      25.624  16.834   2.738  0.00  0.00    -0.390 OA
HETATM   86  H   UNK N   1      25.557  15.877   2.584  0.00  0.00     0.210 HD
ENDBRANCH  22  85
ENDBRANCH  16  17
ENDBRANCH   5  16
TORSDOF 33
ENDMDL
MODEL 8
REMARK VINA RESULT:      -7.7      1.404      2.058
REMARK WARNING: 32 MAX_TORS EXCEEDED!!!
REMARK  33 active torsions:
REMARK  status: ('A' for Active; 'I' for Inactive)
REMARK    1  A    between atoms: C_9  and  C_3 
REMARK    2  A    between atoms: O_39  and  C_3 
REMARK    3  A    between atoms: C_11  and  C_4 
REMARK    4  A    between atoms: O_40  and  C_4 
REMARK    5  A    between atoms: C_12  and  C_5 
REMARK    6  A    between atoms: O_41  and  C_5 
REMARK    7  A    between atoms: C_13  and  C_6 
REMARK    8  A    between atoms: O_42  and  C_6 
REMARK    9  A    between atoms: C_14  and  C_7 
REMARK   10  A    between atoms: O_58  and  C_7 
REMARK   11  A    between atoms: C_10  and  N_38 
REMARK   12  A    between atoms: C_15  and  N_38 
REMARK   13  A    between atoms: C_16  and  O_43 
REMARK   14  A    between atoms: C_18  and  O_45 
REMARK   15  A    between atoms: C_19  and  O_46 
REMARK   16  A    between atoms: C_20  and  O_47 
REMARK   17  A    between atoms: C_21  and  O_48 
REMARK   18  A    between atoms: C_22  and  O_49 
REMARK   19  A    between atoms: C_23  and  O_50 
REMARK   20  A    between atoms: C_24  and  O_51 
REMARK   21  A    between atoms: C_25  and  O_52 
REMARK   22  A    between atoms: C_26  and  O_53 
REMARK   23  A    between atoms: C_27  and  O_54 
REMARK   24  A    between atoms: C_28  and  O_55 
REMARK   25  A    between atoms: C_29  and  O_56 
REMARK   26  A    between atoms: C_30  and  O_64 
REMARK   27  A    between atoms: C_31  and  O_65 
REMARK   28  A    between atoms: C_32  and  O_66 
REMARK   29  A    between atoms: C_33  and  O_57 
REMARK   30  A    between atoms: C_34  and  O_58 
REMARK   31  A    between atoms: C_35  and  O_65 
REMARK   32  A    between atoms: C_36  and  O_66 
REMARK   33  A    between atoms: C_37  and  O_64 
ROOT
HETATM    1  C   UNK N   1      22.134  19.074   3.126  0.00  0.00     0.179 C 
HETATM    2  C   UNK N   1      21.530  20.253   2.354  0.00  0.00     0.180 C 
HETATM    3  C   UNK N   1      20.220  19.781   1.698  0.00  0.00     0.183 C 
HETATM    4  C   UNK N   1      19.285  19.136   2.757  0.00  0.00     0.204 C 
HETATM    5  C   UNK N   1      20.049  18.012   3.472  0.00  0.00     0.292 C 
HETATM    6  O   UNK N   1      21.264  21.314   3.224  0.00  0.00    -0.390 OA
HETATM    7  O   UNK N   1      21.202  18.608   4.092  0.00  0.00    -0.348 OA
HETATM    8  H   UNK N   1      21.118  22.136   3.717  0.00  0.00     0.210 HD
ENDROOT
BRANCH   1   9
HETATM    9  C   UNK N   1      23.458  19.445   3.807  0.00  0.00     0.198 C 
BRANCH   9  10
HETATM   10  O   UNK N   1      23.937  20.682   3.374  0.00  0.00    -0.398 OA
HETATM   11  H   UNK N   1      24.096  21.538   2.946  0.00  0.00     0.209 HD
ENDBRANCH   9  10
ENDBRANCH   1   9
BRANCH   3  12
HETATM   12  O   UNK N   1      20.518  18.845   0.700  0.00  0.00    -0.390 OA
HETATM   13  H   UNK N   1      20.740  18.384  -0.124  0.00  0.00     0.210 HD
ENDBRANCH   3  12
BRANCH   4  14
HETATM   14  O   UNK N   1      18.142  18.629   2.138  0.00  0.00    -0.388 OA
HETATM   15  H   UNK N   1      17.477  19.089   1.602  0.00  0.00     0.210 HD
ENDBRANCH   4  14
BRANCH   5  16
HETATM   16  O   UNK N   1      19.205  17.278   4.398  0.00  0.00    -0.348 OA
BRANCH  16  17
HETATM   17  C   UNK N   1      19.623  15.925   4.542  0.00  0.00     0.187 C 
HETATM   18  C   UNK N   1      20.310  15.620   5.879  0.00  0.00     0.180 C 
HETATM   19  O   UNK N   1      20.057  14.259   6.031  0.00  0.00    -0.348 OA
HETATM   20  C   UNK N   1      20.916  13.433   5.296  0.00  0.00     0.292 C 
HETATM   21  C   UNK N   1      20.905  13.863   3.772  0.00  0.00     0.204 C 
HETATM   22  C   UNK N   1      20.696  15.408   3.534  0.00  0.00     0.183 C 
BRANCH  18  23
HETATM   23  C   UNK N   1      19.902  16.378   7.151  0.00  0.00     0.198 C 
BRANCH  23  24
HETATM   24  O   UNK N   1      18.526  16.357   7.374  0.00  0.00    -0.398 OA
HETATM   25  H   UNK N   1      18.096  16.217   8.232  0.00  0.00     0.209 HD
ENDBRANCH  23  24
ENDBRANCH  18  23
BRANCH  20  26
HETATM   26  O   UNK N   1      22.149  13.334   5.979  0.00  0.00    -0.346 OA
BRANCH  26  27
HETATM   27  C   UNK N   1      23.252  14.002   5.292  0.00  0.00     0.187 C 
HETATM   28  C   UNK N   1      24.378  13.088   4.795  0.00  0.00    -0.027 C 
HETATM   29  C   UNK N   1      25.691  13.350   5.059  0.00  0.00     0.008 C 
HETATM   30  C   UNK N   1      26.243  14.482   5.963  0.00  0.00     0.132 C 
HETATM   31  C   UNK N   1      25.154  14.998   6.854  0.00  0.00     0.175 C 
HETATM   32  C   UNK N   1      23.856  15.277   5.980  0.00  0.00     0.182 C 
BRANCH  28  33
HETATM   33  C   UNK N   1      24.075  11.917   3.898  0.00  0.00     0.201 C 
BRANCH  33  34
HETATM   34  O   UNK N   1      24.961  11.833   2.821  0.00  0.00    -0.397 OA
HETATM   35  H   UNK N   1      25.905  11.608   2.825  0.00  0.00     0.209 HD
ENDBRANCH  33  34
ENDBRANCH  28  33
BRANCH  30  36
HETATM   36  N   UNK N   1      26.836  15.666   5.312  0.00  0.00    -0.402 N 
HETATM   37  H   UNK N   1      26.379  16.167   4.549  0.00  0.00     0.154 HD
BRANCH  36  38
HETATM   38  C   UNK N   1      28.124  16.055   5.852  0.00  0.00     0.137 C 
HETATM   39  C   UNK N   1      28.805  17.026   4.838  0.00  0.00     0.145 C 
HETATM   40  C   UNK N   1      29.090  16.443   3.469  0.00  0.00     0.042 C 
HETATM   41  O   UNK N   1      29.988  17.637   5.346  0.00  0.00    -0.352 OA
HETATM   42  C   UNK N   1      30.484  16.968   6.493  0.00  0.00     0.292 C 
HETATM   43  C   UNK N   1      29.518  17.217   7.675  0.00  0.00     0.204 C 
HETATM   44  C   UNK N   1      28.044  16.843   7.194  0.00  0.00     0.176 C 
BRANCH  42  45
HETATM   45  O   UNK N   1      31.891  17.161   6.612  0.00  0.00    -0.348 OA
BRANCH  45  46
HETATM   46  C   UNK N   1      32.385  16.209   7.585  0.00  0.00     0.187 C 
HETATM   47  C   UNK N   1      33.225  15.092   6.937  0.00  0.00     0.180 C 
HETATM   48  O   UNK N   1      33.616  14.082   7.881  0.00  0.00    -0.348 OA
HETATM   49  C   UNK N   1      34.279  14.552   9.064  0.00  0.00     0.291 C 
HETATM   50  C   UNK N   1      33.489  15.684   9.761  0.00  0.00     0.204 C 
HETATM   51  C   UNK N   1      33.225  16.795   8.774  0.00  0.00     0.183 C 
BRANCH  47  52
HETATM   52  C   UNK N   1      34.416  15.638   6.150  0.00  0.00     0.198 C 
BRANCH  52  53
HETATM   53  O   UNK N   1      33.982  16.253   4.976  0.00  0.00    -0.398 OA
HETATM   54  H   UNK N   1      34.594  16.366   4.232  0.00  0.00     0.209 HD
ENDBRANCH  52  53
ENDBRANCH  47  52
BRANCH  49  55
HETATM   55  O   UNK N   1      35.638  14.862   8.781  0.00  0.00    -0.356 OA
BRANCH  55  56
HETATM   56  C   UNK N   1      36.382  15.024   9.980  0.00  0.00     0.205 C 
BRANCH  56  57
HETATM   57  C   UNK N   1      36.150  13.952  11.062  0.00  0.00     0.180 C 
HETATM   58  C   UNK N   1      37.186  12.801  10.948  0.00  0.00     0.180 C 
HETATM   59  C   UNK N   1      36.842  11.730  11.991  0.00  0.00     0.183 C 
HETATM   60  C   UNK N   1      36.792  12.386  13.377  0.00  0.00     0.204 C 
HETATM   61  C   UNK N   1      35.807  13.571  13.353  0.00  0.00     0.288 C 
HETATM   62  O   UNK N   1      36.163  14.528  12.363  0.00  0.00    -0.349 OA
BRANCH  58  63
HETATM   63  O   UNK N   1      38.480  13.278  11.180  0.00  0.00    -0.390 OA
HETATM   64  H   UNK N   1      39.441  13.164  11.223  0.00  0.00     0.210 HD
ENDBRANCH  58  63
BRANCH  59  65
HETATM   65  O   UNK N   1      37.793  10.706  11.970  0.00  0.00    -0.390 OA
HETATM   66  H   UNK N   1      37.679   9.783  11.696  0.00  0.00     0.210 HD
ENDBRANCH  59  65
BRANCH  60  67
HETATM   67  O   UNK N   1      36.404  11.452  14.341  0.00  0.00    -0.388 OA
HETATM   68  H   UNK N   1      36.115  11.744  15.220  0.00  0.00     0.210 HD
ENDBRANCH  60  67
BRANCH  61  69
HETATM   69  O   UNK N   1      34.489  13.136  13.168  0.00  0.00    -0.369 OA
HETATM   70  H   UNK N   1      33.658  12.770  13.510  0.00  0.00     0.212 HD
ENDBRANCH  61  69
ENDBRANCH  56  57
ENDBRANCH  55  56
ENDBRANCH  49  55
BRANCH  50  71
HETATM   71  O   UNK N   1      32.277  15.179  10.245  0.00  0.00    -0.388 OA
HETATM   72  H   UNK N   1      31.362  15.077  10.550  0.00  0.00     0.210 HD
ENDBRANCH  50  71
BRANCH  51  73
HETATM   73  O   UNK N   1      34.413  17.387   8.331  0.00  0.00    -0.390 OA
HETATM   74  H   UNK N   1      35.270  17.824   8.214  0.00  0.00     0.210 HD
ENDBRANCH  51  73
ENDBRANCH  45  46
ENDBRANCH  42  45
BRANCH  43  75
HETATM   75  O   UNK N   1      29.577  18.543   8.115  0.00  0.00    -0.388 OA
HETATM   76  H   UNK N   1      30.238  19.051   8.610  0.00  0.00     0.210 HD
ENDBRANCH  43  75
BRANCH  44  77
HETATM   77  O   UNK N   1      27.286  18.005   6.995  0.00  0.00    -0.391 OA
HETATM   78  H   UNK N   1      27.126  18.760   6.408  0.00  0.00     0.210 HD
ENDBRANCH  44  77
ENDBRANCH  36  38
ENDBRANCH  30  36
BRANCH  31  79
HETATM   79  O   UNK N   1      25.061  14.062   7.882  0.00  0.00    -0.391 OA
HETATM   80  H   UNK N   1      25.554  13.440   8.438  0.00  0.00     0.210 HD
ENDBRANCH  31  79
BRANCH  32  81
HETATM   81  O   UNK N   1      24.198  16.205   4.995  0.00  0.00    -0.390 OA
HETATM   82  H   UNK N   1      25.003  16.598   4.626  0.00  0.00     0.210 HD
ENDBRANCH  32  81
ENDBRANCH  26  27
ENDBRANCH  20  26
BRANCH  21  83
HETATM   83  O   UNK N   1      19.804  13.224   3.186  0.00  0.00    -0.388 OA
HETATM   84  H   UNK N   1      19.191  12.591   2.781  0.00  0.00     0.210 HD
ENDBRANCH  21  83
BRANCH  22  85
HETATM   85  O   UNK N   1      20.297  15.647   2.217  0.00  0.00    -0.390 OA
HETATM   86  H   UNK N   1      20.151  16.473   1.728  0.00  0.00     0.210 HD
ENDBRANCH  22  85
ENDBRANCH  16  17
ENDBRANCH   5  16
TORSDOF 33
ENDMDL
MODEL 9
REMARK VINA RESULT:      -7.6      1.976     14.137
REMARK WARNING: 32 MAX_TORS EXCEEDED!!!
REMARK  33 active torsions:
REMARK  status: ('A' for Active; 'I' for Inactive)
REMARK    1  A    between atoms: C_9  and  C_3 
REMARK    2  A    between atoms: O_39  and  C_3 
REMARK    3  A    between atoms: C_11  and  C_4 
REMARK    4  A    between atoms: O_40  and  C_4 
REMARK    5  A    between atoms: C_12  and  C_5 
REMARK    6  A    between atoms: O_41  and  C_5 
REMARK    7  A    between atoms: C_13  and  C_6 
REMARK    8  A    between atoms: O_42  and  C_6 
REMARK    9  A    between atoms: C_14  and  C_7 
REMARK   10  A    between atoms: O_58  and  C_7 
REMARK   11  A    between atoms: C_10  and  N_38 
REMARK   12  A    between atoms: C_15  and  N_38 
REMARK   13  A    between atoms: C_16  and  O_43 
REMARK   14  A    between atoms: C_18  and  O_45 
REMARK   15  A    between atoms: C_19  and  O_46 
REMARK   16  A    between atoms: C_20  and  O_47 
REMARK   17  A    between atoms: C_21  and  O_48 
REMARK   18  A    between atoms: C_22  and  O_49 
REMARK   19  A    between atoms: C_23  and  O_50 
REMARK   20  A    between atoms: C_24  and  O_51 
REMARK   21  A    between atoms: C_25  and  O_52 
REMARK   22  A    between atoms: C_26  and  O_53 
REMARK   23  A    between atoms: C_27  and  O_54 
REMARK   24  A    between atoms: C_28  and  O_55 
REMARK   25  A    between atoms: C_29  and  O_56 
REMARK   26  A    between atoms: C_30  and  O_64 
REMARK   27  A    between atoms: C_31  and  O_65 
REMARK   28  A    between atoms: C_32  and  O_66 
REMARK   29  A    between atoms: C_33  and  O_57 
REMARK   30  A    between atoms: C_34  and  O_58 
REMARK   31  A    between atoms: C_35  and  O_65 
REMARK   32  A    between atoms: C_36  and  O_66 
REMARK   33  A    between atoms: C_37  and  O_64 
ROOT
HETATM    1  C   UNK N   1      36.373  11.421  11.403  0.00  0.00     0.179 C 
HETATM    2  C   UNK N   1      35.551  11.609  12.683  0.00  0.00     0.180 C 
HETATM    3  C   UNK N   1      35.996  12.920  13.356  0.00  0.00     0.183 C 
HETATM    4  C   UNK N   1      35.926  14.099  12.347  0.00  0.00     0.204 C 
HETATM    5  C   UNK N   1      36.756  13.737  11.106  0.00  0.00     0.292 C 
HETATM    6  O   UNK N   1      34.189  11.677  12.377  0.00  0.00    -0.390 OA
HETATM    7  O   UNK N   1      36.186  12.541  10.547  0.00  0.00    -0.348 OA
HETATM    8  H   UNK N   1      33.223  11.654  12.289  0.00  0.00     0.210 HD
ENDROOT
BRANCH   1   9
HETATM    9  C   UNK N   1      36.009  10.127  10.665  0.00  0.00     0.198 C 
BRANCH   9  10
HETATM   10  O   UNK N   1      35.115  10.359   9.618  0.00  0.00    -0.398 OA
HETATM   11  H   UNK N   1      34.661  10.464   8.768  0.00  0.00     0.209 HD
ENDBRANCH   9  10
ENDBRANCH   1   9
BRANCH   3  12
HETATM   12  O   UNK N   1      37.310  12.775  13.820  0.00  0.00    -0.390 OA
HETATM   13  H   UNK N   1      38.131  12.761  14.335  0.00  0.00     0.210 HD
ENDBRANCH   3  12
BRANCH   4  14
HETATM   14  O   UNK N   1      36.419  15.263  12.939  0.00  0.00    -0.388 OA
HETATM   15  H   UNK N   1      36.765  15.399  13.834  0.00  0.00     0.210 HD
ENDBRANCH   4  14
BRANCH   5  16
HETATM   16  O   UNK N   1      36.838  14.838  10.163  0.00  0.00    -0.348 OA
BRANCH  16  17
HETATM   17  C   UNK N   1      35.606  15.048   9.480  0.00  0.00     0.187 C 
HETATM   18  C   UNK N   1      35.690  14.854   7.962  0.00  0.00     0.180 C 
HETATM   19  O   UNK N   1      34.381  14.504   7.641  0.00  0.00    -0.348 OA
HETATM   20  C   UNK N   1      33.505  15.593   7.547  0.00  0.00     0.292 C 
HETATM   21  C   UNK N   1      33.573  16.456   8.873  0.00  0.00     0.204 C 
HETATM   22  C   UNK N   1      34.991  16.479   9.562  0.00  0.00     0.183 C 
BRANCH  18  23
HETATM   23  C   UNK N   1      36.671  13.834   7.362  0.00  0.00     0.198 C 
BRANCH  23  24
HETATM   24  O   UNK N   1      36.482  12.547   7.863  0.00  0.00    -0.398 OA
HETATM   25  H   UNK N   1      37.187  11.912   8.064  0.00  0.00     0.209 HD
ENDBRANCH  23  24
ENDBRANCH  18  23
BRANCH  20  26
HETATM   26  O   UNK N   1      33.698  16.226   6.298  0.00  0.00    -0.346 OA
BRANCH  26  27
HETATM   27  C   UNK N   1      32.647  15.932   5.327  0.00  0.00     0.187 C 
HETATM   28  C   UNK N   1      31.215  15.928   5.876  0.00  0.00    -0.027 C 
HETATM   29  C   UNK N   1      30.353  14.897   5.638  0.00  0.00     0.008 C 
HETATM   30  C   UNK N   1      30.683  13.565   4.918  0.00  0.00     0.132 C 
HETATM   31  C   UNK N   1      32.167  13.358   4.886  0.00  0.00     0.175 C 
HETATM   32  C   UNK N   1      32.867  14.695   4.387  0.00  0.00     0.182 C 
BRANCH  28  33
HETATM   33  C   UNK N   1      30.675  17.123   6.615  0.00  0.00     0.201 C 
BRANCH  33  34
HETATM   34  O   UNK N   1      30.295  16.809   7.923  0.00  0.00    -0.397 OA
HETATM   35  H   UNK N   1      30.444  17.313   8.738  0.00  0.00     0.209 HD
ENDBRANCH  33  34
ENDBRANCH  28  33
BRANCH  30  36
HETATM   36  N   UNK N   1      30.215  13.389   3.529  0.00  0.00    -0.402 N 
HETATM   37  H   UNK N   1      30.781  13.635   2.717  0.00  0.00     0.154 HD
BRANCH  36  38
HETATM   38  C   UNK N   1      28.878  12.835   3.421  0.00  0.00     0.137 C 
HETATM   39  C   UNK N   1      28.069  13.710   2.415  0.00  0.00     0.145 C 
HETATM   40  C   UNK N   1      27.883  15.159   2.813  0.00  0.00     0.042 C 
HETATM   41  O   UNK N   1      26.804  13.150   2.070  0.00  0.00    -0.352 OA
HETATM   42  C   UNK N   1      26.404  12.134   2.974  0.00  0.00     0.292 C 
HETATM   43  C   UNK N   1      27.314  10.899   2.773  0.00  0.00     0.204 C 
HETATM   44  C   UNK N   1      28.831  11.387   2.849  0.00  0.00     0.176 C 
BRANCH  42  45
HETATM   45  O   UNK N   1      24.984  12.030   3.011  0.00  0.00    -0.348 OA
BRANCH  45  46
HETATM   46  C   UNK N   1      24.441  13.366   2.886  0.00  0.00     0.187 C 
HETATM   47  C   UNK N   1      23.384  13.468   1.770  0.00  0.00     0.180 C 
HETATM   48  O   UNK N   1      22.931  14.815   1.564  0.00  0.00    -0.348 OA
HETATM   49  C   UNK N   1      22.458  15.504   2.732  0.00  0.00     0.291 C 
HETATM   50  C   UNK N   1      23.473  15.433   3.897  0.00  0.00     0.204 C 
HETATM   51  C   UNK N   1      23.813  13.991   4.183  0.00  0.00     0.183 C 
BRANCH  47  52
HETATM   52  C   UNK N   1      22.223  12.494   1.974  0.00  0.00     0.198 C 
BRANCH  52  53
HETATM   53  O   UNK N   1      21.192  12.771   1.077  0.00  0.00    -0.398 OA
HETATM   54  H   UNK N   1      20.475  13.372   1.333  0.00  0.00     0.209 HD
ENDBRANCH  52  53
ENDBRANCH  47  52
BRANCH  49  55
HETATM   55  O   UNK N   1      21.143  15.075   3.062  0.00  0.00    -0.356 OA
BRANCH  55  56
HETATM   56  C   UNK N   1      20.232  16.164   3.030  0.00  0.00     0.205 C 
BRANCH  56  57
HETATM   57  C   UNK N   1      20.861  17.560   2.857  0.00  0.00     0.180 C 
HETATM   58  C   UNK N   1      20.184  18.346   1.703  0.00  0.00     0.180 C 
HETATM   59  C   UNK N   1      20.916  19.682   1.526  0.00  0.00     0.183 C 
HETATM   60  C   UNK N   1      20.919  20.427   2.867  0.00  0.00     0.204 C 
HETATM   61  C   UNK N   1      21.526  19.523   3.959  0.00  0.00     0.288 C 
HETATM   62  O   UNK N   1      20.819  18.295   4.074  0.00  0.00    -0.349 OA
BRANCH  58  63
HETATM   63  O   UNK N   1      18.838  18.589   1.996  0.00  0.00    -0.390 OA
HETATM   64  H   UNK N   1      18.131  18.927   2.566  0.00  0.00     0.210 HD
ENDBRANCH  58  63
BRANCH  59  65
HETATM   65  O   UNK N   1      20.292  20.454   0.541  0.00  0.00    -0.390 OA
HETATM   66  H   UNK N   1      19.658  20.169  -0.135  0.00  0.00     0.210 HD
ENDBRANCH  59  65
BRANCH  60  67
HETATM   67  O   UNK N   1      21.648  21.615   2.760  0.00  0.00    -0.388 OA
HETATM   68  H   UNK N   1      21.232  22.417   2.410  0.00  0.00     0.210 HD
ENDBRANCH  60  67
BRANCH  61  69
HETATM   69  O   UNK N   1      22.888  19.291   3.730  0.00  0.00    -0.369 OA
HETATM   70  H   UNK N   1      23.817  19.566   3.772  0.00  0.00     0.212 HD
ENDBRANCH  61  69
ENDBRANCH  56  57
ENDBRANCH  55  56
ENDBRANCH  49  55
BRANCH  50  71
HETATM   71  O   UNK N   1      24.633  16.136   3.550  0.00  0.00    -0.388 OA
HETATM   72  H   UNK N   1      25.538  16.382   3.302  0.00  0.00     0.210 HD
ENDBRANCH  50  71
BRANCH  51  73
HETATM   73  O   UNK N   1      22.695  13.271   4.617  0.00  0.00    -0.390 OA
HETATM   74  H   UNK N   1      21.853  12.948   4.975  0.00  0.00     0.210 HD
ENDBRANCH  51  73
ENDBRANCH  45  46
ENDBRANCH  42  45
BRANCH  43  75
HETATM   75  O   UNK N   1      27.055  10.264   1.556  0.00  0.00    -0.388 OA
HETATM   76  H   UNK N   1      27.161  10.531   0.630  0.00  0.00     0.210 HD
ENDBRANCH  43  75
BRANCH  44  77
HETATM   77  O   UNK N   1      29.408  11.383   1.572  0.00  0.00    -0.391 OA
HETATM   78  H   UNK N   1      29.669  11.930   0.815  0.00  0.00     0.210 HD
ENDBRANCH  44  77
ENDBRANCH  36  38
ENDBRANCH  30  36
BRANCH  31  79
HETATM   79  O   UNK N   1      32.488  12.887   6.157  0.00  0.00    -0.391 OA
HETATM   80  H   UNK N   1      32.542  12.104   6.725  0.00  0.00     0.210 HD
ENDBRANCH  31  79
BRANCH  32  81
HETATM   81  O   UNK N   1      32.362  14.992   3.119  0.00  0.00    -0.390 OA
HETATM   82  H   UNK N   1      32.055  15.771   2.633  0.00  0.00     0.210 HD
ENDBRANCH  32  81
ENDBRANCH  26  27
ENDBRANCH  20  26
BRANCH  21  83
HETATM   83  O   UNK N   1      32.703  15.847   9.788  0.00  0.00    -0.388 OA
HETATM   84  H   UNK N   1      32.152  15.228  10.291  0.00  0.00     0.210 HD
ENDBRANCH  21  83
BRANCH  22  85
HETATM   85  O   UNK N   1      34.879  16.898  10.890  0.00  0.00    -0.390 OA
HETATM   86  H   UNK N   1      34.505  16.463  11.673  0.00  0.00     0.210 HD
ENDBRANCH  22  85
ENDBRANCH  16  17
ENDBRANCH   5  16
TORSDOF 33
ENDMDL
