MODEL 1
REMARK VINA RESULT:      -5.8      0.000      0.000
REMARK  4 active torsions:
REMARK  status: ('A' for Active; 'I' for Inactive)
REMARK    1  A    between atoms: N_2  and  C_3 
REMARK    2  A    between atoms: C_9  and  N_2 
REMARK    3  A    between atoms: C_3  and  C_4 
REMARK    4  A    between atoms: C_4  and  C_5 
ROOT
HETATM    1  C   UNK N   1      25.513  25.997  -9.159  0.00  0.00     0.270 C 
HETATM    2  N   UNK N   1      25.926  25.602  -7.817  0.00  0.00    -0.070 N 
HETATM    3  H   UNK N   1      26.217  25.271  -6.897  0.00  0.00     0.279 HD
ENDROOT
BRANCH   2   4
HETATM    4  C   UNK N   1      26.155  24.161  -7.706  0.00  0.00     0.238 C 
BRANCH   4   5
HETATM    5  C   UNK N   1      26.155  23.520  -6.329  0.00  0.00     0.055 C 
BRANCH   5   6
HETATM    6  C   UNK N   1      27.525  23.537  -5.674  0.00  0.00    -0.023 C 
HETATM    7  C   UNK N   1      27.886  24.076  -4.488  0.00  0.00    -0.091 C 
HETATM    8  C   UNK N   1      29.305  23.963  -4.057  0.00  0.00     0.042 C 
HETATM    9  C   UNK N   1      26.949  24.789  -3.562  0.00  0.00     0.042 C 
ENDBRANCH   5   6
ENDBRANCH   4   5
ENDBRANCH   2   4
BRANCH   2  10
HETATM   10  C   UNK N   1      26.059  26.634  -6.787  0.00  0.00     0.191 A 
HETATM   11  C   UNK N   1      27.366  27.428  -6.755  0.00  0.00     0.037 A 
HETATM   12  C   UNK N   1      27.478  28.495  -5.673  0.00  0.00     0.035 A 
HETATM   13  C   UNK N   1      26.316  28.677  -4.741  0.00  0.00    -0.087 A 
HETATM   14  C   UNK N   1      26.429  29.719  -3.687  0.00  0.00     0.043 C 
HETATM   15  C   UNK N   1      25.187  27.958  -4.804  0.00  0.00    -0.022 A 
HETATM   16  C   UNK N   1      24.923  26.879  -5.803  0.00  0.00     0.060 A 
ENDBRANCH   2  10
TORSDOF 4
ENDMDL
MODEL 2
REMARK VINA RESULT:      -5.8     12.375     14.493
REMARK  4 active torsions:
REMARK  status: ('A' for Active; 'I' for Inactive)
REMARK    1  A    between atoms: N_2  and  C_3 
REMARK    2  A    between atoms: C_9  and  N_2 
REMARK    3  A    between atoms: C_3  and  C_4 
REMARK    4  A    between atoms: C_4  and  C_5 
ROOT
HETATM    1  C   UNK N   1      28.760  16.802   3.389  0.00  0.00     0.270 C 
HETATM    2  N   UNK N   1      29.419  17.666   4.361  0.00  0.00    -0.070 N 
HETATM    3  H   UNK N   1      29.929  18.245   5.028  0.00  0.00     0.279 HD
ENDROOT
BRANCH   2   4
HETATM    4  C   UNK N   1      30.857  17.412   4.449  0.00  0.00     0.238 C 
BRANCH   4   5
HETATM    5  C   UNK N   1      31.390  16.584   5.605  0.00  0.00     0.055 C 
BRANCH   5   6
HETATM    6  C   UNK N   1      32.608  17.209   6.262  0.00  0.00    -0.023 C 
HETATM    7  C   UNK N   1      32.726  17.719   7.508  0.00  0.00    -0.091 C 
HETATM    8  C   UNK N   1      34.038  18.281   7.926  0.00  0.00     0.042 C 
HETATM    9  C   UNK N   1      31.616  17.760   8.514  0.00  0.00     0.042 C 
ENDBRANCH   5   6
ENDBRANCH   4   5
ENDBRANCH   2   4
BRANCH   2  10
HETATM   10  C   UNK N   1      28.614  18.639   5.101  0.00  0.00     0.191 A 
HETATM   11  C   UNK N   1      27.933  19.745   4.292  0.00  0.00     0.037 A 
HETATM   12  C   UNK N   1      27.101  20.744   5.087  0.00  0.00     0.035 A 
HETATM   13  C   UNK N   1      27.018  20.565   6.576  0.00  0.00    -0.087 A 
HETATM   14  C   UNK N   1      26.206  21.542   7.347  0.00  0.00     0.043 C 
HETATM   15  C   UNK N   1      27.632  19.580   7.246  0.00  0.00    -0.022 A 
HETATM   16  C   UNK N   1      28.480  18.526   6.614  0.00  0.00     0.060 A 
ENDBRANCH   2  10
TORSDOF 4
ENDMDL
MODEL 3
REMARK VINA RESULT:      -5.8     12.458     15.485
REMARK  4 active torsions:
REMARK  status: ('A' for Active; 'I' for Inactive)
REMARK    1  A    between atoms: N_2  and  C_3 
REMARK    2  A    between atoms: C_9  and  N_2 
REMARK    3  A    between atoms: C_3  and  C_4 
REMARK    4  A    between atoms: C_4  and  C_5 
ROOT
HETATM    1  C   UNK N   1      29.680  14.921   5.241  0.00  0.00     0.270 C 
HETATM    2  N   UNK N   1      29.704  16.309   5.685  0.00  0.00    -0.070 N 
HETATM    3  H   UNK N   1      29.668  17.285   5.979  0.00  0.00     0.279 HD
ENDROOT
BRANCH   2   4
HETATM    4  C   UNK N   1      28.438  16.998   5.436  0.00  0.00     0.238 C 
BRANCH   4   5
HETATM    5  C   UNK N   1      28.440  18.260   4.592  0.00  0.00     0.055 C 
BRANCH   5   6
HETATM    6  C   UNK N   1      28.055  19.497   5.385  0.00  0.00    -0.023 C 
HETATM    7  C   UNK N   1      27.156  20.455   5.069  0.00  0.00    -0.091 C 
HETATM    8  C   UNK N   1      26.952  21.581   6.017  0.00  0.00     0.042 C 
HETATM    9  C   UNK N   1      26.337  20.467   3.813  0.00  0.00     0.042 C 
ENDBRANCH   5   6
ENDBRANCH   4   5
ENDBRANCH   2   4
BRANCH   2  10
HETATM   10  C   UNK N   1      30.927  16.833   6.299  0.00  0.00     0.191 A 
HETATM   11  C   UNK N   1      32.137  17.037   5.386  0.00  0.00     0.037 A 
HETATM   12  C   UNK N   1      33.395  17.582   6.050  0.00  0.00     0.035 A 
HETATM   13  C   UNK N   1      33.346  17.870   7.523  0.00  0.00    -0.087 A 
HETATM   14  C   UNK N   1      34.576  18.402   8.167  0.00  0.00     0.043 C 
HETATM   15  C   UNK N   1      32.262  17.676   8.287  0.00  0.00    -0.022 A 
HETATM   16  C   UNK N   1      30.957  17.149   7.788  0.00  0.00     0.060 A 
ENDBRANCH   2  10
TORSDOF 4
ENDMDL
MODEL 4
REMARK VINA RESULT:      -5.6     24.547     27.342
REMARK  4 active torsions:
REMARK  status: ('A' for Active; 'I' for Inactive)
REMARK    1  A    between atoms: N_2  and  C_3 
REMARK    2  A    between atoms: C_9  and  N_2 
REMARK    3  A    between atoms: C_3  and  C_4 
REMARK    4  A    between atoms: C_4  and  C_5 
ROOT
HETATM    1  C   UNK N   1      37.157  14.934  15.446  0.00  0.00     0.270 C 
HETATM    2  N   UNK N   1      36.534  13.706  14.967  0.00  0.00    -0.070 N 
HETATM    3  H   UNK N   1      36.097  12.869  14.580  0.00  0.00     0.279 HD
ENDROOT
BRANCH   2   4
HETATM    4  C   UNK N   1      36.271  13.737  13.528  0.00  0.00     0.238 C 
BRANCH   4   5
HETATM    5  C   UNK N   1      34.922  13.266  13.015  0.00  0.00     0.055 C 
BRANCH   5   6
HETATM    6  C   UNK N   1      34.939  11.817  12.564  0.00  0.00    -0.023 C 
HETATM    7  C   UNK N   1      34.362  10.744  13.149  0.00  0.00    -0.091 C 
HETATM    8  C   UNK N   1      34.521   9.411  12.509  0.00  0.00     0.042 C 
HETATM    9  C   UNK N   1      33.562  10.799  14.416  0.00  0.00     0.042 C 
ENDBRANCH   5   6
ENDBRANCH   4   5
ENDBRANCH   2   4
BRANCH   2  10
HETATM   10  C   UNK N   1      36.254  12.635  15.927  0.00  0.00     0.191 A 
HETATM   11  C   UNK N   1      36.925  11.282  15.682  0.00  0.00     0.037 A 
HETATM   12  C   UNK N   1      36.617  10.187  16.695  0.00  0.00     0.035 A 
HETATM   13  C   UNK N   1      35.695  10.518  17.833  0.00  0.00    -0.087 A 
HETATM   14  C   UNK N   1      35.397   9.447  18.819  0.00  0.00     0.043 C 
HETATM   15  C   UNK N   1      35.128  11.720  18.010  0.00  0.00    -0.022 A 
HETATM   16  C   UNK N   1      35.329  12.893  17.108  0.00  0.00     0.060 A 
ENDBRANCH   2  10
TORSDOF 4
ENDMDL
MODEL 5
REMARK VINA RESULT:      -5.5     28.267     31.123
REMARK  4 active torsions:
REMARK  status: ('A' for Active; 'I' for Inactive)
REMARK    1  A    between atoms: N_2  and  C_3 
REMARK    2  A    between atoms: C_9  and  N_2 
REMARK    3  A    between atoms: C_3  and  C_4 
REMARK    4  A    between atoms: C_4  and  C_5 
ROOT
HETATM    1  C   UNK N   1      37.205  10.101  21.184  0.00  0.00     0.270 C 
HETATM    2  N   UNK N   1      35.904  10.092  20.527  0.00  0.00    -0.070 N 
HETATM    3  H   UNK N   1      34.975  10.050  20.107  0.00  0.00     0.279 HD
ENDROOT
BRANCH   2   4
HETATM    4  C   UNK N   1      34.931   9.252  21.226  0.00  0.00     0.238 C 
BRANCH   4   5
HETATM    5  C   UNK N   1      33.587   9.845  21.608  0.00  0.00     0.055 C 
BRANCH   5   6
HETATM    6  C   UNK N   1      32.439   9.263  20.802  0.00  0.00    -0.023 C 
HETATM    7  C   UNK N   1      31.665   8.192  21.088  0.00  0.00    -0.091 C 
HETATM    8  C   UNK N   1      30.591   7.814  20.132  0.00  0.00     0.042 C 
HETATM    9  C   UNK N   1      31.812   7.345  22.316  0.00  0.00     0.042 C 
ENDBRANCH   5   6
ENDBRANCH   4   5
ENDBRANCH   2   4
BRANCH   2  10
HETATM   10  C   UNK N   1      35.724  10.881  19.306  0.00  0.00     0.191 A 
HETATM   11  C   UNK N   1      35.311  12.345  19.473  0.00  0.00     0.037 A 
HETATM   12  C   UNK N   1      35.131  13.143  18.188  0.00  0.00     0.035 A 
HETATM   13  C   UNK N   1      35.369  12.439  16.883  0.00  0.00    -0.087 A 
HETATM   14  C   UNK N   1      35.192  13.221  15.631  0.00  0.00     0.043 C 
HETATM   15  C   UNK N   1      35.731  11.153  16.782  0.00  0.00    -0.022 A 
HETATM   16  C   UNK N   1      35.947  10.240  17.943  0.00  0.00     0.060 A 
ENDBRANCH   2  10
TORSDOF 4
ENDMDL
MODEL 6
REMARK VINA RESULT:      -5.4     12.947     14.771
REMARK  4 active torsions:
REMARK  status: ('A' for Active; 'I' for Inactive)
REMARK    1  A    between atoms: N_2  and  C_3 
REMARK    2  A    between atoms: C_9  and  N_2 
REMARK    3  A    between atoms: C_3  and  C_4 
REMARK    4  A    between atoms: C_4  and  C_5 
ROOT
HETATM    1  C   UNK N   1      29.464  15.406   5.584  0.00  0.00     0.270 C 
HETATM    2  N   UNK N   1      30.003  16.641   6.142  0.00  0.00    -0.070 N 
HETATM    3  H   UNK N   1      30.428  17.476   6.544  0.00  0.00     0.279 HD
ENDROOT
BRANCH   2   4
HETATM    4  C   UNK N   1      31.365  16.476   6.650  0.00  0.00     0.238 C 
BRANCH   4   5
HETATM    5  C   UNK N   1      32.504  17.190   5.946  0.00  0.00     0.055 C 
BRANCH   5   6
HETATM    6  C   UNK N   1      33.199  16.316   4.916  0.00  0.00    -0.023 C 
HETATM    7  C   UNK N   1      32.960  16.223   3.589  0.00  0.00    -0.091 C 
HETATM    8  C   UNK N   1      33.783  15.284   2.782  0.00  0.00     0.042 C 
HETATM    9  C   UNK N   1      31.912  17.008   2.861  0.00  0.00     0.042 C 
ENDBRANCH   5   6
ENDBRANCH   4   5
ENDBRANCH   2   4
BRANCH   2  10
HETATM   10  C   UNK N   1      29.167  17.843   6.133  0.00  0.00     0.191 A 
HETATM   11  C   UNK N   1      28.886  18.491   4.776  0.00  0.00     0.037 A 
HETATM   12  C   UNK N   1      28.015  19.741   4.796  0.00  0.00     0.035 A 
HETATM   13  C   UNK N   1      27.510  20.227   6.124  0.00  0.00    -0.087 A 
HETATM   14  C   UNK N   1      26.659  21.446   6.138  0.00  0.00     0.043 C 
HETATM   15  C   UNK N   1      27.780  19.627   7.291  0.00  0.00    -0.022 A 
HETATM   16  C   UNK N   1      28.616  18.399   7.440  0.00  0.00     0.060 A 
ENDBRANCH   2  10
TORSDOF 4
ENDMDL
MODEL 7
REMARK VINA RESULT:      -5.3     20.599     23.824
REMARK  4 active torsions:
REMARK  status: ('A' for Active; 'I' for Inactive)
REMARK    1  A    between atoms: N_2  and  C_3 
REMARK    2  A    between atoms: C_9  and  N_2 
REMARK    3  A    between atoms: C_3  and  C_4 
REMARK    4  A    between atoms: C_4  and  C_5 
ROOT
HETATM    1  C   UNK N   1      37.146  13.604  11.351  0.00  0.00     0.270 C 
HETATM    2  N   UNK N   1      36.335  14.437  12.231  0.00  0.00    -0.070 N 
HETATM    3  H   UNK N   1      35.764  15.057  12.805  0.00  0.00     0.279 HD
ENDROOT
BRANCH   2   4
HETATM    4  C   UNK N   1      35.911  15.681  11.588  0.00  0.00     0.238 C 
BRANCH   4   5
HETATM    5  C   UNK N   1      34.709  15.658  10.661  0.00  0.00     0.055 C 
BRANCH   5   6
HETATM    6  C   UNK N   1      34.710  16.808   9.670  0.00  0.00    -0.023 C 
HETATM    7  C   UNK N   1      33.742  17.173   8.800  0.00  0.00    -0.091 C 
HETATM    8  C   UNK N   1      33.980  18.349   7.921  0.00  0.00     0.042 C 
HETATM    9  C   UNK N   1      32.427  16.469   8.653  0.00  0.00     0.042 C 
ENDBRANCH   5   6
ENDBRANCH   4   5
ENDBRANCH   2   4
BRANCH   2  10
HETATM   10  C   UNK N   1      36.050  13.963  13.587  0.00  0.00     0.191 A 
HETATM   11  C   UNK N   1      36.805  14.633  14.736  0.00  0.00     0.037 A 
HETATM   12  C   UNK N   1      36.490  14.120  16.136  0.00  0.00     0.035 A 
HETATM   13  C   UNK N   1      35.481  13.017  16.272  0.00  0.00    -0.087 A 
HETATM   14  C   UNK N   1      35.176  12.519  17.639  0.00  0.00     0.043 C 
HETATM   15  C   UNK N   1      34.842  12.457  15.235  0.00  0.00    -0.022 A 
HETATM   16  C   UNK N   1      35.039  12.846  13.807  0.00  0.00     0.060 A 
ENDBRANCH   2  10
TORSDOF 4
ENDMDL
MODEL 8
REMARK VINA RESULT:      -5.3      1.542      3.497
REMARK  4 active torsions:
REMARK  status: ('A' for Active; 'I' for Inactive)
REMARK    1  A    between atoms: N_2  and  C_3 
REMARK    2  A    between atoms: C_9  and  N_2 
REMARK    3  A    between atoms: C_3  and  C_4 
REMARK    4  A    between atoms: C_4  and  C_5 
ROOT
HETATM    1  C   UNK N   1      28.672  23.927  -3.274  0.00  0.00     0.270 C 
HETATM    2  N   UNK N   1      27.933  24.585  -4.344  0.00  0.00    -0.070 N 
HETATM    3  H   UNK N   1      27.416  24.996  -5.121  0.00  0.00     0.279 HD
ENDROOT
BRANCH   2   4
HETATM    4  C   UNK N   1      27.646  23.684  -5.460  0.00  0.00     0.238 C 
BRANCH   4   5
HETATM    5  C   UNK N   1      26.257  23.691  -6.073  0.00  0.00     0.055 C 
BRANCH   5   6
HETATM    6  C   UNK N   1      26.226  24.328  -7.451  0.00  0.00    -0.023 C 
HETATM    7  C   UNK N   1      25.850  25.580  -7.793  0.00  0.00    -0.091 C 
HETATM    8  C   UNK N   1      25.908  25.976  -9.225  0.00  0.00     0.042 C 
HETATM    9  C   UNK N   1      25.373  26.616  -6.820  0.00  0.00     0.042 C 
ENDBRANCH   5   6
ENDBRANCH   4   5
ENDBRANCH   2   4
BRANCH   2  10
HETATM   10  C   UNK N   1      27.579  25.998  -4.192  0.00  0.00     0.191 A 
HETATM   11  C   UNK N   1      28.493  27.025  -4.862  0.00  0.00     0.037 A 
HETATM   12  C   UNK N   1      28.101  28.487  -4.689  0.00  0.00     0.035 A 
HETATM   13  C   UNK N   1      26.870  28.796  -3.887  0.00  0.00    -0.087 A 
HETATM   14  C   UNK N   1      26.492  30.224  -3.720  0.00  0.00     0.043 C 
HETATM   15  C   UNK N   1      26.096  27.863  -3.315  0.00  0.00    -0.022 A 
HETATM   16  C   UNK N   1      26.344  26.393  -3.393  0.00  0.00     0.060 A 
ENDBRANCH   2  10
TORSDOF 4
ENDMDL
MODEL 9
REMARK VINA RESULT:      -5.2      1.384      4.703
REMARK  4 active torsions:
REMARK  status: ('A' for Active; 'I' for Inactive)
REMARK    1  A    between atoms: N_2  and  C_3 
REMARK    2  A    between atoms: C_9  and  N_2 
REMARK    3  A    between atoms: C_3  and  C_4 
REMARK    4  A    between atoms: C_4  and  C_5 
ROOT
HETATM    1  C   UNK N   1      26.288  22.304  -7.740  0.00  0.00     0.270 C 
HETATM    2  N   UNK N   1      27.108  23.437  -7.328  0.00  0.00    -0.070 N 
HETATM    3  H   UNK N   1      27.666  24.256  -7.087  0.00  0.00     0.279 HD
ENDROOT
BRANCH   2   4
HETATM    4  C   UNK N   1      27.054  24.542  -8.285  0.00  0.00     0.238 C 
BRANCH   4   5
HETATM    5  C   UNK N   1      26.076  25.677  -8.044  0.00  0.00     0.055 C 
BRANCH   5   6
HETATM    6  C   UNK N   1      26.682  26.812  -7.237  0.00  0.00    -0.023 C 
HETATM    7  C   UNK N   1      26.175  27.440  -6.152  0.00  0.00    -0.091 C 
HETATM    8  C   UNK N   1      26.965  28.535  -5.530  0.00  0.00     0.042 C 
HETATM    9  C   UNK N   1      24.856  27.109  -5.522  0.00  0.00     0.042 C 
ENDBRANCH   5   6
ENDBRANCH   4   5
ENDBRANCH   2   4
BRANCH   2  10
HETATM   10  C   UNK N   1      27.854  23.348  -6.071  0.00  0.00     0.191 A 
HETATM   11  C   UNK N   1      29.121  22.490  -6.067  0.00  0.00     0.037 A 
HETATM   12  C   UNK N   1      29.878  22.416  -4.747  0.00  0.00     0.035 A 
HETATM   13  C   UNK N   1      29.328  23.178  -3.575  0.00  0.00    -0.087 A 
HETATM   14  C   UNK N   1      30.069  23.102  -2.289  0.00  0.00     0.043 C 
HETATM   15  C   UNK N   1      28.212  23.919  -3.623  0.00  0.00    -0.022 A 
HETATM   16  C   UNK N   1      27.361  24.093  -4.837  0.00  0.00     0.060 A 
ENDBRANCH   2  10
TORSDOF 4
ENDMDL
