MODEL 1
REMARK VINA RESULT:      -6.4      0.000      0.000
REMARK  7 active torsions:
REMARK  status: ('A' for Active; 'I' for Inactive)
REMARK    1  A    between atoms: C_8  and  C_5 
REMARK    2  A    between atoms: C_11  and  C_6 
REMARK    3  A    between atoms: N_14  and  C_6 
REMARK    4  A    between atoms: C_12  and  C_7 
REMARK    5  A    between atoms: N_17  and  C_7 
REMARK    6  A    between atoms: O_18  and  C_9 
REMARK    7  A    between atoms: O_19  and  C_12 
ROOT
HETATM    1  C   UNK N   1      33.731  17.529   8.091  0.00  0.00     0.046 C 
HETATM    2  C   UNK N   1      34.243  16.450   8.712  0.00  0.00     0.103 A 
HETATM    3  C   UNK N   1      34.724  14.371   9.178  0.00  0.00     0.104 A 
HETATM    4  C   UNK N   1      35.162  16.443   9.836  0.00  0.00     0.276 A 
HETATM    5  N   UNK N   1      34.026  15.092   8.366  0.00  0.00    -0.340 N 
ATOM      6  HN  UNK N   1      33.429  14.748   7.612  1.00  0.00     0.167 HD
HETATM    7  N   UNK N   1      35.458  15.160  10.108  0.00  0.00    -0.290 N 
HETATM    8  O   UNK N   1      35.639  17.412  10.407  0.00  0.00    -0.265 OA
ENDROOT
BRANCH   1   9
HETATM    9  C   UNK N   1      32.860  17.471   6.889  0.00  0.00    -0.034 A 
HETATM   10  C   UNK N   1      31.471  17.281   6.979  0.00  0.00     0.014 A 
HETATM   11  C   UNK N   1      30.694  17.177   5.823  0.00  0.00     0.037 A 
HETATM   12  C   UNK N   1      31.297  17.261   4.566  0.00  0.00     0.065 A 
HETATM   13  C   UNK N   1      32.677  17.455   4.466  0.00  0.00     0.037 A 
HETATM   14  C   UNK N   1      33.454  17.557   5.623  0.00  0.00     0.014 A 
BRANCH  12  15
HETATM   15  O   UNK N   1      30.552  17.153   3.455  0.00  0.00    -0.361 OA
HETATM   16  H   UNK N   1      30.932  17.329   2.616  0.00  0.00     0.217 HD
ENDBRANCH  12  15
ENDBRANCH   1   9
BRANCH   7  17
HETATM   17  C   UNK N   1      36.421  14.660  11.071  0.00  0.00     0.243 C 
BRANCH  17  18
HETATM   18  C   UNK N   1      35.862  14.531  12.454  0.00  0.00     0.158 C 
HETATM   19  O   UNK N   1      34.801  13.956  12.639  0.00  0.00    -0.649 OA
BRANCH  18  20
HETATM   20  O   UNK N   1      36.487  15.122  13.488  0.00  0.00    -0.775 OA
HETATM   21  H   UNK N   1      36.265  15.850  14.034  0.00  0.00     0.167 HD
ENDBRANCH  18  20
ENDBRANCH  17  18
ENDBRANCH   7  17
BRANCH   3  22
HETATM   22  C   UNK N   1      34.770  12.879   9.098  0.00  0.00     0.188 C 
BRANCH  22  23
HETATM   23  N   UNK N   1      33.901  12.300  10.107  0.00  0.00    -0.424 N 
HETATM   24  H   UNK N   1      33.872  11.637  10.881  0.00  0.00     0.150 HD
HETATM   25  H   UNK N   1      32.974  12.711  10.003  0.00  0.00     0.150 HD
ENDBRANCH  22  23
ENDBRANCH   3  22
TORSDOF 7
ENDMDL
MODEL 2
REMARK VINA RESULT:      -6.3      2.726      7.299
REMARK  7 active torsions:
REMARK  status: ('A' for Active; 'I' for Inactive)
REMARK    1  A    between atoms: C_8  and  C_5 
REMARK    2  A    between atoms: C_11  and  C_6 
REMARK    3  A    between atoms: N_14  and  C_6 
REMARK    4  A    between atoms: C_12  and  C_7 
REMARK    5  A    between atoms: N_17  and  C_7 
REMARK    6  A    between atoms: O_18  and  C_9 
REMARK    7  A    between atoms: O_19  and  C_12 
ROOT
HETATM    1  C   UNK N   1      36.094  15.075  12.095  0.00  0.00     0.046 C 
HETATM    2  C   UNK N   1      35.199  15.310  11.117  0.00  0.00     0.103 A 
HETATM    3  C   UNK N   1      33.537  15.029   9.730  0.00  0.00     0.104 A 
HETATM    4  C   UNK N   1      35.017  16.547  10.379  0.00  0.00     0.276 A 
HETATM    5  N   UNK N   1      34.216  14.409  10.636  0.00  0.00    -0.340 N 
ATOM      6  HN  UNK N   1      34.070  13.449  10.950  1.00  0.00     0.167 HD
HETATM    7  N   UNK N   1      33.986  16.365   9.535  0.00  0.00    -0.290 N 
HETATM    8  O   UNK N   1      35.634  17.592  10.523  0.00  0.00    -0.265 OA
ENDROOT
BRANCH   1   9
HETATM    9  C   UNK N   1      36.176  13.812  12.873  0.00  0.00    -0.034 A 
HETATM   10  C   UNK N   1      35.573  13.668  14.133  0.00  0.00     0.014 A 
HETATM   11  C   UNK N   1      35.719  12.483  14.858  0.00  0.00     0.037 A 
HETATM   12  C   UNK N   1      36.470  11.430  14.329  0.00  0.00     0.065 A 
HETATM   13  C   UNK N   1      37.069  11.560  13.075  0.00  0.00     0.037 A 
HETATM   14  C   UNK N   1      36.924  12.748  12.351  0.00  0.00     0.014 A 
BRANCH  12  15
HETATM   15  O   UNK N   1      36.617  10.293  15.028  0.00  0.00    -0.361 OA
HETATM   16  H   UNK N   1      36.298  10.239  15.908  0.00  0.00     0.217 HD
ENDBRANCH  12  15
ENDBRANCH   1   9
BRANCH   7  17
HETATM   17  C   UNK N   1      33.362  17.354   8.677  0.00  0.00     0.243 C 
BRANCH  17  18
HETATM   18  C   UNK N   1      34.339  18.080   7.804  0.00  0.00     0.158 C 
HETATM   19  O   UNK N   1      34.603  17.657   6.690  0.00  0.00    -0.649 OA
BRANCH  18  20
HETATM   20  O   UNK N   1      34.991  19.156   8.280  0.00  0.00    -0.775 OA
HETATM   21  H   UNK N   1      34.969  20.065   8.053  0.00  0.00     0.167 HD
ENDBRANCH  18  20
ENDBRANCH  17  18
ENDBRANCH   7  17
BRANCH   3  22
HETATM   22  C   UNK N   1      32.385  14.400   9.012  0.00  0.00     0.188 C 
BRANCH  22  23
HETATM   23  N   UNK N   1      32.502  12.954   9.057  0.00  0.00    -0.424 N 
HETATM   24  H   UNK N   1      32.892  12.148   8.570  0.00  0.00     0.150 HD
HETATM   25  H   UNK N   1      32.011  12.620   9.886  0.00  0.00     0.150 HD
ENDBRANCH  22  23
ENDBRANCH   3  22
TORSDOF 7
ENDMDL
MODEL 3
REMARK VINA RESULT:      -6.1     11.655     14.712
REMARK  7 active torsions:
REMARK  status: ('A' for Active; 'I' for Inactive)
REMARK    1  A    between atoms: C_8  and  C_5 
REMARK    2  A    between atoms: C_11  and  C_6 
REMARK    3  A    between atoms: N_14  and  C_6 
REMARK    4  A    between atoms: C_12  and  C_7 
REMARK    5  A    between atoms: N_17  and  C_7 
REMARK    6  A    between atoms: O_18  and  C_9 
REMARK    7  A    between atoms: O_19  and  C_12 
ROOT
HETATM    1  C   UNK N   1      22.231  12.597   8.530  0.00  0.00     0.046 C 
HETATM    2  C   UNK N   1      21.575  13.679   8.071  0.00  0.00     0.103 A 
HETATM    3  C   UNK N   1      20.602  15.633   8.015  0.00  0.00     0.104 A 
HETATM    4  C   UNK N   1      21.194  13.951   6.696  0.00  0.00     0.276 A 
HETATM    5  N   UNK N   1      21.159  14.802   8.831  0.00  0.00    -0.340 N 
ATOM      6  HN  UNK N   1      21.279  14.929   9.836  1.00  0.00     0.167 HD
HETATM    7  N   UNK N   1      20.604  15.159   6.673  0.00  0.00    -0.290 N 
HETATM    8  O   UNK N   1      21.411  13.254   5.717  0.00  0.00    -0.265 OA
ENDROOT
BRANCH   1   9
HETATM    9  C   UNK N   1      22.669  12.415   9.938  0.00  0.00    -0.034 A 
HETATM   10  C   UNK N   1      24.025  12.378  10.302  0.00  0.00     0.014 A 
HETATM   11  C   UNK N   1      24.396  12.150  11.630  0.00  0.00     0.037 A 
HETATM   12  C   UNK N   1      23.415  11.955  12.606  0.00  0.00     0.065 A 
HETATM   13  C   UNK N   1      22.064  11.995  12.254  0.00  0.00     0.037 A 
HETATM   14  C   UNK N   1      21.693  12.222  10.926  0.00  0.00     0.014 A 
BRANCH  12  15
HETATM   15  O   UNK N   1      23.771  11.728  13.879  0.00  0.00    -0.361 OA
HETATM   16  H   UNK N   1      24.657  11.870  14.151  0.00  0.00     0.217 HD
ENDBRANCH  12  15
ENDBRANCH   1   9
BRANCH   7  17
HETATM   17  C   UNK N   1      20.162  15.904   5.509  0.00  0.00     0.243 C 
BRANCH  17  18
HETATM   18  C   UNK N   1      18.778  15.539   5.065  0.00  0.00     0.158 C 
HETATM   19  O   UNK N   1      17.809  15.897   5.713  0.00  0.00    -0.649 OA
BRANCH  18  20
HETATM   20  O   UNK N   1      18.607  14.743   3.994  0.00  0.00    -0.775 OA
HETATM   21  H   UNK N   1      17.950  14.116   3.766  0.00  0.00     0.167 HD
ENDBRANCH  18  20
ENDBRANCH  17  18
ENDBRANCH   7  17
BRANCH   3  22
HETATM   22  C   UNK N   1      20.063  16.957   8.455  0.00  0.00     0.188 C 
BRANCH  22  23
HETATM   23  N   UNK N   1      18.617  16.894   8.562  0.00  0.00    -0.424 N 
HETATM   24  H   UNK N   1      17.749  17.217   8.137  0.00  0.00     0.150 HD
HETATM   25  H   UNK N   1      18.382  16.305   9.361  0.00  0.00     0.150 HD
ENDBRANCH  22  23
ENDBRANCH   3  22
TORSDOF 7
ENDMDL
MODEL 4
REMARK VINA RESULT:      -6.0      5.378      9.878
REMARK  7 active torsions:
REMARK  status: ('A' for Active; 'I' for Inactive)
REMARK    1  A    between atoms: C_8  and  C_5 
REMARK    2  A    between atoms: C_11  and  C_6 
REMARK    3  A    between atoms: N_14  and  C_6 
REMARK    4  A    between atoms: C_12  and  C_7 
REMARK    5  A    between atoms: N_17  and  C_7 
REMARK    6  A    between atoms: O_18  and  C_9 
REMARK    7  A    between atoms: O_19  and  C_12 
ROOT
HETATM    1  C   UNK N   1      29.197  17.133   4.388  0.00  0.00     0.046 C 
HETATM    2  C   UNK N   1      28.232  18.048   4.595  0.00  0.00     0.103 A 
HETATM    3  C   UNK N   1      27.207  19.845   5.292  0.00  0.00     0.104 A 
HETATM    4  C   UNK N   1      26.899  18.057   4.017  0.00  0.00     0.276 A 
HETATM    5  N   UNK N   1      28.333  19.220   5.386  0.00  0.00    -0.340 N 
ATOM      6  HN  UNK N   1      29.146  19.515   5.929  1.00  0.00     0.167 HD
HETATM    7  N   UNK N   1      26.282  19.172   4.447  0.00  0.00    -0.290 N 
HETATM    8  O   UNK N   1      26.427  17.246   3.236  0.00  0.00    -0.265 OA
ENDROOT
BRANCH   1   9
HETATM    9  C   UNK N   1      30.573  17.223   4.942  0.00  0.00    -0.034 A 
HETATM   10  C   UNK N   1      30.842  17.046   6.309  0.00  0.00     0.014 A 
HETATM   11  C   UNK N   1      32.142  17.194   6.800  0.00  0.00     0.037 A 
HETATM   12  C   UNK N   1      33.184  17.522   5.929  0.00  0.00     0.065 A 
HETATM   13  C   UNK N   1      32.927  17.695   4.567  0.00  0.00     0.037 A 
HETATM   14  C   UNK N   1      31.626  17.549   4.077  0.00  0.00     0.014 A 
BRANCH  12  15
HETATM   15  O   UNK N   1      34.432  17.672   6.401  0.00  0.00    -0.361 OA
HETATM   16  H   UNK N   1      34.676  17.275   7.214  0.00  0.00     0.217 HD
ENDBRANCH  12  15
ENDBRANCH   1   9
BRANCH   7  17
HETATM   17  C   UNK N   1      24.980  19.671   4.045  0.00  0.00     0.243 C 
BRANCH  17  18
HETATM   18  C   UNK N   1      25.031  20.535   2.821  0.00  0.00     0.158 C 
HETATM   19  O   UNK N   1      26.097  20.966   2.415  0.00  0.00    -0.649 OA
BRANCH  18  20
HETATM   20  O   UNK N   1      23.888  20.904   2.216  0.00  0.00    -0.775 OA
HETATM   21  H   UNK N   1      23.696  21.533   1.549  0.00  0.00     0.167 HD
ENDBRANCH  18  20
ENDBRANCH  17  18
ENDBRANCH   7  17
BRANCH   3  22
HETATM   22  C   UNK N   1      26.950  21.151   5.975  0.00  0.00     0.188 C 
BRANCH  22  23
HETATM   23  N   UNK N   1      26.303  20.924   7.254  0.00  0.00    -0.424 N 
HETATM   24  H   UNK N   1      25.445  21.088   7.779  0.00  0.00     0.150 HD
HETATM   25  H   UNK N   1      26.949  20.407   7.851  0.00  0.00     0.150 HD
ENDBRANCH  22  23
ENDBRANCH   3  22
TORSDOF 7
ENDMDL
MODEL 5
REMARK VINA RESULT:      -5.7      4.436      6.608
REMARK  7 active torsions:
REMARK  status: ('A' for Active; 'I' for Inactive)
REMARK    1  A    between atoms: C_8  and  C_5 
REMARK    2  A    between atoms: C_11  and  C_6 
REMARK    3  A    between atoms: N_14  and  C_6 
REMARK    4  A    between atoms: C_12  and  C_7 
REMARK    5  A    between atoms: N_17  and  C_7 
REMARK    6  A    between atoms: O_18  and  C_9 
REMARK    7  A    between atoms: O_19  and  C_12 
ROOT
HETATM    1  C   UNK N   1      28.795  17.808   4.324  0.00  0.00     0.046 C 
HETATM    2  C   UNK N   1      29.283  17.689   5.573  0.00  0.00     0.103 A 
HETATM    3  C   UNK N   1      29.456  17.837   7.745  0.00  0.00     0.104 A 
HETATM    4  C   UNK N   1      30.481  16.973   5.978  0.00  0.00     0.276 A 
HETATM    5  N   UNK N   1      28.702  18.200   6.761  0.00  0.00    -0.340 N 
ATOM      6  HN  UNK N   1      27.846  18.752   6.826  1.00  0.00     0.167 HD
HETATM    7  N   UNK N   1      30.571  17.064   7.317  0.00  0.00    -0.290 N 
HETATM    8  O   UNK N   1      31.245  16.346   5.261  0.00  0.00    -0.265 OA
ENDROOT
BRANCH   1   9
HETATM    9  C   UNK N   1      27.517  18.483   3.984  0.00  0.00    -0.034 A 
HETATM   10  C   UNK N   1      27.429  19.873   3.803  0.00  0.00     0.014 A 
HETATM   11  C   UNK N   1      26.197  20.476   3.538  0.00  0.00     0.037 A 
HETATM   12  C   UNK N   1      25.041  19.696   3.452  0.00  0.00     0.065 A 
HETATM   13  C   UNK N   1      25.119  18.312   3.625  0.00  0.00     0.037 A 
HETATM   14  C   UNK N   1      26.351  17.710   3.892  0.00  0.00     0.014 A 
BRANCH  12  15
HETATM   15  O   UNK N   1      23.856  20.277   3.205  0.00  0.00    -0.361 OA
HETATM   16  H   UNK N   1      23.081  19.754   3.148  0.00  0.00     0.217 HD
ENDBRANCH  12  15
ENDBRANCH   1   9
BRANCH   7  17
HETATM   17  C   UNK N   1      31.534  16.411   8.183  0.00  0.00     0.243 C 
BRANCH  17  18
HETATM   18  C   UNK N   1      32.712  17.276   8.514  0.00  0.00     0.158 C 
HETATM   19  O   UNK N   1      32.980  18.245   7.821  0.00  0.00    -0.649 OA
BRANCH  18  20
HETATM   20  O   UNK N   1      33.527  16.938   9.529  0.00  0.00    -0.775 OA
HETATM   21  H   UNK N   1      33.373  16.749  10.433  0.00  0.00     0.167 HD
ENDBRANCH  18  20
ENDBRANCH  17  18
ENDBRANCH   7  17
BRANCH   3  22
HETATM   22  C   UNK N   1      29.142  18.171   9.168  0.00  0.00     0.188 C 
BRANCH  22  23
HETATM   23  N   UNK N   1      27.713  18.374   9.328  0.00  0.00    -0.424 N 
HETATM   24  H   UNK N   1      26.801  17.967   9.128  0.00  0.00     0.150 HD
HETATM   25  H   UNK N   1      27.569  19.252   9.827  0.00  0.00     0.150 HD
ENDBRANCH  22  23
ENDBRANCH   3  22
TORSDOF 7
ENDMDL
MODEL 6
REMARK VINA RESULT:      -5.6      3.352      8.112
REMARK  7 active torsions:
REMARK  status: ('A' for Active; 'I' for Inactive)
REMARK    1  A    between atoms: C_8  and  C_5 
REMARK    2  A    between atoms: C_11  and  C_6 
REMARK    3  A    between atoms: N_14  and  C_6 
REMARK    4  A    between atoms: C_12  and  C_7 
REMARK    5  A    between atoms: N_17  and  C_7 
REMARK    6  A    between atoms: O_18  and  C_9 
REMARK    7  A    between atoms: O_19  and  C_12 
ROOT
HETATM    1  C   UNK N   1      31.732  16.522   6.363  0.00  0.00     0.046 C 
HETATM    2  C   UNK N   1      30.485  17.029   6.360  0.00  0.00     0.103 A 
HETATM    3  C   UNK N   1      28.716  18.162   6.957  0.00  0.00     0.104 A 
HETATM    4  C   UNK N   1      29.480  16.871   5.324  0.00  0.00     0.276 A 
HETATM    5  N   UNK N   1      29.908  17.863   7.352  0.00  0.00    -0.340 N 
ATOM      6  HN  UNK N   1      30.355  18.171   8.217  1.00  0.00     0.167 HD
HETATM    7  N   UNK N   1      28.400  17.580   5.698  0.00  0.00    -0.290 N 
HETATM    8  O   UNK N   1      29.593  16.263   4.271  0.00  0.00    -0.265 OA
ENDROOT
BRANCH   1   9
HETATM    9  C   UNK N   1      32.745  16.789   7.416  0.00  0.00    -0.034 A 
HETATM   10  C   UNK N   1      33.559  17.934   7.398  0.00  0.00     0.014 A 
HETATM   11  C   UNK N   1      34.538  18.122   8.377  0.00  0.00     0.037 A 
HETATM   12  C   UNK N   1      34.714  17.166   9.381  0.00  0.00     0.065 A 
HETATM   13  C   UNK N   1      33.906  16.027   9.411  0.00  0.00     0.037 A 
HETATM   14  C   UNK N   1      32.928  15.839   8.430  0.00  0.00     0.014 A 
BRANCH  12  15
HETATM   15  O   UNK N   1      35.659  17.343  10.317  0.00  0.00    -0.361 OA
HETATM   16  H   UNK N   1      35.510  17.052  11.196  0.00  0.00     0.217 HD
ENDBRANCH  12  15
ENDBRANCH   1   9
BRANCH   7  17
HETATM   17  C   UNK N   1      27.191  17.818   4.933  0.00  0.00     0.243 C 
BRANCH  17  18
HETATM   18  C   UNK N   1      27.248  19.070   4.111  0.00  0.00     0.158 C 
HETATM   19  O   UNK N   1      26.275  19.432   3.471  0.00  0.00    -0.649 OA
BRANCH  18  20
HETATM   20  O   UNK N   1      28.402  19.753   4.013  0.00  0.00    -0.775 OA
HETATM   21  H   UNK N   1      29.128  19.863   4.595  0.00  0.00     0.167 HD
ENDBRANCH  18  20
ENDBRANCH  17  18
ENDBRANCH   7  17
BRANCH   3  22
HETATM   22  C   UNK N   1      27.808  19.057   7.739  0.00  0.00     0.188 C 
BRANCH  22  23
HETATM   23  N   UNK N   1      27.625  18.532   9.079  0.00  0.00    -0.424 N 
HETATM   24  H   UNK N   1      27.485  17.673   9.611  0.00  0.00     0.150 HD
HETATM   25  H   UNK N   1      27.643  19.314   9.734  0.00  0.00     0.150 HD
ENDBRANCH  22  23
ENDBRANCH   3  22
TORSDOF 7
ENDMDL
MODEL 7
REMARK VINA RESULT:      -5.5      2.930      3.650
REMARK  7 active torsions:
REMARK  status: ('A' for Active; 'I' for Inactive)
REMARK    1  A    between atoms: C_8  and  C_5 
REMARK    2  A    between atoms: C_11  and  C_6 
REMARK    3  A    between atoms: N_14  and  C_6 
REMARK    4  A    between atoms: C_12  and  C_7 
REMARK    5  A    between atoms: N_17  and  C_7 
REMARK    6  A    between atoms: O_18  and  C_9 
REMARK    7  A    between atoms: O_19  and  C_12 
ROOT
HETATM    1  C   UNK N   1      32.497  16.938   7.329  0.00  0.00     0.046 C 
HETATM    2  C   UNK N   1      33.415  16.324   8.098  0.00  0.00     0.103 A 
HETATM    3  C   UNK N   1      34.365  15.382   9.824  0.00  0.00     0.104 A 
HETATM    4  C   UNK N   1      34.712  15.823   7.678  0.00  0.00     0.276 A 
HETATM    5  N   UNK N   1      33.286  15.996   9.472  0.00  0.00    -0.340 N 
ATOM      6  HN  UNK N   1      32.487  16.207  10.071  1.00  0.00     0.167 HD
HETATM    7  N   UNK N   1      35.283  15.238   8.746  0.00  0.00    -0.290 N 
HETATM    8  O   UNK N   1      35.191  15.861   6.556  0.00  0.00    -0.265 OA
ENDROOT
BRANCH   1   9
HETATM    9  C   UNK N   1      31.150  17.353   7.799  0.00  0.00    -0.034 A 
HETATM   10  C   UNK N   1      29.971  16.915   7.173  0.00  0.00     0.014 A 
HETATM   11  C   UNK N   1      28.725  17.372   7.611  0.00  0.00     0.037 A 
HETATM   12  C   UNK N   1      28.646  18.271   8.677  0.00  0.00     0.065 A 
HETATM   13  C   UNK N   1      29.812  18.708   9.310  0.00  0.00     0.037 A 
HETATM   14  C   UNK N   1      31.058  18.252   8.870  0.00  0.00     0.014 A 
BRANCH  12  15
HETATM   15  O   UNK N   1      27.450  18.715   9.093  0.00  0.00    -0.361 OA
HETATM   16  H   UNK N   1      27.333  18.985   9.983  0.00  0.00     0.217 HD
ENDBRANCH  12  15
ENDBRANCH   1   9
BRANCH   7  17
HETATM   17  C   UNK N   1      36.529  14.496   8.785  0.00  0.00     0.243 C 
BRANCH  17  18
HETATM   18  C   UNK N   1      36.400  13.097   8.266  0.00  0.00     0.158 C 
HETATM   19  O   UNK N   1      36.988  12.759   7.252  0.00  0.00    -0.649 OA
BRANCH  18  20
HETATM   20  O   UNK N   1      35.568  12.232   8.872  0.00  0.00    -0.775 OA
HETATM   21  H   UNK N   1      35.500  11.298   8.858  0.00  0.00     0.167 HD
ENDBRANCH  18  20
ENDBRANCH  17  18
ENDBRANCH   7  17
BRANCH   3  22
HETATM   22  C   UNK N   1      34.579  14.854  11.207  0.00  0.00     0.188 C 
BRANCH  22  23
HETATM   23  N   UNK N   1      34.200  13.455  11.270  0.00  0.00    -0.424 N 
HETATM   24  H   UNK N   1      34.200  12.581  10.744  0.00  0.00     0.150 HD
HETATM   25  H   UNK N   1      33.774  13.280  12.180  0.00  0.00     0.150 HD
ENDBRANCH  22  23
ENDBRANCH   3  22
TORSDOF 7
ENDMDL
MODEL 8
REMARK VINA RESULT:      -5.5     11.711     14.004
REMARK  7 active torsions:
REMARK  status: ('A' for Active; 'I' for Inactive)
REMARK    1  A    between atoms: C_8  and  C_5 
REMARK    2  A    between atoms: C_11  and  C_6 
REMARK    3  A    between atoms: N_14  and  C_6 
REMARK    4  A    between atoms: C_12  and  C_7 
REMARK    5  A    between atoms: N_17  and  C_7 
REMARK    6  A    between atoms: O_18  and  C_9 
REMARK    7  A    between atoms: O_19  and  C_12 
ROOT
HETATM    1  C   UNK N   1      22.462  13.266   8.051  0.00  0.00     0.046 C 
HETATM    2  C   UNK N   1      21.790  14.377   7.696  0.00  0.00     0.103 A 
HETATM    3  C   UNK N   1      20.590  16.196   7.834  0.00  0.00     0.104 A 
HETATM    4  C   UNK N   1      21.727  14.974   6.374  0.00  0.00     0.276 A 
HETATM    5  N   UNK N   1      21.041  15.223   8.553  0.00  0.00    -0.340 N 
ATOM      6  HN  UNK N   1      20.888  15.088   9.553  1.00  0.00     0.167 HD
HETATM    7  N   UNK N   1      20.993  16.097   6.473  0.00  0.00    -0.290 N 
HETATM    8  O   UNK N   1      22.279  14.581   5.358  0.00  0.00    -0.265 OA
ENDROOT
BRANCH   1   9
HETATM    9  C   UNK N   1      22.558  12.751   9.441  0.00  0.00    -0.034 A 
HETATM   10  C   UNK N   1      21.422  12.531  10.238  0.00  0.00     0.014 A 
HETATM   11  C   UNK N   1      21.557  12.098  11.560  0.00  0.00     0.037 A 
HETATM   12  C   UNK N   1      22.829  11.884  12.098  0.00  0.00     0.065 A 
HETATM   13  C   UNK N   1      23.964  12.095  11.312  0.00  0.00     0.037 A 
HETATM   14  C   UNK N   1      23.828  12.529   9.991  0.00  0.00     0.014 A 
BRANCH  12  15
HETATM   15  O   UNK N   1      22.959  11.476  13.370  0.00  0.00    -0.361 OA
HETATM   16  H   UNK N   1      22.217  11.137  13.833  0.00  0.00     0.217 HD
ENDBRANCH  12  15
ENDBRANCH   1   9
BRANCH   7  17
HETATM   17  C   UNK N   1      20.751  17.088   5.441  0.00  0.00     0.243 C 
BRANCH  17  18
HETATM   18  C   UNK N   1      21.616  18.304   5.576  0.00  0.00     0.158 C 
HETATM   19  O   UNK N   1      21.152  19.415   5.376  0.00  0.00    -0.649 OA
BRANCH  18  20
HETATM   20  O   UNK N   1      22.928  18.167   5.836  0.00  0.00    -0.775 OA
HETATM   21  H   UNK N   1      23.437  17.462   6.185  0.00  0.00     0.167 HD
ENDBRANCH  18  20
ENDBRANCH  17  18
ENDBRANCH   7  17
BRANCH   3  22
HETATM   22  C   UNK N   1      19.772  17.311   8.405  0.00  0.00     0.188 C 
BRANCH  22  23
HETATM   23  N   UNK N   1      18.612  16.774   9.092  0.00  0.00    -0.424 N 
HETATM   24  H   UNK N   1      17.629  16.531   8.972  0.00  0.00     0.150 HD
HETATM   25  H   UNK N   1      18.879  16.560  10.052  0.00  0.00     0.150 HD
ENDBRANCH  22  23
ENDBRANCH   3  22
TORSDOF 7
ENDMDL
MODEL 9
REMARK VINA RESULT:      -5.4      4.465      9.532
REMARK  7 active torsions:
REMARK  status: ('A' for Active; 'I' for Inactive)
REMARK    1  A    between atoms: C_8  and  C_5 
REMARK    2  A    between atoms: C_11  and  C_6 
REMARK    3  A    between atoms: N_14  and  C_6 
REMARK    4  A    between atoms: C_12  and  C_7 
REMARK    5  A    between atoms: N_17  and  C_7 
REMARK    6  A    between atoms: O_18  and  C_9 
REMARK    7  A    between atoms: O_19  and  C_12 
ROOT
HETATM    1  C   UNK N   1      36.017  13.562  15.815  0.00  0.00     0.046 C 
HETATM    2  C   UNK N   1      35.765  13.277  14.524  0.00  0.00     0.103 A 
HETATM    3  C   UNK N   1      35.088  12.218  12.738  0.00  0.00     0.104 A 
HETATM    4  C   UNK N   1      35.968  14.150  13.381  0.00  0.00     0.276 A 
HETATM    5  N   UNK N   1      35.204  12.078  14.017  0.00  0.00    -0.340 N 
ATOM      6  HN  UNK N   1      34.938  11.256  14.562  1.00  0.00     0.167 HD
HETATM    7  N   UNK N   1      35.540  13.490  12.290  0.00  0.00    -0.290 N 
HETATM    8  O   UNK N   1      36.391  15.295  13.392  0.00  0.00    -0.265 OA
ENDROOT
BRANCH   1   9
HETATM    9  C   UNK N   1      35.707  12.657  16.951  0.00  0.00    -0.034 A 
HETATM   10  C   UNK N   1      35.222  13.135  18.180  0.00  0.00     0.014 A 
HETATM   11  C   UNK N   1      34.996  12.256  19.242  0.00  0.00     0.037 A 
HETATM   12  C   UNK N   1      35.253  10.891  19.087  0.00  0.00     0.065 A 
HETATM   13  C   UNK N   1      35.731  10.405  17.868  0.00  0.00     0.037 A 
HETATM   14  C   UNK N   1      35.959  11.286  16.806  0.00  0.00     0.014 A 
BRANCH  12  15
HETATM   15  O   UNK N   1      35.043  10.048  20.110  0.00  0.00    -0.361 OA
HETATM   16  H   UNK N   1      34.787   9.162  19.943  0.00  0.00     0.217 HD
ENDBRANCH  12  15
ENDBRANCH   1   9
BRANCH   7  17
HETATM   17  C   UNK N   1      35.437  13.999  10.935  0.00  0.00     0.243 C 
BRANCH  17  18
HETATM   18  C   UNK N   1      34.445  15.114  10.797  0.00  0.00     0.158 C 
HETATM   19  O   UNK N   1      34.813  16.228  10.463  0.00  0.00    -0.649 OA
BRANCH  18  20
HETATM   20  O   UNK N   1      33.157  14.908  11.123  0.00  0.00    -0.775 OA
HETATM   21  H   UNK N   1      32.360  14.959  10.632  0.00  0.00     0.167 HD
ENDBRANCH  18  20
ENDBRANCH  17  18
ENDBRANCH   7  17
BRANCH   3  22
HETATM   22  C   UNK N   1      34.503  11.159  11.860  0.00  0.00     0.188 C 
BRANCH  22  23
HETATM   23  N   UNK N   1      33.572  10.343  12.617  0.00  0.00    -0.424 N 
HETATM   24  H   UNK N   1      33.494   9.720  13.421  0.00  0.00     0.150 HD
HETATM   25  H   UNK N   1      32.652  10.424  12.185  0.00  0.00     0.150 HD
ENDBRANCH  22  23
ENDBRANCH   3  22
TORSDOF 7
ENDMDL
