MODEL 1
REMARK VINA RESULT:      -8.1      0.000      0.000
REMARK  10 active torsions:
REMARK  status: ('A' for Active; 'I' for Inactive)
REMARK    1  A    between atoms: C_24  and  C_25 
REMARK    2  A    between atoms: C_27  and  C_28 
REMARK    3  A    between atoms: C_30  and  C_31 
REMARK    4  A    between atoms: C_31  and  C_32 
REMARK    5  A    between atoms: C_32  and  C_37 
REMARK    6  A    between atoms: C_33  and  C_34 
REMARK    7  A    between atoms: C_34  and  C_35 
REMARK    8  A    between atoms: C_35  and  C_40 
REMARK    9  A    between atoms: C_37  and  O_36 
REMARK   10  A    between atoms: C_40  and  O_39 
ROOT
HETATM    1  C   UNK N   1      25.203  15.011   2.774  0.00  0.00     0.066 A 
HETATM    2  C   UNK N   1      26.001  13.203   1.925  0.00  0.00     0.070 A 
HETATM    3  C   UNK N   1      26.948  12.230   1.401  0.00  0.00     0.064 A 
HETATM    4  C   UNK N   1      28.266  12.348   1.547  0.00  0.00     0.066 A 
HETATM    5  C   UNK N   1      30.222  13.031   2.156  0.00  0.00     0.070 A 
HETATM    6  C   UNK N   1      31.312  13.747   2.813  0.00  0.00     0.064 A 
HETATM    7  C   UNK N   1      31.153  14.818   3.568  0.00  0.00     0.066 A 
HETATM    8  C   UNK N   1      30.289  16.520   4.537  0.00  0.00     0.066 A 
HETATM    9  C   UNK N   1      29.463  17.476   4.876  0.00  0.00     0.064 A 
HETATM   10  C   UNK N   1      28.069  17.520   4.503  0.00  0.00     0.066 A 
HETATM   11  C   UNK N   1      26.102  16.999   3.844  0.00  0.00     0.066 A 
HETATM   12  C   UNK N   1      25.078  16.331   3.357  0.00  0.00     0.064 A 
HETATM   13  N   UNK N   1      28.898  13.333   2.240  0.00  0.00    -0.248 N 
HETATM   14  N   UNK N   1      29.971  15.430   3.800  0.00  0.00    -0.248 N 
HETATM   15  N   UNK N   1      27.373  16.541   3.888  0.00  0.00    -0.248 N 
HETATM   16  C   UNK N   1      24.140  14.352   2.208  0.00  0.00    -0.021 A 
HETATM   17  C   UNK N   1      22.724  14.822   2.149  0.00  0.00     0.052 C 
HETATM   18  C   UNK N   1      29.183  11.467   0.999  0.00  0.00    -0.021 A 
HETATM   19  C   UNK N   1      28.876  10.267   0.163  0.00  0.00     0.052 C 
HETATM   20  C   UNK N   1      32.190  15.482   4.208  0.00  0.00    -0.025 A 
HETATM   21  C   UNK N   1      33.642  15.132   4.189  0.00  0.00     0.051 C 
HETATM   22  C   UNK N   1      26.019  18.286   4.346  0.00  0.00    -0.025 A 
HETATM   23  C   UNK N   1      24.794  19.140   4.388  0.00  0.00     0.051 C 
HETATM   24  C   UNK N   1      24.626  13.197   1.676  0.00  0.00     0.000 A 
HETATM   25  C   UNK N   1      30.430  11.914   1.374  0.00  0.00     0.000 A 
HETATM   26  C   UNK N   1      27.294  18.624   4.737  0.00  0.00    -0.021 A 
HETATM   27  C   UNK N   1      31.627  16.546   4.853  0.00  0.00    -0.021 A 
HETATM   28  N   UNK N   1      26.358  14.316   2.617  0.00  0.00    -0.248 N 
HETATM   29 Zn   UNK N   1      28.175  14.898   3.199  0.00  0.00     0.000 Zn
ENDROOT
BRANCH  26  30
HETATM   30  C   UNK N   1      27.874  19.913   5.254  0.00  0.00     0.052 C 
BRANCH  30  31
HETATM   31  C   UNK N   1      27.778  20.132   6.742  0.00  0.00     0.115 C 
BRANCH  31  32
HETATM   32  C   UNK N   1      26.627  21.037   6.978  0.00  0.00     0.139 C 
HETATM   33  O   UNK N   1      26.354  21.906   6.165  0.00  0.00    -0.650 OA
BRANCH  32  34
HETATM   34  O   UNK N   1      25.913  20.928   8.110  0.00  0.00    -0.776 OA
HETATM   35  H   UNK N   1      25.061  20.537   8.123  0.00  0.00     0.167 HD
ENDBRANCH  32  34
ENDBRANCH  31  32
ENDBRANCH  30  31
ENDBRANCH  26  30
BRANCH  27  36
HETATM   36  C   UNK N   1      32.322  17.532   5.743  0.00  0.00     0.052 C 
BRANCH  36  37
HETATM   37  C   UNK N   1      32.341  17.114   7.194  0.00  0.00     0.115 C 
BRANCH  37  38
HETATM   38  C   UNK N   1      33.572  17.692   7.801  0.00  0.00     0.139 C 
HETATM   39  O   UNK N   1      34.462  18.122   7.085  0.00  0.00    -0.650 OA
BRANCH  38  40
HETATM   40  O   UNK N   1      33.724  17.698   9.138  0.00  0.00    -0.776 OA
HETATM   41  H   UNK N   1      34.131  18.428   9.562  0.00  0.00     0.167 HD
ENDBRANCH  38  40
ENDBRANCH  37  38
ENDBRANCH  36  37
ENDBRANCH  27  36
BRANCH  25  42
HETATM   42  C   UNK N   1      31.761  11.362   1.037  0.00  0.00     0.004 C 
HETATM   43  C   UNK N   1      32.435  11.719  -0.054  0.00  0.00     0.012 C 
ENDBRANCH  25  42
BRANCH  24  44
HETATM   44  C   UNK N   1      23.771  12.226   0.965  0.00  0.00     0.004 C 
HETATM   45  C   UNK N   1      23.577  12.293  -0.347  0.00  0.00     0.012 C 
ENDBRANCH  24  44
TORSDOF 10
ENDMDL
MODEL 2
REMARK VINA RESULT:      -8.0      0.858      6.273
REMARK  10 active torsions:
REMARK  status: ('A' for Active; 'I' for Inactive)
REMARK    1  A    between atoms: C_24  and  C_25 
REMARK    2  A    between atoms: C_27  and  C_28 
REMARK    3  A    between atoms: C_30  and  C_31 
REMARK    4  A    between atoms: C_31  and  C_32 
REMARK    5  A    between atoms: C_32  and  C_37 
REMARK    6  A    between atoms: C_33  and  C_34 
REMARK    7  A    between atoms: C_34  and  C_35 
REMARK    8  A    between atoms: C_35  and  C_40 
REMARK    9  A    between atoms: C_37  and  O_36 
REMARK   10  A    between atoms: C_40  and  O_39 
ROOT
HETATM    1  C   UNK N   1      31.193  12.771   2.321  0.00  0.00     0.066 A 
HETATM    2  C   UNK N   1      29.342  12.016   1.526  0.00  0.00     0.070 A 
HETATM    3  C   UNK N   1      27.917  11.836   1.290  0.00  0.00     0.064 A 
HETATM    4  C   UNK N   1      26.996  12.697   1.719  0.00  0.00     0.066 A 
HETATM    5  C   UNK N   1      26.028  14.429   2.570  0.00  0.00     0.070 A 
HETATM    6  C   UNK N   1      25.771  15.741   3.157  0.00  0.00     0.064 A 
HETATM    7  C   UNK N   1      26.710  16.557   3.599  0.00  0.00     0.066 A 
HETATM    8  C   UNK N   1      28.600  17.341   4.228  0.00  0.00     0.066 A 
HETATM    9  C   UNK N   1      29.857  17.435   4.579  0.00  0.00     0.064 A 
HETATM   10  C   UNK N   1      30.841  16.400   4.372  0.00  0.00     0.066 A 
HETATM   11  C   UNK N   1      31.883  14.667   3.673  0.00  0.00     0.066 A 
HETATM   12  C   UNK N   1      32.173  13.540   3.060  0.00  0.00     0.064 A 
HETATM   13  N   UNK N   1      27.249  13.866   2.365  0.00  0.00    -0.248 N 
HETATM   14  N   UNK N   1      28.032  16.277   3.615  0.00  0.00    -0.248 N 
HETATM   15  N   UNK N   1      30.668  15.259   3.671  0.00  0.00    -0.248 N 
HETATM   16  C   UNK N   1      31.489  11.561   1.742  0.00  0.00    -0.021 A 
HETATM   17  C   UNK N   1      32.819  10.883   1.717  0.00  0.00     0.052 C 
HETATM   18  C   UNK N   1      25.633  12.508   1.561  0.00  0.00    -0.021 A 
HETATM   19  C   UNK N   1      24.965  11.340   0.912  0.00  0.00     0.052 C 
HETATM   20  C   UNK N   1      26.462  17.812   4.136  0.00  0.00    -0.025 A 
HETATM   21  C   UNK N   1      25.138  18.482   4.309  0.00  0.00     0.051 C 
HETATM   22  C   UNK N   1      32.785  15.385   4.439  0.00  0.00    -0.025 A 
HETATM   23  C   UNK N   1      34.198  14.999   4.734  0.00  0.00     0.051 C 
HETATM   24  C   UNK N   1      30.329  11.075   1.222  0.00  0.00     0.000 A 
HETATM   25  C   UNK N   1      25.017  13.605   2.120  0.00  0.00     0.000 A 
HETATM   26  C   UNK N   1      32.096  16.479   4.910  0.00  0.00    -0.021 A 
HETATM   27  C   UNK N   1      27.676  18.321   4.503  0.00  0.00    -0.021 A 
HETATM   28  N   UNK N   1      29.876  13.073   2.191  0.00  0.00    -0.248 N 
HETATM   29 Zn   UNK N   1      28.955  14.680   2.931  0.00  0.00     0.000 Zn
ENDROOT
BRANCH  26  30
HETATM   30  C   UNK N   1      32.485  17.567   5.875  0.00  0.00     0.052 C 
BRANCH  30  31
HETATM   31  C   UNK N   1      32.453  17.199   7.335  0.00  0.00     0.115 C 
BRANCH  31  32
HETATM   32  C   UNK N   1      33.692  17.736   7.950  0.00  0.00     0.139 C 
HETATM   33  O   UNK N   1      34.554  18.242   7.249  0.00  0.00    -0.650 OA
BRANCH  32  34
HETATM   34  O   UNK N   1      33.883  17.623   9.275  0.00  0.00    -0.776 OA
HETATM   35  H   UNK N   1      33.333  17.087   9.811  0.00  0.00     0.167 HD
ENDBRANCH  32  34
ENDBRANCH  31  32
ENDBRANCH  30  31
ENDBRANCH  26  30
BRANCH  27  36
HETATM   36  C   UNK N   1      27.948  19.681   5.071  0.00  0.00     0.052 C 
BRANCH  36  37
HETATM   37  C   UNK N   1      27.773  19.746   6.570  0.00  0.00     0.115 C 
BRANCH  37  38
HETATM   38  C   UNK N   1      26.827  20.862   6.853  0.00  0.00     0.139 C 
HETATM   39  O   UNK N   1      26.776  21.823   6.103  0.00  0.00    -0.650 OA
BRANCH  38  40
HETATM   40  O   UNK N   1      26.065  20.834   7.961  0.00  0.00    -0.776 OA
HETATM   41  H   UNK N   1      25.345  21.427   8.052  0.00  0.00     0.167 HD
ENDBRANCH  38  40
ENDBRANCH  37  38
ENDBRANCH  36  37
ENDBRANCH  27  36
BRANCH  25  42
HETATM   42  C   UNK N   1      23.574  13.900   2.251  0.00  0.00     0.004 C 
HETATM   43  C   UNK N   1      22.846  14.399   1.253  0.00  0.00     0.012 C 
ENDBRANCH  25  42
BRANCH  24  44
HETATM   44  C   UNK N   1      30.251   9.775   0.527  0.00  0.00     0.004 C 
HETATM   45  C   UNK N   1      30.171   9.691  -0.796  0.00  0.00     0.012 C 
ENDBRANCH  24  44
TORSDOF 10
ENDMDL
MODEL 3
REMARK VINA RESULT:      -7.3      2.311      6.558
REMARK  10 active torsions:
REMARK  status: ('A' for Active; 'I' for Inactive)
REMARK    1  A    between atoms: C_24  and  C_25 
REMARK    2  A    between atoms: C_27  and  C_28 
REMARK    3  A    between atoms: C_30  and  C_31 
REMARK    4  A    between atoms: C_31  and  C_32 
REMARK    5  A    between atoms: C_32  and  C_37 
REMARK    6  A    between atoms: C_33  and  C_34 
REMARK    7  A    between atoms: C_34  and  C_35 
REMARK    8  A    between atoms: C_35  and  C_40 
REMARK    9  A    between atoms: C_37  and  O_36 
REMARK   10  A    between atoms: C_40  and  O_39 
ROOT
HETATM    1  C   UNK N   1      30.514  14.216   4.214  0.00  0.00     0.066 A 
HETATM    2  C   UNK N   1      29.724  12.738   2.865  0.00  0.00     0.070 A 
HETATM    3  C   UNK N   1      28.777  11.923   2.118  0.00  0.00     0.064 A 
HETATM    4  C   UNK N   1      27.478  12.206   2.040  0.00  0.00     0.066 A 
HETATM    5  C   UNK N   1      25.569  13.197   2.217  0.00  0.00     0.070 A 
HETATM    6  C   UNK N   1      24.521  14.180   2.483  0.00  0.00     0.064 A 
HETATM    7  C   UNK N   1      24.706  15.305   3.147  0.00  0.00     0.066 A 
HETATM    8  C   UNK N   1      25.581  16.840   4.356  0.00  0.00     0.066 A 
HETATM    9  C   UNK N   1      26.388  17.492   5.153  0.00  0.00     0.064 A 
HETATM   10  C   UNK N   1      27.728  17.068   5.480  0.00  0.00     0.066 A 
HETATM   11  C   UNK N   1      29.636  16.099   5.472  0.00  0.00     0.066 A 
HETATM   12  C   UNK N   1      30.634  15.297   5.171  0.00  0.00     0.064 A 
HETATM   13  N   UNK N   1      26.876  13.300   2.577  0.00  0.00    -0.248 N 
HETATM   14  N   UNK N   1      25.873  15.686   3.712  0.00  0.00    -0.248 N 
HETATM   15  N   UNK N   1      28.403  16.041   4.921  0.00  0.00    -0.248 N 
HETATM   16  C   UNK N   1      31.542  13.342   3.957  0.00  0.00    -0.021 A 
HETATM   17  C   UNK N   1      32.917  13.381   4.539  0.00  0.00     0.052 C 
HETATM   18  C   UNK N   1      26.554  11.406   1.389  0.00  0.00    -0.021 A 
HETATM   19  C   UNK N   1      26.830  10.116   0.688  0.00  0.00     0.052 C 
HETATM   20  C   UNK N   1      23.712  16.246   3.379  0.00  0.00    -0.025 A 
HETATM   21  C   UNK N   1      22.287  16.191   2.935  0.00  0.00     0.051 C 
HETATM   22  C   UNK N   1      29.706  17.096   6.429  0.00  0.00    -0.025 A 
HETATM   23  C   UNK N   1      30.882  17.406   7.298  0.00  0.00     0.051 C 
HETATM   24  C   UNK N   1      31.062  12.406   3.093  0.00  0.00     0.000 A 
HETATM   25  C   UNK N   1      25.334  12.031   1.518  0.00  0.00     0.000 A 
HETATM   26  C   UNK N   1      28.466  17.690   6.450  0.00  0.00    -0.021 A 
HETATM   27  C   UNK N   1      24.286  17.239   4.120  0.00  0.00    -0.021 A 
HETATM   28  N   UNK N   1      29.387  13.866   3.544  0.00  0.00    -0.248 N 
HETATM   29 Zn   UNK N   1      27.617  14.779   3.653  0.00  0.00     0.000 Zn
ENDROOT
BRANCH  26  30
HETATM   30  C   UNK N   1      27.879  18.753   7.341  0.00  0.00     0.052 C 
BRANCH  30  31
HETATM   31  C   UNK N   1      27.997  20.171   6.846  0.00  0.00     0.115 C 
BRANCH  31  32
HETATM   32  C   UNK N   1      26.642  20.770   6.904  0.00  0.00     0.139 C 
HETATM   33  O   UNK N   1      26.114  21.191   5.886  0.00  0.00    -0.650 OA
BRANCH  32  34
HETATM   34  O   UNK N   1      26.014  20.890   8.086  0.00  0.00    -0.776 OA
HETATM   35  H   UNK N   1      26.377  21.389   8.790  0.00  0.00     0.167 HD
ENDBRANCH  32  34
ENDBRANCH  31  32
ENDBRANCH  30  31
ENDBRANCH  26  30
BRANCH  27  36
HETATM   36  C   UNK N   1      23.642  18.515   4.570  0.00  0.00     0.052 C 
BRANCH  36  37
HETATM   37  C   UNK N   1      23.801  19.643   3.578  0.00  0.00     0.115 C 
BRANCH  37  38
HETATM   38  C   UNK N   1      22.434  20.023   3.123  0.00  0.00     0.139 C 
HETATM   39  O   UNK N   1      22.284  20.609   2.063  0.00  0.00    -0.650 OA
BRANCH  38  40
HETATM   40  O   UNK N   1      21.369  19.765   3.904  0.00  0.00    -0.776 OA
HETATM   41  H   UNK N   1      21.491  19.437   4.773  0.00  0.00     0.167 HD
ENDBRANCH  38  40
ENDBRANCH  37  38
ENDBRANCH  36  37
ENDBRANCH  27  36
BRANCH  25  42
HETATM   42  C   UNK N   1      24.005  11.594   1.037  0.00  0.00     0.004 C 
HETATM   43  C   UNK N   1      23.591  11.788  -0.214  0.00  0.00     0.012 C 
ENDBRANCH  25  42
BRANCH  24  44
HETATM   44  C   UNK N   1      31.883  11.285   2.597  0.00  0.00     0.004 C 
HETATM   45  C   UNK N   1      31.843  10.084   3.162  0.00  0.00     0.012 C 
ENDBRANCH  24  44
TORSDOF 10
ENDMDL
MODEL 4
REMARK VINA RESULT:      -7.3     12.999     15.043
REMARK  10 active torsions:
REMARK  status: ('A' for Active; 'I' for Inactive)
REMARK    1  A    between atoms: C_24  and  C_25 
REMARK    2  A    between atoms: C_27  and  C_28 
REMARK    3  A    between atoms: C_30  and  C_31 
REMARK    4  A    between atoms: C_31  and  C_32 
REMARK    5  A    between atoms: C_32  and  C_37 
REMARK    6  A    between atoms: C_33  and  C_34 
REMARK    7  A    between atoms: C_34  and  C_35 
REMARK    8  A    between atoms: C_35  and  C_40 
REMARK    9  A    between atoms: C_37  and  O_36 
REMARK   10  A    between atoms: C_40  and  O_39 
ROOT
HETATM    1  C   UNK N   1      31.962  26.994  -6.018  0.00  0.00     0.066 A 
HETATM    2  C   UNK N   1      33.547  25.605  -5.591  0.00  0.00     0.070 A 
HETATM    3  C   UNK N   1      34.250  24.358  -5.323  0.00  0.00     0.064 A 
HETATM    4  C   UNK N   1      33.701  23.160  -5.512  0.00  0.00     0.066 A 
HETATM    5  C   UNK N   1      32.345  21.578  -6.077  0.00  0.00     0.070 A 
HETATM    6  C   UNK N   1      31.221  20.831  -6.636  0.00  0.00     0.064 A 
HETATM    7  C   UNK N   1      30.140  21.386  -7.152  0.00  0.00     0.066 A 
HETATM    8  C   UNK N   1      28.654  22.820  -7.715  0.00  0.00     0.066 A 
HETATM    9  C   UNK N   1      27.962  23.926  -7.812  0.00  0.00     0.064 A 
HETATM   10  C   UNK N   1      28.422  25.218  -7.364  0.00  0.00     0.066 A 
HETATM   11  C   UNK N   1      29.640  26.854  -6.717  0.00  0.00     0.066 A 
HETATM   12  C   UNK N   1      30.668  27.571  -6.320  0.00  0.00     0.064 A 
HETATM   13  N   UNK N   1      32.464  22.932  -6.028  0.00  0.00    -0.248 N 
HETATM   14  N   UNK N   1      29.899  22.714  -7.194  0.00  0.00    -0.248 N 
HETATM   15  N   UNK N   1      29.661  25.518  -6.920  0.00  0.00    -0.248 N 
HETATM   16  C   UNK N   1      33.009  27.742  -5.539  0.00  0.00    -0.021 A 
HETATM   17  C   UNK N   1      33.024  29.219  -5.312  0.00  0.00     0.052 C 
HETATM   18  C   UNK N   1      34.331  21.967  -5.201  0.00  0.00    -0.021 A 
HETATM   19  C   UNK N   1      35.692  21.808  -4.606  0.00  0.00     0.052 C 
HETATM   20  C   UNK N   1      29.085  20.672  -7.702  0.00  0.00    -0.025 A 
HETATM   21  C   UNK N   1      28.959  19.189  -7.831  0.00  0.00     0.051 C 
HETATM   22  C   UNK N   1      28.377  27.372  -6.948  0.00  0.00    -0.025 A 
HETATM   23  C   UNK N   1      27.956  28.792  -6.753  0.00  0.00     0.051 C 
HETATM   24  C   UNK N   1      34.027  26.879  -5.275  0.00  0.00     0.000 A 
HETATM   25  C   UNK N   1      33.457  20.960  -5.546  0.00  0.00     0.000 A 
HETATM   26  C   UNK N   1      27.594  26.308  -7.331  0.00  0.00    -0.021 A 
HETATM   27  C   UNK N   1      28.156  21.595  -8.090  0.00  0.00    -0.021 A 
HETATM   28  N   UNK N   1      32.276  25.675  -6.066  0.00  0.00    -0.248 N 
HETATM   29 Zn   UNK N   1      31.063  24.191  -6.616  0.00  0.00     0.000 Zn
ENDROOT
BRANCH  26  30
HETATM   30  C   UNK N   1      26.119  26.199  -7.611  0.00  0.00     0.052 C 
BRANCH  30  31
HETATM   31  C   UNK N   1      25.201  26.607  -6.488  0.00  0.00     0.115 C 
BRANCH  31  32
HETATM   32  C   UNK N   1      25.441  25.669  -5.364  0.00  0.00     0.139 C 
HETATM   33  O   UNK N   1      25.958  26.069  -4.333  0.00  0.00    -0.650 OA
BRANCH  32  34
HETATM   34  O   UNK N   1      25.128  24.370  -5.500  0.00  0.00    -0.776 OA
HETATM   35  H   UNK N   1      25.550  23.822  -6.132  0.00  0.00     0.167 HD
ENDBRANCH  32  34
ENDBRANCH  31  32
ENDBRANCH  30  31
ENDBRANCH  26  30
BRANCH  27  36
HETATM   36  C   UNK N   1      26.863  21.329  -8.802  0.00  0.00     0.052 C 
BRANCH  36  37
HETATM   37  C   UNK N   1      25.835  20.646  -7.931  0.00  0.00     0.115 C 
BRANCH  37  38
HETATM   38  C   UNK N   1      24.809  21.668  -7.582  0.00  0.00     0.139 C 
HETATM   39  O   UNK N   1      24.220  21.602  -6.515  0.00  0.00    -0.650 OA
BRANCH  38  40
HETATM   40  O   UNK N   1      24.496  22.637  -8.462  0.00  0.00    -0.776 OA
HETATM   41  H   UNK N   1      24.468  23.532  -8.186  0.00  0.00     0.167 HD
ENDBRANCH  38  40
ENDBRANCH  37  38
ENDBRANCH  36  37
ENDBRANCH  27  36
BRANCH  25  42
HETATM   42  C   UNK N   1      33.614  19.497  -5.397  0.00  0.00     0.004 C 
HETATM   43  C   UNK N   1      33.787  18.905  -4.217  0.00  0.00     0.012 C 
ENDBRANCH  25  42
BRANCH  24  44
HETATM   44  C   UNK N   1      35.325  27.320  -4.727  0.00  0.00     0.004 C 
HETATM   45  C   UNK N   1      36.387  27.501  -5.503  0.00  0.00     0.012 C 
ENDBRANCH  24  44
TORSDOF 10
ENDMDL
MODEL 5
REMARK VINA RESULT:      -7.2      4.220      8.456
REMARK  10 active torsions:
REMARK  status: ('A' for Active; 'I' for Inactive)
REMARK    1  A    between atoms: C_24  and  C_25 
REMARK    2  A    between atoms: C_27  and  C_28 
REMARK    3  A    between atoms: C_30  and  C_31 
REMARK    4  A    between atoms: C_31  and  C_32 
REMARK    5  A    between atoms: C_32  and  C_37 
REMARK    6  A    between atoms: C_33  and  C_34 
REMARK    7  A    between atoms: C_34  and  C_35 
REMARK    8  A    between atoms: C_35  and  C_40 
REMARK    9  A    between atoms: C_37  and  O_36 
REMARK   10  A    between atoms: C_40  and  O_39 
ROOT
HETATM    1  C   UNK N   1      25.687  17.547   4.250  0.00  0.00     0.066 A 
HETATM    2  C   UNK N   1      27.426  16.411   3.694  0.00  0.00     0.070 A 
HETATM    3  C   UNK N   1      28.264  15.308   3.244  0.00  0.00     0.064 A 
HETATM    4  C   UNK N   1      27.774  14.207   2.678  0.00  0.00     0.066 A 
HETATM    5  C   UNK N   1      26.435  12.766   1.787  0.00  0.00     0.070 A 
HETATM    6  C   UNK N   1      25.261  12.116   1.212  0.00  0.00     0.064 A 
HETATM    7  C   UNK N   1      24.044  12.627   1.225  0.00  0.00     0.066 A 
HETATM    8  C   UNK N   1      22.361  13.875   1.662  0.00  0.00     0.066 A 
HETATM    9  C   UNK N   1      21.589  14.785   2.198  0.00  0.00     0.064 A 
HETATM   10  C   UNK N   1      22.056  15.852   3.050  0.00  0.00     0.066 A 
HETATM   11  C   UNK N   1      23.279  17.283   4.065  0.00  0.00     0.066 A 
HETATM   12  C   UNK N   1      24.321  17.955   4.507  0.00  0.00     0.064 A 
HETATM   13  N   UNK N   1      26.463  13.986   2.388  0.00  0.00    -0.248 N 
HETATM   14  N   UNK N   1      23.704  13.796   1.811  0.00  0.00    -0.248 N 
HETATM   15  N   UNK N   1      23.343  16.166   3.308  0.00  0.00    -0.248 N 
HETATM   16  C   UNK N   1      26.766  18.217   4.772  0.00  0.00    -0.021 A 
HETATM   17  C   UNK N   1      26.733  19.457   5.604  0.00  0.00     0.052 C 
HETATM   18  C   UNK N   1      28.550  13.123   2.305  0.00  0.00    -0.021 A 
HETATM   19  C   UNK N   1      30.028  12.986   2.472  0.00  0.00     0.052 C 
HETATM   20  C   UNK N   1      22.935  12.014   0.658  0.00  0.00    -0.025 A 
HETATM   21  C   UNK N   1      22.889  10.709  -0.067  0.00  0.00     0.051 C 
HETATM   22  C   UNK N   1      21.966  17.616   4.352  0.00  0.00    -0.025 A 
HETATM   23  C   UNK N   1      21.509  18.741   5.223  0.00  0.00     0.051 C 
HETATM   24  C   UNK N   1      27.878  17.517   4.418  0.00  0.00     0.000 A 
HETATM   25  C   UNK N   1      27.691  12.198   1.753  0.00  0.00     0.000 A 
HETATM   26  C   UNK N   1      21.190  16.671   3.722  0.00  0.00    -0.021 A 
HETATM   27  C   UNK N   1      21.872  12.833   0.909  0.00  0.00    -0.021 A 
HETATM   28  N   UNK N   1      26.073  16.435   3.575  0.00  0.00    -0.248 N 
HETATM   29 Zn   UNK N   1      24.869  15.102   2.708  0.00  0.00     0.000 Zn
ENDROOT
BRANCH  26  30
HETATM   30  C   UNK N   1      19.705  16.421   3.741  0.00  0.00     0.052 C 
BRANCH  30  31
HETATM   31  C   UNK N   1      19.246  15.225   4.533  0.00  0.00     0.115 C 
BRANCH  31  32
HETATM   32  C   UNK N   1      18.750  15.728   5.838  0.00  0.00     0.139 C 
HETATM   33  O   UNK N   1      19.518  15.851   6.779  0.00  0.00    -0.650 OA
BRANCH  32  34
HETATM   34  O   UNK N   1      17.445  16.004   5.995  0.00  0.00    -0.776 OA
HETATM   35  H   UNK N   1      17.136  16.879   6.124  0.00  0.00     0.167 HD
ENDBRANCH  32  34
ENDBRANCH  31  32
ENDBRANCH  30  31
ENDBRANCH  26  30
BRANCH  27  36
HETATM   36  C   UNK N   1      20.460  12.646   0.443  0.00  0.00     0.052 C 
BRANCH  36  37
HETATM   37  C   UNK N   1      19.631  11.800   1.380  0.00  0.00     0.115 C 
BRANCH  37  38
HETATM   38  C   UNK N   1      18.511  12.653   1.866  0.00  0.00     0.139 C 
HETATM   39  O   UNK N   1      17.734  12.223   2.703  0.00  0.00    -0.650 OA
BRANCH  38  40
HETATM   40  O   UNK N   1      18.326  13.881   1.348  0.00  0.00    -0.776 OA
HETATM   41  H   UNK N   1      17.900  13.982   0.519  0.00  0.00     0.167 HD
ENDBRANCH  38  40
ENDBRANCH  37  38
ENDBRANCH  36  37
ENDBRANCH  27  36
BRANCH  25  42
HETATM   42  C   UNK N   1      27.988  10.850   1.221  0.00  0.00     0.004 C 
HETATM   43  C   UNK N   1      28.700  10.652   0.112  0.00  0.00     0.012 C 
ENDBRANCH  25  42
BRANCH  24  44
HETATM   44  C   UNK N   1      29.239  17.928   4.816  0.00  0.00     0.004 C 
HETATM   45  C   UNK N   1      29.840  17.419   5.885  0.00  0.00     0.012 C 
ENDBRANCH  24  44
TORSDOF 10
ENDMDL
MODEL 6
REMARK VINA RESULT:      -7.2     11.642     15.122
REMARK  10 active torsions:
REMARK  status: ('A' for Active; 'I' for Inactive)
REMARK    1  A    between atoms: C_24  and  C_25 
REMARK    2  A    between atoms: C_27  and  C_28 
REMARK    3  A    between atoms: C_30  and  C_31 
REMARK    4  A    between atoms: C_31  and  C_32 
REMARK    5  A    between atoms: C_32  and  C_37 
REMARK    6  A    between atoms: C_33  and  C_34 
REMARK    7  A    between atoms: C_34  and  C_35 
REMARK    8  A    between atoms: C_35  and  C_40 
REMARK    9  A    between atoms: C_37  and  O_36 
REMARK   10  A    between atoms: C_40  and  O_39 
ROOT
HETATM    1  C   UNK N   1      35.619   8.155  17.783  0.00  0.00     0.066 A 
HETATM    2  C   UNK N   1      35.601   6.566  16.332  0.00  0.00     0.070 A 
HETATM    3  C   UNK N   1      35.482   5.862  15.064  0.00  0.00     0.064 A 
HETATM    4  C   UNK N   1      35.431   6.486  13.889  0.00  0.00     0.066 A 
HETATM    5  C   UNK N   1      35.475   8.006  12.357  0.00  0.00     0.070 A 
HETATM    6  C   UNK N   1      35.632   9.272  11.646  0.00  0.00     0.064 A 
HETATM    7  C   UNK N   1      35.836  10.437  12.232  0.00  0.00     0.066 A 
HETATM    8  C   UNK N   1      36.014  11.969  13.716  0.00  0.00     0.066 A 
HETATM    9  C   UNK N   1      35.965  12.618  14.851  0.00  0.00     0.064 A 
HETATM   10  C   UNK N   1      35.749  11.998  16.136  0.00  0.00     0.066 A 
HETATM   11  C   UNK N   1      35.588  10.583  17.733  0.00  0.00     0.066 A 
HETATM   12  C   UNK N   1      35.556   9.458  18.413  0.00  0.00     0.064 A 
HETATM   13  N   UNK N   1      35.542   7.828  13.703  0.00  0.00    -0.248 N 
HETATM   14  N   UNK N   1      35.881  10.631  13.569  0.00  0.00    -0.248 N 
HETATM   15  N   UNK N   1      35.711  10.673  16.390  0.00  0.00    -0.248 N 
HETATM   16  C   UNK N   1      35.515   6.985  18.495  0.00  0.00    -0.021 A 
HETATM   17  C   UNK N   1      35.389   6.849  19.978  0.00  0.00     0.052 C 
HETATM   18  C   UNK N   1      35.252   5.835  12.679  0.00  0.00    -0.021 A 
HETATM   19  C   UNK N   1      35.079   4.366  12.476  0.00  0.00     0.052 C 
HETATM   20  C   UNK N   1      36.005  11.634  11.551  0.00  0.00    -0.025 A 
HETATM   21  C   UNK N   1      36.005  11.847  10.072  0.00  0.00     0.051 C 
HETATM   22  C   UNK N   1      35.464  11.837  18.306  0.00  0.00    -0.025 A 
HETATM   23  C   UNK N   1      35.235  12.129  19.753  0.00  0.00     0.051 C 
HETATM   24  C   UNK N   1      35.516   5.968  17.592  0.00  0.00     0.000 A 
HETATM   25  C   UNK N   1      35.263   6.809  11.705  0.00  0.00     0.000 A 
HETATM   26  C   UNK N   1      35.535  12.737  17.268  0.00  0.00    -0.021 A 
HETATM   27  C   UNK N   1      36.154  12.602  12.503  0.00  0.00    -0.021 A 
HETATM   28  N   UNK N   1      35.681   7.917  16.448  0.00  0.00    -0.248 N 
HETATM   29 Zn   UNK N   1      35.760   9.294  15.006  0.00  0.00     0.000 Zn
ENDROOT
BRANCH  26  30
HETATM   30  C   UNK N   1      35.359  14.232  17.224  0.00  0.00     0.052 C 
BRANCH  30  31
HETATM   31  C   UNK N   1      36.503  15.049  17.766  0.00  0.00     0.115 C 
BRANCH  31  32
HETATM   32  C   UNK N   1      37.194  15.658  16.604  0.00  0.00     0.139 C 
HETATM   33  O   UNK N   1      37.137  16.865  16.421  0.00  0.00    -0.650 OA
BRANCH  32  34
HETATM   34  O   UNK N   1      37.847  14.876  15.728  0.00  0.00    -0.776 OA
HETATM   35  H   UNK N   1      38.688  14.511  15.922  0.00  0.00     0.167 HD
ENDBRANCH  32  34
ENDBRANCH  31  32
ENDBRANCH  30  31
ENDBRANCH  26  30
BRANCH  27  36
HETATM   36  C   UNK N   1      36.433  14.056  12.274  0.00  0.00     0.052 C 
BRANCH  36  37
HETATM   37  C   UNK N   1      35.229  14.823  11.779  0.00  0.00     0.115 C 
BRANCH  37  38
HETATM   38  C   UNK N   1      35.739  16.021  11.057  0.00  0.00     0.139 C 
HETATM   39  O   UNK N   1      34.970  16.910  10.728  0.00  0.00    -0.650 OA
BRANCH  38  40
HETATM   40  O   UNK N   1      37.040  16.103  10.722  0.00  0.00    -0.776 OA
HETATM   41  H   UNK N   1      37.294  16.122   9.820  0.00  0.00     0.167 HD
ENDBRANCH  38  40
ENDBRANCH  37  38
ENDBRANCH  36  37
ENDBRANCH  27  36
BRANCH  25  42
HETATM   42  C   UNK N   1      35.084   6.669  10.244  0.00  0.00     0.004 C 
HETATM   43  C   UNK N   1      33.886   6.590   9.668  0.00  0.00     0.012 C 
ENDBRANCH  25  42
BRANCH  24  44
HETATM   44  C   UNK N   1      35.404   4.550  17.989  0.00  0.00     0.004 C 
HETATM   45  C   UNK N   1      34.281   3.862  17.819  0.00  0.00     0.012 C 
ENDBRANCH  24  44
TORSDOF 10
ENDMDL
MODEL 7
REMARK VINA RESULT:      -7.2      3.207      6.931
REMARK  10 active torsions:
REMARK  status: ('A' for Active; 'I' for Inactive)
REMARK    1  A    between atoms: C_24  and  C_25 
REMARK    2  A    between atoms: C_27  and  C_28 
REMARK    3  A    between atoms: C_30  and  C_31 
REMARK    4  A    between atoms: C_31  and  C_32 
REMARK    5  A    between atoms: C_32  and  C_37 
REMARK    6  A    between atoms: C_33  and  C_34 
REMARK    7  A    between atoms: C_34  and  C_35 
REMARK    8  A    between atoms: C_35  and  C_40 
REMARK    9  A    between atoms: C_37  and  O_36 
REMARK   10  A    between atoms: C_40  and  O_39 
ROOT
HETATM    1  C   UNK N   1      30.930  16.311   4.253  0.00  0.00     0.066 A 
HETATM    2  C   UNK N   1      31.760  14.355   3.918  0.00  0.00     0.070 A 
HETATM    3  C   UNK N   1      31.853  12.925   3.663  0.00  0.00     0.064 A 
HETATM    4  C   UNK N   1      30.817  12.189   3.265  0.00  0.00     0.066 A 
HETATM    5  C   UNK N   1      28.863  11.577   2.580  0.00  0.00     0.070 A 
HETATM    6  C   UNK N   1      27.488  11.581   2.087  0.00  0.00     0.064 A 
HETATM    7  C   UNK N   1      26.733  12.659   1.994  0.00  0.00     0.066 A 
HETATM    8  C   UNK N   1      26.002  14.661   2.195  0.00  0.00     0.066 A 
HETATM    9  C   UNK N   1      25.868  15.908   2.567  0.00  0.00     0.064 A 
HETATM   10  C   UNK N   1      26.884  16.669   3.253  0.00  0.00     0.066 A 
HETATM   11  C   UNK N   1      28.744  17.352   4.060  0.00  0.00     0.066 A 
HETATM   12  C   UNK N   1      30.009  17.417   4.414  0.00  0.00     0.064 A 
HETATM   13  N   UNK N   1      29.574  12.664   2.984  0.00  0.00    -0.248 N 
HETATM   14  N   UNK N   1      27.104  13.898   2.384  0.00  0.00    -0.248 N 
HETATM   15  N   UNK N   1      28.156  16.279   3.487  0.00  0.00    -0.248 N 
HETATM   16  C   UNK N   1      32.232  16.366   4.689  0.00  0.00    -0.021 A 
HETATM   17  C   UNK N   1      32.917  17.536   5.317  0.00  0.00     0.052 C 
HETATM   18  C   UNK N   1      30.872  10.817   3.082  0.00  0.00    -0.021 A 
HETATM   19  C   UNK N   1      32.059   9.937   3.300  0.00  0.00     0.052 C 
HETATM   20  C   UNK N   1      25.434  12.661   1.505  0.00  0.00    -0.025 A 
HETATM   21  C   UNK N   1      24.654  11.495   0.991  0.00  0.00     0.051 C 
HETATM   22  C   UNK N   1      27.830  18.372   4.263  0.00  0.00    -0.025 A 
HETATM   23  C   UNK N   1      28.098  19.677   4.938  0.00  0.00     0.051 C 
HETATM   24  C   UNK N   1      32.776  15.138   4.472  0.00  0.00     0.000 A 
HETATM   25  C   UNK N   1      29.620  10.427   2.662  0.00  0.00     0.000 A 
HETATM   26  C   UNK N   1      26.631  17.910   3.771  0.00  0.00    -0.021 A 
HETATM   27  C   UNK N   1      24.987  13.948   1.603  0.00  0.00    -0.021 A 
HETATM   28  N   UNK N   1      30.622  15.082   3.767  0.00  0.00    -0.248 N 
HETATM   29 Zn   UNK N   1      28.840  14.492   3.093  0.00  0.00     0.000 Zn
ENDROOT
BRANCH  26  30
HETATM   30  C   UNK N   1      25.246  18.498   3.796  0.00  0.00     0.052 C 
BRANCH  30  31
HETATM   31  C   UNK N   1      25.065  19.795   3.051  0.00  0.00     0.115 C 
BRANCH  31  32
HETATM   32  C   UNK N   1      23.633  20.167   3.159  0.00  0.00     0.139 C 
HETATM   33  O   UNK N   1      23.278  21.311   2.923  0.00  0.00    -0.650 OA
BRANCH  32  34
HETATM   34  O   UNK N   1      22.734  19.254   3.561  0.00  0.00    -0.776 OA
HETATM   35  H   UNK N   1      22.966  18.356   3.695  0.00  0.00     0.167 HD
ENDBRANCH  32  34
ENDBRANCH  31  32
ENDBRANCH  30  31
ENDBRANCH  26  30
BRANCH  27  36
HETATM   36  C   UNK N   1      23.664  14.480   1.141  0.00  0.00     0.052 C 
BRANCH  36  37
HETATM   37  C   UNK N   1      22.548  14.243   2.131  0.00  0.00     0.115 C 
BRANCH  37  38
HETATM   38  C   UNK N   1      21.971  15.573   2.469  0.00  0.00     0.139 C 
HETATM   39  O   UNK N   1      21.056  16.030   1.803  0.00  0.00    -0.650 OA
BRANCH  38  40
HETATM   40  O   UNK N   1      22.492  16.296   3.478  0.00  0.00    -0.776 OA
HETATM   41  H   UNK N   1      23.004  17.059   3.294  0.00  0.00     0.167 HD
ENDBRANCH  38  40
ENDBRANCH  37  38
ENDBRANCH  36  37
ENDBRANCH  27  36
BRANCH  25  42
HETATM   42  C   UNK N   1      29.121   9.070   2.351  0.00  0.00     0.004 C 
HETATM   43  C   UNK N   1      28.703   8.222   3.290  0.00  0.00     0.012 C 
ENDBRANCH  25  42
BRANCH  24  44
HETATM   44  C   UNK N   1      34.170  14.809   4.830  0.00  0.00     0.004 C 
HETATM   45  C   UNK N   1      34.479  14.237   5.988  0.00  0.00     0.012 C 
ENDBRANCH  24  44
TORSDOF 10
ENDMDL
MODEL 8
REMARK VINA RESULT:      -7.1      2.564      3.953
REMARK  10 active torsions:
REMARK  status: ('A' for Active; 'I' for Inactive)
REMARK    1  A    between atoms: C_24  and  C_25 
REMARK    2  A    between atoms: C_27  and  C_28 
REMARK    3  A    between atoms: C_30  and  C_31 
REMARK    4  A    between atoms: C_31  and  C_32 
REMARK    5  A    between atoms: C_32  and  C_37 
REMARK    6  A    between atoms: C_33  and  C_34 
REMARK    7  A    between atoms: C_34  and  C_35 
REMARK    8  A    between atoms: C_35  and  C_40 
REMARK    9  A    between atoms: C_37  and  O_36 
REMARK   10  A    between atoms: C_40  and  O_39 
ROOT
HETATM    1  C   UNK N   1      22.357  12.961   2.836  0.00  0.00     0.066 A 
HETATM    2  C   UNK N   1      23.687  11.449   2.081  0.00  0.00     0.070 A 
HETATM    3  C   UNK N   1      24.877  10.809   1.538  0.00  0.00     0.064 A 
HETATM    4  C   UNK N   1      26.065  11.407   1.488  0.00  0.00     0.066 A 
HETATM    5  C   UNK N   1      27.675  12.822   1.750  0.00  0.00     0.070 A 
HETATM    6  C   UNK N   1      28.477  13.966   2.174  0.00  0.00     0.064 A 
HETATM    7  C   UNK N   1      28.002  15.010   2.827  0.00  0.00     0.066 A 
HETATM    8  C   UNK N   1      26.659  16.418   3.721  0.00  0.00     0.066 A 
HETATM    9  C   UNK N   1      25.572  17.057   4.068  0.00  0.00     0.064 A 
HETATM   10  C   UNK N   1      24.234  16.549   3.886  0.00  0.00     0.066 A 
HETATM   11  C   UNK N   1      22.549  15.272   3.559  0.00  0.00     0.066 A 
HETATM   12  C   UNK N   1      21.805  14.221   3.290  0.00  0.00     0.064 A 
HETATM   13  N   UNK N   1      26.347  12.643   1.982  0.00  0.00    -0.248 N 
HETATM   14  N   UNK N   1      26.703  15.190   3.153  0.00  0.00    -0.248 N 
HETATM   15  N   UNK N   1      23.897  15.307   3.478  0.00  0.00    -0.248 N 
HETATM   16  C   UNK N   1      21.567  11.891   2.492  0.00  0.00    -0.021 A 
HETATM   17  C   UNK N   1      20.077  11.814   2.579  0.00  0.00     0.052 C 
HETATM   18  C   UNK N   1      27.190  10.838   0.916  0.00  0.00    -0.021 A 
HETATM   19  C   UNK N   1      27.275   9.499   0.261  0.00  0.00     0.052 C 
HETATM   20  C   UNK N   1      28.772  16.085   3.246  0.00  0.00    -0.025 A 
HETATM   21  C   UNK N   1      30.243  16.274   3.066  0.00  0.00     0.051 C 
HETATM   22  C   UNK N   1      22.041  16.505   3.931  0.00  0.00    -0.025 A 
HETATM   23  C   UNK N   1      20.596  16.866   4.050  0.00  0.00     0.051 C 
HETATM   24  C   UNK N   1      22.396  10.919   2.024  0.00  0.00     0.000 A 
HETATM   25  C   UNK N   1      28.212  11.749   1.069  0.00  0.00     0.000 A 
HETATM   26  C   UNK N   1      23.130  17.327   4.106  0.00  0.00    -0.021 A 
HETATM   27  C   UNK N   1      27.916  16.963   3.847  0.00  0.00    -0.021 A 
HETATM   28  N   UNK N   1      23.668  12.705   2.597  0.00  0.00    -0.248 N 
HETATM   29 Zn   UNK N   1      25.185  13.973   2.862  0.00  0.00     0.000 Zn
ENDROOT
BRANCH  26  30
HETATM   30  C   UNK N   1      23.236  18.799   4.401  0.00  0.00     0.052 C 
BRANCH  30  31
HETATM   31  C   UNK N   1      23.159  19.719   3.211  0.00  0.00     0.115 C 
BRANCH  31  32
HETATM   32  C   UNK N   1      24.478  20.387   3.087  0.00  0.00     0.139 C 
HETATM   33  O   UNK N   1      25.189  20.524   4.070  0.00  0.00    -0.650 OA
BRANCH  32  34
HETATM   34  O   UNK N   1      24.868  20.879   1.900  0.00  0.00    -0.776 OA
HETATM   35  H   UNK N   1      25.349  21.680   1.829  0.00  0.00     0.167 HD
ENDBRANCH  32  34
ENDBRANCH  31  32
ENDBRANCH  30  31
ENDBRANCH  26  30
BRANCH  27  36
HETATM   36  C   UNK N   1      28.274  18.251   4.525  0.00  0.00     0.052 C 
BRANCH  36  37
HETATM   37  C   UNK N   1      28.742  18.063   5.949  0.00  0.00     0.115 C 
BRANCH  37  38
HETATM   38  C   UNK N   1      27.870  18.909   6.812  0.00  0.00     0.139 C 
HETATM   39  O   UNK N   1      28.165  19.095   7.981  0.00  0.00    -0.650 OA
BRANCH  38  40
HETATM   40  O   UNK N   1      26.732  19.428   6.316  0.00  0.00    -0.776 OA
HETATM   41  H   UNK N   1      26.409  19.145   5.483  0.00  0.00     0.167 HD
ENDBRANCH  38  40
ENDBRANCH  37  38
ENDBRANCH  36  37
ENDBRANCH  27  36
BRANCH  25  42
HETATM   42  C   UNK N   1      29.616  11.662   0.613  0.00  0.00     0.004 C 
HETATM   43  C   UNK N   1      29.991  11.950  -0.632  0.00  0.00     0.012 C 
ENDBRANCH  25  42
BRANCH  24  44
HETATM   44  C   UNK N   1      21.901   9.615   1.542  0.00  0.00     0.004 C 
HETATM   45  C   UNK N   1      21.507   9.435   0.286  0.00  0.00     0.012 C 
ENDBRANCH  24  44
TORSDOF 10
ENDMDL
MODEL 9
REMARK VINA RESULT:      -7.0      2.005      2.317
REMARK  10 active torsions:
REMARK  status: ('A' for Active; 'I' for Inactive)
REMARK    1  A    between atoms: C_24  and  C_25 
REMARK    2  A    between atoms: C_27  and  C_28 
REMARK    3  A    between atoms: C_30  and  C_31 
REMARK    4  A    between atoms: C_31  and  C_32 
REMARK    5  A    between atoms: C_32  and  C_37 
REMARK    6  A    between atoms: C_33  and  C_34 
REMARK    7  A    between atoms: C_34  and  C_35 
REMARK    8  A    between atoms: C_35  and  C_40 
REMARK    9  A    between atoms: C_37  and  O_36 
REMARK   10  A    between atoms: C_40  and  O_39 
ROOT
HETATM    1  C   UNK N   1      23.947  15.577   3.243  0.00  0.00     0.066 A 
HETATM    2  C   UNK N   1      24.301  13.467   3.018  0.00  0.00     0.070 A 
HETATM    3  C   UNK N   1      24.994  12.191   2.918  0.00  0.00     0.064 A 
HETATM    4  C   UNK N   1      26.275  12.033   3.243  0.00  0.00     0.066 A 
HETATM    5  C   UNK N   1      28.276  12.382   3.974  0.00  0.00     0.070 A 
HETATM    6  C   UNK N   1      29.453  12.979   4.601  0.00  0.00     0.064 A 
HETATM    7  C   UNK N   1      29.520  14.226   5.027  0.00  0.00     0.066 A 
HETATM    8  C   UNK N   1      29.062  16.287   5.382  0.00  0.00     0.066 A 
HETATM    9  C   UNK N   1      28.498  17.466   5.331  0.00  0.00     0.064 A 
HETATM   10  C   UNK N   1      27.210  17.728   4.735  0.00  0.00     0.066 A 
HETATM   11  C   UNK N   1      25.246  17.518   3.913  0.00  0.00     0.066 A 
HETATM   12  C   UNK N   1      24.130  16.999   3.449  0.00  0.00     0.064 A 
HETATM   13  N   UNK N   1      27.082  12.997   3.762  0.00  0.00    -0.248 N 
HETATM   14  N   UNK N   1      28.531  15.139   4.901  0.00  0.00    -0.248 N 
HETATM   15  N   UNK N   1      26.335  16.806   4.279  0.00  0.00    -0.248 N 
HETATM   16  C   UNK N   1      22.803  15.052   2.694  0.00  0.00    -0.021 A 
HETATM   17  C   UNK N   1      21.579  15.806   2.287  0.00  0.00     0.052 C 
HETATM   18  C   UNK N   1      26.967  10.842   3.092  0.00  0.00    -0.021 A 
HETATM   19  C   UNK N   1      26.426   9.562   2.545  0.00  0.00     0.052 C 
HETATM   20  C   UNK N   1      30.633  14.782   5.641  0.00  0.00    -0.025 A 
HETATM   21  C   UNK N   1      31.932  14.111   5.950  0.00  0.00     0.051 C 
HETATM   22  C   UNK N   1      25.467  18.876   4.057  0.00  0.00    -0.025 A 
HETATM   23  C   UNK N   1      24.521  19.970   3.681  0.00  0.00     0.051 C 
HETATM   24  C   UNK N   1      23.006  13.714   2.556  0.00  0.00     0.000 A 
HETATM   25  C   UNK N   1      28.247  11.073   3.543  0.00  0.00     0.000 A 
HETATM   26  C   UNK N   1      26.744  19.002   4.554  0.00  0.00    -0.021 A 
HETATM   27  C   UNK N   1      30.322  16.087   5.897  0.00  0.00    -0.021 A 
HETATM   28  N   UNK N   1      24.880  14.615   3.458  0.00  0.00    -0.248 N 
HETATM   29 Zn   UNK N   1      26.723  14.895   4.166  0.00  0.00     0.000 Zn
ENDROOT
BRANCH  26  30
HETATM   30  C   UNK N   1      27.600  20.212   4.819  0.00  0.00     0.052 C 
BRANCH  30  31
HETATM   31  C   UNK N   1      27.017  21.243   5.750  0.00  0.00     0.115 C 
BRANCH  31  32
HETATM   32  C   UNK N   1      27.029  20.660   7.114  0.00  0.00     0.139 C 
HETATM   33  O   UNK N   1      27.957  19.950   7.468  0.00  0.00    -0.650 OA
BRANCH  32  34
HETATM   34  O   UNK N   1      25.995  20.878   7.943  0.00  0.00    -0.776 OA
HETATM   35  H   UNK N   1      25.122  21.001   7.624  0.00  0.00     0.167 HD
ENDBRANCH  32  34
ENDBRANCH  31  32
ENDBRANCH  30  31
ENDBRANCH  26  30
BRANCH  27  36
HETATM   36  C   UNK N   1      31.171  17.093   6.613  0.00  0.00     0.052 C 
BRANCH  36  37
HETATM   37  C   UNK N   1      31.257  16.848   8.101  0.00  0.00     0.115 C 
BRANCH  37  38
HETATM   38  C   UNK N   1      30.185  17.658   8.742  0.00  0.00     0.139 C 
HETATM   39  O   UNK N   1      29.081  17.173   8.927  0.00  0.00    -0.650 OA
BRANCH  38  40
HETATM   40  O   UNK N   1      30.417  18.942   9.072  0.00  0.00    -0.776 OA
HETATM   41  H   UNK N   1      31.090  19.426   8.634  0.00  0.00     0.167 HD
ENDBRANCH  38  40
ENDBRANCH  37  38
ENDBRANCH  36  37
ENDBRANCH  27  36
BRANCH  25  42
HETATM   42  C   UNK N   1      29.404  10.151   3.579  0.00  0.00     0.004 C 
HETATM   43  C   UNK N   1      30.179   9.924   2.519  0.00  0.00     0.012 C 
ENDBRANCH  25  42
BRANCH  24  44
HETATM   44  C   UNK N   1      21.990  12.810   1.981  0.00  0.00     0.004 C 
HETATM   45  C   UNK N   1      22.051  12.401   0.719  0.00  0.00     0.012 C 
ENDBRANCH  24  44
TORSDOF 10
ENDMDL
