MODEL 1
REMARK VINA RESULT:      -4.4      0.000      0.000
REMARK  8 active torsions:
REMARK  status: ('A' for Active; 'I' for Inactive)
REMARK    1  A    between atoms: N_1  and  C_2 
REMARK    2  A    between atoms: C_2  and  C_3 
REMARK    3  A    between atoms: C_3  and  C_4 
REMARK    4  A    between atoms: C_4  and  C_5 
REMARK    5  A    between atoms: C_5  and  N_6 
REMARK    6  A    between atoms: C_5  and  C_7 
REMARK    7  A    between atoms: C_5  and  C_10 
REMARK    8  A    between atoms: C_10  and  O_11 
ROOT
HETATM    1  C   UNK N   1      34.065  16.947   8.734  0.00  0.00     0.169 C 
ENDROOT
BRANCH   1   2
HETATM    2  C   UNK N   1      34.600  15.616   8.189  0.00  0.00     0.049 C 
BRANCH   2   3
HETATM    3  C   UNK N   1      34.497  14.466   9.181  0.00  0.00     0.022 C 
BRANCH   3   4
HETATM    4  C   UNK N   1      33.742  13.327   8.532  0.00  0.00     0.111 C 
BRANCH   4   5
HETATM    5  N   UNK N   1      32.439  13.186   9.155  0.00  0.00    -0.430 N 
HETATM    6  H   UNK N   1      31.632  13.807   9.104  0.00  0.00     0.149 HD
HETATM    7  H   UNK N   1      32.313  12.347   9.723  0.00  0.00     0.149 HD
ENDBRANCH   4   5
ENDBRANCH   3   4
ENDBRANCH   2   3
ENDBRANCH   1   2
BRANCH   1   8
HETATM    8  N   UNK N   1      34.533  17.137  10.101  0.00  0.00    -0.409 N 
HETATM    9  H   UNK N   1      35.161  17.024  10.897  0.00  0.00     0.151 HD
HETATM   10  H   UNK N   1      33.806  17.736  10.491  0.00  0.00     0.151 HD
ENDBRANCH   1   8
BRANCH   1  11
HETATM   11  C   UNK N   1      32.533  16.864   8.733  0.00  0.00     0.391 C 
HETATM   12  F   UNK N   1      32.061  16.159   7.640  0.00  0.00    -0.211 F 
HETATM   13  F   UNK N   1      31.973  18.131   8.726  0.00  0.00    -0.211 F 
ENDBRANCH   1  11
BRANCH   1  14
HETATM   14  C   UNK N   1      34.516  18.117   7.881  0.00  0.00     0.174 C 
HETATM   15  O   UNK N   1      35.037  19.090   8.404  0.00  0.00    -0.648 OA
BRANCH  14  16
HETATM   16  O   UNK N   1      34.354  18.099   6.542  0.00  0.00    -0.774 OA
HETATM   17  H   UNK N   1      33.529  18.119   6.098  0.00  0.00     0.167 HD
ENDBRANCH  14  16
ENDBRANCH   1  14
TORSDOF 8
ENDMDL
MODEL 2
REMARK VINA RESULT:      -4.3      1.514      1.812
REMARK  8 active torsions:
REMARK  status: ('A' for Active; 'I' for Inactive)
REMARK    1  A    between atoms: N_1  and  C_2 
REMARK    2  A    between atoms: C_2  and  C_3 
REMARK    3  A    between atoms: C_3  and  C_4 
REMARK    4  A    between atoms: C_4  and  C_5 
REMARK    5  A    between atoms: C_5  and  N_6 
REMARK    6  A    between atoms: C_5  and  C_7 
REMARK    7  A    between atoms: C_5  and  C_10 
REMARK    8  A    between atoms: C_10  and  O_11 
ROOT
HETATM    1  C   UNK N   1      34.205  16.956   8.811  0.00  0.00     0.169 C 
ENDROOT
BRANCH   1   2
HETATM    2  C   UNK N   1      34.836  15.657   8.289  0.00  0.00     0.049 C 
BRANCH   2   3
HETATM    3  C   UNK N   1      35.179  14.663   9.389  0.00  0.00     0.022 C 
BRANCH   3   4
HETATM    4  C   UNK N   1      36.643  14.295   9.276  0.00  0.00     0.111 C 
BRANCH   4   5
HETATM    5  N   UNK N   1      37.374  14.846  10.402  0.00  0.00    -0.430 N 
HETATM    6  H   UNK N   1      37.101  15.591  11.043  0.00  0.00     0.149 HD
HETATM    7  H   UNK N   1      38.288  14.429  10.578  0.00  0.00     0.149 HD
ENDBRANCH   4   5
ENDBRANCH   3   4
ENDBRANCH   2   3
ENDBRANCH   1   2
BRANCH   1   8
HETATM    8  N   UNK N   1      34.653  17.202  10.175  0.00  0.00    -0.409 N 
HETATM    9  H   UNK N   1      34.664  17.662  11.086  0.00  0.00     0.151 HD
HETATM   10  H   UNK N   1      35.386  16.501  10.285  0.00  0.00     0.151 HD
ENDBRANCH   1   8
BRANCH   1  11
HETATM   11  C   UNK N   1      32.683  16.762   8.807  0.00  0.00     0.391 C 
HETATM   12  F   UNK N   1      32.271  15.967   7.752  0.00  0.00    -0.211 F 
HETATM   13  F   UNK N   1      32.033  17.983   8.729  0.00  0.00    -0.211 F 
ENDBRANCH   1  11
BRANCH   1  14
HETATM   14  C   UNK N   1      34.574  18.140   7.939  0.00  0.00     0.174 C 
HETATM   15  O   UNK N   1      35.071  19.137   8.440  0.00  0.00    -0.648 OA
BRANCH  14  16
HETATM   16  O   UNK N   1      34.364  18.110   6.607  0.00  0.00    -0.774 OA
HETATM   17  H   UNK N   1      35.024  17.963   5.959  0.00  0.00     0.167 HD
ENDBRANCH  14  16
ENDBRANCH   1  14
TORSDOF 8
ENDMDL
MODEL 3
REMARK VINA RESULT:      -4.2      3.374      4.183
REMARK  8 active torsions:
REMARK  status: ('A' for Active; 'I' for Inactive)
REMARK    1  A    between atoms: N_1  and  C_2 
REMARK    2  A    between atoms: C_2  and  C_3 
REMARK    3  A    between atoms: C_3  and  C_4 
REMARK    4  A    between atoms: C_4  and  C_5 
REMARK    5  A    between atoms: C_5  and  N_6 
REMARK    6  A    between atoms: C_5  and  C_7 
REMARK    7  A    between atoms: C_5  and  C_10 
REMARK    8  A    between atoms: C_10  and  O_11 
ROOT
HETATM    1  C   UNK N   1      34.805  14.864  10.741  0.00  0.00     0.169 C 
ENDROOT
BRANCH   1   2
HETATM    2  C   UNK N   1      35.174  13.924  11.897  0.00  0.00     0.049 C 
BRANCH   2   3
HETATM    3  C   UNK N   1      35.863  12.645  11.446  0.00  0.00     0.022 C 
BRANCH   3   4
HETATM    4  C   UNK N   1      37.249  12.596  12.053  0.00  0.00     0.111 C 
BRANCH   4   5
HETATM    5  N   UNK N   1      38.187  13.284  11.186  0.00  0.00    -0.430 N 
HETATM    6  H   UNK N   1      38.091  14.188  10.723  0.00  0.00     0.149 HD
HETATM    7  H   UNK N   1      39.067  12.796  11.016  0.00  0.00     0.149 HD
ENDBRANCH   4   5
ENDBRANCH   3   4
ENDBRANCH   2   3
ENDBRANCH   1   2
BRANCH   1   8
HETATM    8  N   UNK N   1      33.398  15.226  10.836  0.00  0.00    -0.409 N 
HETATM    9  H   UNK N   1      32.594  15.779  11.135  0.00  0.00     0.151 HD
HETATM   10  H   UNK N   1      32.955  14.501  10.272  0.00  0.00     0.151 HD
ENDBRANCH   1   8
BRANCH   1  11
HETATM   11  C   UNK N   1      35.041  14.098   9.432  0.00  0.00     0.391 C 
HETATM   12  F   UNK N   1      35.617  14.903   8.465  0.00  0.00    -0.211 F 
HETATM   13  F   UNK N   1      33.850  13.588   8.941  0.00  0.00    -0.211 F 
ENDBRANCH   1  11
BRANCH   1  14
HETATM   14  C   UNK N   1      35.651  16.122  10.759  0.00  0.00     0.174 C 
HETATM   15  O   UNK N   1      35.125  17.214  10.611  0.00  0.00    -0.648 OA
BRANCH  14  16
HETATM   16  O   UNK N   1      36.986  16.056  10.939  0.00  0.00    -0.774 OA
HETATM   17  H   UNK N   1      37.516  16.735  11.308  0.00  0.00     0.167 HD
ENDBRANCH  14  16
ENDBRANCH   1  14
TORSDOF 8
ENDMDL
MODEL 4
REMARK VINA RESULT:      -4.1     12.623     13.999
REMARK  8 active torsions:
REMARK  status: ('A' for Active; 'I' for Inactive)
REMARK    1  A    between atoms: N_1  and  C_2 
REMARK    2  A    between atoms: C_2  and  C_3 
REMARK    3  A    between atoms: C_3  and  C_4 
REMARK    4  A    between atoms: C_4  and  C_5 
REMARK    5  A    between atoms: C_5  and  N_6 
REMARK    6  A    between atoms: C_5  and  C_7 
REMARK    7  A    between atoms: C_5  and  C_10 
REMARK    8  A    between atoms: C_10  and  O_11 
ROOT
HETATM    1  C   UNK N   1      43.710  22.992   3.198  0.00  0.00     0.169 C 
ENDROOT
BRANCH   1   2
HETATM    2  C   UNK N   1      44.832  23.246   2.182  0.00  0.00     0.049 C 
BRANCH   2   3
HETATM    3  C   UNK N   1      45.356  24.675   2.198  0.00  0.00     0.022 C 
BRANCH   3   4
HETATM    4  C   UNK N   1      45.191  25.272   0.817  0.00  0.00     0.111 C 
BRANCH   4   5
HETATM    5  N   UNK N   1      43.781  25.443   0.524  0.00  0.00    -0.430 N 
HETATM    6  H   UNK N   1      43.209  24.975  -0.179  0.00  0.00     0.149 HD
HETATM    7  H   UNK N   1      43.292  26.127   1.102  0.00  0.00     0.149 HD
ENDBRANCH   4   5
ENDBRANCH   3   4
ENDBRANCH   2   3
ENDBRANCH   1   2
BRANCH   1   8
HETATM    8  N   UNK N   1      43.615  24.122   4.112  0.00  0.00    -0.409 N 
HETATM    9  H   UNK N   1      43.905  24.998   4.548  0.00  0.00     0.151 HD
HETATM   10  H   UNK N   1      42.746  23.921   4.606  0.00  0.00     0.151 HD
ENDBRANCH   1   8
BRANCH   1  11
HETATM   11  C   UNK N   1      44.084  21.733   3.991  0.00  0.00     0.391 C 
HETATM   12  F   UNK N   1      43.380  21.649   5.179  0.00  0.00    -0.211 F 
HETATM   13  F   UNK N   1      45.441  21.714   4.272  0.00  0.00    -0.211 F 
ENDBRANCH   1  11
BRANCH   1  14
HETATM   14  C   UNK N   1      42.375  22.787   2.509  0.00  0.00     0.174 C 
HETATM   15  O   UNK N   1      41.944  21.658   2.336  0.00  0.00    -0.648 OA
BRANCH  14  16
HETATM   16  O   UNK N   1      41.648  23.840   2.083  0.00  0.00    -0.774 OA
HETATM   17  H   UNK N   1      40.776  24.042   2.360  0.00  0.00     0.167 HD
ENDBRANCH  14  16
ENDBRANCH   1  14
TORSDOF 8
ENDMDL
MODEL 5
REMARK VINA RESULT:      -4.1      6.985      7.788
REMARK  8 active torsions:
REMARK  status: ('A' for Active; 'I' for Inactive)
REMARK    1  A    between atoms: N_1  and  C_2 
REMARK    2  A    between atoms: C_2  and  C_3 
REMARK    3  A    between atoms: C_3  and  C_4 
REMARK    4  A    between atoms: C_4  and  C_5 
REMARK    5  A    between atoms: C_5  and  N_6 
REMARK    6  A    between atoms: C_5  and  C_7 
REMARK    7  A    between atoms: C_5  and  C_10 
REMARK    8  A    between atoms: C_10  and  O_11 
ROOT
HETATM    1  C   UNK N   1      27.166  19.628   5.984  0.00  0.00     0.169 C 
ENDROOT
BRANCH   1   2
HETATM    2  C   UNK N   1      28.223  18.859   6.789  0.00  0.00     0.049 C 
BRANCH   2   3
HETATM    3  C   UNK N   1      27.864  17.399   7.026  0.00  0.00     0.022 C 
BRANCH   3   4
HETATM    4  C   UNK N   1      27.858  17.133   8.516  0.00  0.00     0.111 C 
BRANCH   4   5
HETATM    5  N   UNK N   1      27.749  18.387   9.237  0.00  0.00    -0.430 N 
HETATM    6  H   UNK N   1      27.191  19.211   9.012  0.00  0.00     0.149 HD
HETATM    7  H   UNK N   1      28.307  18.454  10.088  0.00  0.00     0.149 HD
ENDBRANCH   4   5
ENDBRANCH   3   4
ENDBRANCH   2   3
ENDBRANCH   1   2
BRANCH   1   8
HETATM    8  N   UNK N   1      26.045  18.747   5.685  0.00  0.00    -0.409 N 
HETATM    9  H   UNK N   1      25.192  18.450   5.211  0.00  0.00     0.151 HD
HETATM   10  H   UNK N   1      26.210  17.971   6.326  0.00  0.00     0.151 HD
ENDBRANCH   1   8
BRANCH   1  11
HETATM   11  C   UNK N   1      27.822  20.072   4.670  0.00  0.00     0.391 C 
HETATM   12  F   UNK N   1      26.968  19.915   3.593  0.00  0.00    -0.211 F 
HETATM   13  F   UNK N   1      28.981  19.352   4.432  0.00  0.00    -0.211 F 
ENDBRANCH   1  11
BRANCH   1  14
HETATM   14  C   UNK N   1      26.665  20.841   6.744  0.00  0.00     0.174 C 
HETATM   15  O   UNK N   1      26.727  21.949   6.235  0.00  0.00    -0.648 OA
BRANCH  14  16
HETATM   16  O   UNK N   1      26.144  20.715   7.982  0.00  0.00    -0.774 OA
HETATM   17  H   UNK N   1      25.431  20.153   8.213  0.00  0.00     0.167 HD
ENDBRANCH  14  16
ENDBRANCH   1  14
TORSDOF 8
ENDMDL
MODEL 6
REMARK VINA RESULT:      -4.1      1.928      2.586
REMARK  8 active torsions:
REMARK  status: ('A' for Active; 'I' for Inactive)
REMARK    1  A    between atoms: N_1  and  C_2 
REMARK    2  A    between atoms: C_2  and  C_3 
REMARK    3  A    between atoms: C_3  and  C_4 
REMARK    4  A    between atoms: C_4  and  C_5 
REMARK    5  A    between atoms: C_5  and  N_6 
REMARK    6  A    between atoms: C_5  and  C_7 
REMARK    7  A    between atoms: C_5  and  C_10 
REMARK    8  A    between atoms: C_10  and  O_11 
ROOT
HETATM    1  C   UNK N   1      32.904  17.164   8.088  0.00  0.00     0.169 C 
ENDROOT
BRANCH   1   2
HETATM    2  C   UNK N   1      33.397  16.137   9.116  0.00  0.00     0.049 C 
BRANCH   2   3
HETATM    3  C   UNK N   1      34.818  15.654   8.860  0.00  0.00     0.022 C 
BRANCH   3   4
HETATM    4  C   UNK N   1      35.629  15.829  10.126  0.00  0.00     0.111 C 
BRANCH   4   5
HETATM    5  N   UNK N   1      35.150  16.986  10.858  0.00  0.00    -0.430 N 
HETATM    6  H   UNK N   1      34.744  17.851  10.499  0.00  0.00     0.149 HD
HETATM    7  H   UNK N   1      35.227  16.926  11.873  0.00  0.00     0.149 HD
ENDBRANCH   4   5
ENDBRANCH   3   4
ENDBRANCH   2   3
ENDBRANCH   1   2
BRANCH   1   8
HETATM    8  N   UNK N   1      31.908  18.031   8.704  0.00  0.00    -0.409 N 
HETATM    9  H   UNK N   1      31.570  18.803   9.279  0.00  0.00     0.151 HD
HETATM   10  H   UNK N   1      31.037  17.632   8.354  0.00  0.00     0.151 HD
ENDBRANCH   1   8
BRANCH   1  11
HETATM   11  C   UNK N   1      32.253  16.387   6.936  0.00  0.00     0.391 C 
HETATM   12  F   UNK N   1      31.254  17.123   6.323  0.00  0.00    -0.211 F 
HETATM   13  F   UNK N   1      31.716  15.194   7.392  0.00  0.00    -0.211 F 
ENDBRANCH   1  11
BRANCH   1  14
HETATM   14  C   UNK N   1      34.047  18.008   7.556  0.00  0.00     0.174 C 
HETATM   15  O   UNK N   1      34.392  17.904   6.390  0.00  0.00    -0.648 OA
BRANCH  14  16
HETATM   16  O   UNK N   1      34.691  18.882   8.356  0.00  0.00    -0.774 OA
HETATM   17  H   UNK N   1      34.827  19.790   8.165  0.00  0.00     0.167 HD
ENDBRANCH  14  16
ENDBRANCH   1  14
TORSDOF 8
ENDMDL
MODEL 7
REMARK VINA RESULT:      -4.1      2.930      3.594
REMARK  8 active torsions:
REMARK  status: ('A' for Active; 'I' for Inactive)
REMARK    1  A    between atoms: N_1  and  C_2 
REMARK    2  A    between atoms: C_2  and  C_3 
REMARK    3  A    between atoms: C_3  and  C_4 
REMARK    4  A    between atoms: C_4  and  C_5 
REMARK    5  A    between atoms: C_5  and  N_6 
REMARK    6  A    between atoms: C_5  and  C_7 
REMARK    7  A    between atoms: C_5  and  C_10 
REMARK    8  A    between atoms: C_10  and  O_11 
ROOT
HETATM    1  C   UNK N   1      33.667  17.011   7.731  0.00  0.00     0.169 C 
ENDROOT
BRANCH   1   2
HETATM    2  C   UNK N   1      33.806  17.444   6.265  0.00  0.00     0.049 C 
BRANCH   2   3
HETATM    3  C   UNK N   1      32.517  17.309   5.466  0.00  0.00     0.022 C 
BRANCH   3   4
HETATM    4  C   UNK N   1      32.830  17.504   3.998  0.00  0.00     0.111 C 
BRANCH   4   5
HETATM    5  N   UNK N   1      31.605  17.441   3.224  0.00  0.00    -0.430 N 
HETATM    6  H   UNK N   1      31.018  18.204   2.887  0.00  0.00     0.149 HD
HETATM    7  H   UNK N   1      31.287  16.503   2.982  0.00  0.00     0.149 HD
ENDBRANCH   4   5
ENDBRANCH   3   4
ENDBRANCH   2   3
ENDBRANCH   1   2
BRANCH   1   8
HETATM    8  N   UNK N   1      34.051  15.612   7.865  0.00  0.00    -0.409 N 
HETATM    9  H   UNK N   1      33.916  14.623   8.075  0.00  0.00     0.151 HD
HETATM   10  H   UNK N   1      35.030  15.635   7.582  0.00  0.00     0.151 HD
ENDBRANCH   1   8
BRANCH   1  11
HETATM   11  C   UNK N   1      32.190  17.168   8.120  0.00  0.00     0.391 C 
HETATM   12  F   UNK N   1      31.929  18.425   8.637  0.00  0.00    -0.211 F 
HETATM   13  F   UNK N   1      31.825  16.214   9.055  0.00  0.00    -0.211 F 
ENDBRANCH   1  11
BRANCH   1  14
HETATM   14  C   UNK N   1      34.531  17.860   8.644  0.00  0.00     0.174 C 
HETATM   15  O   UNK N   1      34.825  17.454   9.757  0.00  0.00    -0.648 OA
BRANCH  14  16
HETATM   16  O   UNK N   1      34.986  19.064   8.242  0.00  0.00    -0.774 OA
HETATM   17  H   UNK N   1      34.448  19.802   8.032  0.00  0.00     0.167 HD
ENDBRANCH  14  16
ENDBRANCH   1  14
TORSDOF 8
ENDMDL
MODEL 8
REMARK VINA RESULT:      -4.0     18.079     19.199
REMARK  8 active torsions:
REMARK  status: ('A' for Active; 'I' for Inactive)
REMARK    1  A    between atoms: N_1  and  C_2 
REMARK    2  A    between atoms: C_2  and  C_3 
REMARK    3  A    between atoms: C_3  and  C_4 
REMARK    4  A    between atoms: C_4  and  C_5 
REMARK    5  A    between atoms: C_5  and  N_6 
REMARK    6  A    between atoms: C_5  and  C_7 
REMARK    7  A    between atoms: C_5  and  C_10 
REMARK    8  A    between atoms: C_10  and  O_11 
ROOT
HETATM    1  C   UNK N   1      26.363  26.975  -4.939  0.00  0.00     0.169 C 
ENDROOT
BRANCH   1   2
HETATM    2  C   UNK N   1      26.233  28.488  -5.163  0.00  0.00     0.049 C 
BRANCH   2   3
HETATM    3  C   UNK N   1      27.568  29.219  -5.167  0.00  0.00     0.022 C 
BRANCH   3   4
HETATM    4  C   UNK N   1      27.461  30.437  -4.275  0.00  0.00     0.111 C 
BRANCH   4   5
HETATM    5  N   UNK N   1      26.170  30.445  -3.611  0.00  0.00    -0.430 N 
HETATM    6  H   UNK N   1      25.637  29.663  -3.234  0.00  0.00     0.149 HD
HETATM    7  H   UNK N   1      25.737  31.363  -3.507  0.00  0.00     0.149 HD
ENDBRANCH   4   5
ENDBRANCH   3   4
ENDBRANCH   2   3
ENDBRANCH   1   2
BRANCH   1   8
HETATM    8  N   UNK N   1      27.649  26.516  -5.445  0.00  0.00    -0.409 N 
HETATM    9  H   UNK N   1      28.647  26.576  -5.652  0.00  0.00     0.151 HD
HETATM   10  H   UNK N   1      27.417  25.590  -5.803  0.00  0.00     0.151 HD
ENDBRANCH   1   8
BRANCH   1  11
HETATM   11  C   UNK N   1      25.238  26.295  -5.731  0.00  0.00     0.391 C 
HETATM   12  F   UNK N   1      25.549  26.190  -7.075  0.00  0.00    -0.211 F 
HETATM   13  F   UNK N   1      24.051  26.997  -5.599  0.00  0.00    -0.211 F 
ENDBRANCH   1  11
BRANCH   1  14
HETATM   14  C   UNK N   1      26.244  26.619  -3.470  0.00  0.00     0.174 C 
HETATM   15  O   UNK N   1      26.454  25.475  -3.099  0.00  0.00    -0.648 OA
BRANCH  14  16
HETATM   16  O   UNK N   1      25.909  27.554  -2.557  0.00  0.00    -0.774 OA
HETATM   17  H   UNK N   1      26.457  27.844  -1.855  0.00  0.00     0.167 HD
ENDBRANCH  14  16
ENDBRANCH   1  14
TORSDOF 8
ENDMDL
MODEL 9
REMARK VINA RESULT:      -4.0      7.208      7.860
REMARK  8 active torsions:
REMARK  status: ('A' for Active; 'I' for Inactive)
REMARK    1  A    between atoms: N_1  and  C_2 
REMARK    2  A    between atoms: C_2  and  C_3 
REMARK    3  A    between atoms: C_3  and  C_4 
REMARK    4  A    between atoms: C_4  and  C_5 
REMARK    5  A    between atoms: C_5  and  N_6 
REMARK    6  A    between atoms: C_5  and  C_7 
REMARK    7  A    between atoms: C_5  and  C_10 
REMARK    8  A    between atoms: C_10  and  O_11 
ROOT
HETATM    1  C   UNK N   1      36.609  13.286  14.824  0.00  0.00     0.169 C 
ENDROOT
BRANCH   1   2
HETATM    2  C   UNK N   1      35.461  12.717  15.668  0.00  0.00     0.049 C 
BRANCH   2   3
HETATM    3  C   UNK N   1      35.693  11.283  16.123  0.00  0.00     0.022 C 
BRANCH   3   4
HETATM    4  C   UNK N   1      34.592  10.409  15.563  0.00  0.00     0.111 C 
BRANCH   4   5
HETATM    5  N   UNK N   1      33.738  11.195  14.693  0.00  0.00    -0.430 N 
HETATM    6  H   UNK N   1      32.720  11.245  14.665  0.00  0.00     0.149 HD
HETATM    7  H   UNK N   1      34.224  11.782  14.014  0.00  0.00     0.149 HD
ENDBRANCH   4   5
ENDBRANCH   3   4
ENDBRANCH   2   3
ENDBRANCH   1   2
BRANCH   1   8
HETATM    8  N   UNK N   1      37.671  12.296  14.714  0.00  0.00    -0.409 N 
HETATM    9  H   UNK N   1      38.606  11.949  14.496  0.00  0.00     0.151 HD
HETATM   10  H   UNK N   1      37.210  11.454  15.057  0.00  0.00     0.151 HD
ENDBRANCH   1   8
BRANCH   1  11
HETATM   11  C   UNK N   1      37.147  14.525  15.553  0.00  0.00     0.391 C 
HETATM   12  F   UNK N   1      36.498  14.731  16.758  0.00  0.00    -0.211 F 
HETATM   13  F   UNK N   1      37.005  15.657  14.768  0.00  0.00    -0.211 F 
ENDBRANCH   1  11
BRANCH   1  14
HETATM   14  C   UNK N   1      36.136  13.674  13.436  0.00  0.00     0.174 C 
HETATM   15  O   UNK N   1      34.942  13.787  13.206  0.00  0.00    -0.648 OA
BRANCH  14  16
HETATM   16  O   UNK N   1      37.020  13.900  12.442  0.00  0.00    -0.774 OA
HETATM   17  H   UNK N   1      36.800  14.011  11.538  0.00  0.00     0.167 HD
ENDBRANCH  14  16
ENDBRANCH   1  14
TORSDOF 8
ENDMDL
