MODEL 1
REMARK VINA RESULT:      -7.1      0.000      0.000
REMARK  8 active torsions:
REMARK  status: ('A' for Active; 'I' for Inactive)
REMARK    1  A    between atoms: C_4  and  C_1 
REMARK    2  A    between atoms: O_23  and  C_1 
REMARK    3  A    between atoms: C_6  and  O_18 
REMARK    4  A    between atoms: C_7  and  O_19 
REMARK    5  A    between atoms: C_10  and  N_17 
REMARK    6  A    between atoms: P_25  and  O_20 
REMARK    7  A    between atoms: P_25  and  O_21 
REMARK    8  A    between atoms: P_25  and  O_23 
ROOT
HETATM    1  C   UNK N   1      34.755  14.598  10.266  0.00  0.00     0.180 C 
HETATM    2  C   UNK N   1      36.241  14.432   9.954  0.00  0.00     0.182 C 
HETATM    3  C   UNK N   1      36.628  13.588  11.132  0.00  0.00     0.198 C 
HETATM    4  C   UNK N   1      35.908  14.406  12.204  0.00  0.00     0.262 C 
HETATM    5  O   UNK N   1      34.623  14.688  11.676  0.00  0.00    -0.353 OA
ENDROOT
BRANCH   4   6
HETATM    6  N   UNK N   1      35.810  13.784  13.531  0.00  0.00    -0.297 N 
HETATM    7  C   UNK N   1      36.499  14.222  14.618  0.00  0.00     0.188 A 
HETATM    8  N   UNK N   1      36.274  13.439  15.706  0.00  0.00    -0.346 N 
HETATM    9  C   UNK N   1      35.435  12.487  15.264  0.00  0.00     0.117 A 
ATOM     10  HN  UNK N   1      36.657  13.549  16.646  1.00  0.00     0.167 HD
HETATM   11  C   UNK N   1      34.908  11.398  15.936  0.00  0.00     0.135 A 
HETATM   12  C   UNK N   1      35.147  12.697  13.963  0.00  0.00     0.142 A 
HETATM   13 Cl   UNK N   1      35.287  11.086  17.619  0.00  0.00    -0.062 Cl
HETATM   14  N   UNK N   1      34.095  10.552  15.235  0.00  0.00    -0.341 N 
HETATM   15  C   UNK N   1      33.810  10.779  13.911  0.00  0.00     0.183 A 
HETATM   16  H   UNK N   1      33.708   9.768  15.687  0.00  0.00     0.167 HD
HETATM   17  N   UNK N   1      34.342  11.861  13.260  0.00  0.00    -0.336 N 
ATOM     18  HN  UNK N   1      34.139  12.034  12.276  1.00  0.00     0.168 HD
ENDBRANCH   4   6
BRANCH   3  19
HETATM   19  O   UNK N   1      38.011  13.526  11.314  0.00  0.00    -0.388 OA
HETATM   20  H   UNK N   1      38.824  13.751  10.836  0.00  0.00     0.210 HD
ENDBRANCH   3  19
BRANCH   2  21
HETATM   21  O   UNK N   1      36.476  13.808   8.727  0.00  0.00    -0.390 OA
HETATM   22  H   UNK N   1      36.728  14.248   7.900  0.00  0.00     0.210 HD
ENDBRANCH   2  21
BRANCH   1  23
HETATM   23  C   UNK N   1      34.124  15.799   9.564  0.00  0.00     0.215 C 
BRANCH  23  24
HETATM   24  O   UNK N   1      34.967  16.330   8.579  0.00  0.00    -0.294 OA
BRANCH  24  25
HETATM   25  P   UNK N   1      34.270  17.867   8.107  0.00  0.00     0.390 P 
HETATM   26  O   UNK N   1      34.183  17.944   6.555  0.00  0.00    -0.632 OA
BRANCH  25  27
HETATM   27  O   UNK N   1      35.290  19.185   8.591  0.00  0.00    -0.307 OA
HETATM   28  H   UNK N   1      35.194  20.084   8.943  0.00  0.00     0.222 HD
ENDBRANCH  25  27
BRANCH  25  29
HETATM   29  O   UNK N   1      32.660  18.089   8.719  0.00  0.00    -0.307 OA
HETATM   30  H   UNK N   1      32.373  18.954   9.046  0.00  0.00     0.222 HD
ENDBRANCH  25  29
ENDBRANCH  24  25
ENDBRANCH  23  24
ENDBRANCH   1  23
TORSDOF 8
ENDMDL
MODEL 2
REMARK VINA RESULT:      -6.9      5.878      8.290
REMARK  8 active torsions:
REMARK  status: ('A' for Active; 'I' for Inactive)
REMARK    1  A    between atoms: C_4  and  C_1 
REMARK    2  A    between atoms: O_23  and  C_1 
REMARK    3  A    between atoms: C_6  and  O_18 
REMARK    4  A    between atoms: C_7  and  O_19 
REMARK    5  A    between atoms: C_10  and  N_17 
REMARK    6  A    between atoms: P_25  and  O_20 
REMARK    7  A    between atoms: P_25  and  O_21 
REMARK    8  A    between atoms: P_25  and  O_23 
ROOT
HETATM    1  C   UNK N   1      33.855  15.544   9.838  0.00  0.00     0.180 C 
HETATM    2  C   UNK N   1      34.818  16.594   9.285  0.00  0.00     0.182 C 
HETATM    3  C   UNK N   1      33.812  17.534   8.690  0.00  0.00     0.198 C 
HETATM    4  C   UNK N   1      32.953  16.483   7.987  0.00  0.00     0.262 C 
HETATM    5  O   UNK N   1      32.769  15.441   8.930  0.00  0.00    -0.353 OA
ENDROOT
BRANCH   4   6
HETATM    6  N   UNK N   1      31.664  16.953   7.460  0.00  0.00    -0.297 N 
HETATM    7  C   UNK N   1      31.362  16.984   6.135  0.00  0.00     0.188 A 
HETATM    8  N   UNK N   1      30.130  17.514   5.912  0.00  0.00    -0.346 N 
HETATM    9  C   UNK N   1      29.675  17.828   7.137  0.00  0.00     0.117 A 
ATOM     10  HN  UNK N   1      29.658  17.644   5.017  1.00  0.00     0.167 HD
HETATM   11  C   UNK N   1      28.489  18.439   7.506  0.00  0.00     0.135 A 
HETATM   12  C   UNK N   1      30.589  17.484   8.068  0.00  0.00     0.142 A 
HETATM   13 Cl   UNK N   1      27.297  18.922   6.315  0.00  0.00    -0.062 Cl
HETATM   14  N   UNK N   1      28.285  18.680   8.836  0.00  0.00    -0.341 N 
HETATM   15  C   UNK N   1      29.224  18.322   9.772  0.00  0.00     0.183 A 
HETATM   16  H   UNK N   1      27.451  19.115   9.126  0.00  0.00     0.167 HD
HETATM   17  N   UNK N   1      30.394  17.720   9.390  0.00  0.00    -0.336 N 
ATOM     18  HN  UNK N   1      31.098  17.457  10.079  1.00  0.00     0.168 HD
ENDBRANCH   4   6
BRANCH   3  19
HETATM   19  O   UNK N   1      34.393  18.454   7.816  0.00  0.00    -0.388 OA
HETATM   20  H   UNK N   1      34.128  19.197   7.251  0.00  0.00     0.210 HD
ENDBRANCH   3  19
BRANCH   2  21
HETATM   21  O   UNK N   1      35.610  17.184  10.272  0.00  0.00    -0.390 OA
HETATM   22  H   UNK N   1      35.295  17.738  11.002  0.00  0.00     0.210 HD
ENDBRANCH   2  21
BRANCH   1  23
HETATM   23  C   UNK N   1      34.517  14.189  10.081  0.00  0.00     0.215 C 
BRANCH  23  24
HETATM   24  O   UNK N   1      35.869  14.323  10.423  0.00  0.00    -0.294 OA
BRANCH  24  25
HETATM   25  P   UNK N   1      35.965  14.093  12.157  0.00  0.00     0.390 P 
HETATM   26  O   UNK N   1      36.064  15.477  12.861  0.00  0.00    -0.632 OA
BRANCH  25  27
HETATM   27  O   UNK N   1      37.412  13.236  12.590  0.00  0.00    -0.307 OA
HETATM   28  H   UNK N   1      38.089  13.264  13.283  0.00  0.00     0.222 HD
ENDBRANCH  25  27
BRANCH  25  29
HETATM   29  O   UNK N   1      34.568  13.292  12.806  0.00  0.00    -0.307 OA
HETATM   30  H   UNK N   1      34.667  12.526  13.392  0.00  0.00     0.222 HD
ENDBRANCH  25  29
ENDBRANCH  24  25
ENDBRANCH  23  24
ENDBRANCH   1  23
TORSDOF 8
ENDMDL
MODEL 3
REMARK VINA RESULT:      -6.7      8.487     10.978
REMARK  8 active torsions:
REMARK  status: ('A' for Active; 'I' for Inactive)
REMARK    1  A    between atoms: C_4  and  C_1 
REMARK    2  A    between atoms: O_23  and  C_1 
REMARK    3  A    between atoms: C_6  and  O_18 
REMARK    4  A    between atoms: C_7  and  O_19 
REMARK    5  A    between atoms: C_10  and  N_17 
REMARK    6  A    between atoms: P_25  and  O_20 
REMARK    7  A    between atoms: P_25  and  O_21 
REMARK    8  A    between atoms: P_25  and  O_23 
ROOT
HETATM    1  C   UNK N   1      30.669  16.699   8.467  0.00  0.00     0.180 C 
HETATM    2  C   UNK N   1      29.801  17.269   9.588  0.00  0.00     0.182 C 
HETATM    3  C   UNK N   1      28.554  17.535   8.797  0.00  0.00     0.198 C 
HETATM    4  C   UNK N   1      29.222  18.206   7.598  0.00  0.00     0.262 C 
HETATM    5  O   UNK N   1      30.341  17.398   7.277  0.00  0.00    -0.353 OA
ENDROOT
BRANCH   4   6
HETATM    6  N   UNK N   1      28.368  18.418   6.421  0.00  0.00    -0.297 N 
HETATM    7  C   UNK N   1      28.442  17.661   5.294  0.00  0.00     0.188 A 
HETATM    8  N   UNK N   1      27.585  18.101   4.334  0.00  0.00    -0.346 N 
HETATM    9  C   UNK N   1      26.983  19.166   4.889  0.00  0.00     0.117 A 
ATOM     10  HN  UNK N   1      27.435  17.710   3.404  1.00  0.00     0.167 HD
HETATM   11  C   UNK N   1      26.047  20.030   4.345  0.00  0.00     0.135 A 
HETATM   12  C   UNK N   1      27.443  19.353   6.143  0.00  0.00     0.142 A 
HETATM   13 Cl   UNK N   1      25.453  19.827   2.709  0.00  0.00    -0.062 Cl
HETATM   14  N   UNK N   1      25.616  21.069   5.121  0.00  0.00    -0.341 N 
HETATM   15  C   UNK N   1      26.093  21.246   6.397  0.00  0.00     0.183 A 
HETATM   16  H   UNK N   1      24.952  21.700   4.759  0.00  0.00     0.167 HD
HETATM   17  N   UNK N   1      27.021  20.383   6.919  0.00  0.00    -0.336 N 
ATOM     18  HN  UNK N   1      27.383  20.511   7.863  1.00  0.00     0.168 HD
ENDBRANCH   4   6
BRANCH   3  19
HETATM   19  O   UNK N   1      27.659  18.366   9.474  0.00  0.00    -0.388 OA
HETATM   20  H   UNK N   1      26.979  18.304  10.162  0.00  0.00     0.210 HD
ENDBRANCH   3  19
BRANCH   2  21
HETATM   21  O   UNK N   1      29.607  16.373  10.641  0.00  0.00    -0.390 OA
HETATM   22  H   UNK N   1      28.917  16.427  11.319  0.00  0.00     0.210 HD
ENDBRANCH   2  21
BRANCH   1  23
HETATM   23  C   UNK N   1      32.165  16.770   8.770  0.00  0.00     0.215 C 
BRANCH  23  24
HETATM   24  O   UNK N   1      32.662  18.074   8.637  0.00  0.00    -0.294 OA
BRANCH  24  25
HETATM   25  P   UNK N   1      34.291  17.920   8.010  0.00  0.00     0.390 P 
HETATM   26  O   UNK N   1      34.944  16.624   8.570  0.00  0.00    -0.632 OA
BRANCH  25  27
HETATM   27  O   UNK N   1      35.291  19.230   8.555  0.00  0.00    -0.307 OA
HETATM   28  H   UNK N   1      35.191  20.061   9.047  0.00  0.00     0.222 HD
ENDBRANCH  25  27
BRANCH  25  29
HETATM   29  O   UNK N   1      34.333  17.804   6.278  0.00  0.00    -0.307 OA
HETATM   30  H   UNK N   1      35.093  17.401   5.830  0.00  0.00     0.222 HD
ENDBRANCH  25  29
ENDBRANCH  24  25
ENDBRANCH  23  24
ENDBRANCH   1  23
TORSDOF 8
ENDMDL
MODEL 4
REMARK VINA RESULT:      -6.4      8.714     11.044
REMARK  8 active torsions:
REMARK  status: ('A' for Active; 'I' for Inactive)
REMARK    1  A    between atoms: C_4  and  C_1 
REMARK    2  A    between atoms: O_23  and  C_1 
REMARK    3  A    between atoms: C_6  and  O_18 
REMARK    4  A    between atoms: C_7  and  O_19 
REMARK    5  A    between atoms: C_10  and  N_17 
REMARK    6  A    between atoms: P_25  and  O_20 
REMARK    7  A    between atoms: P_25  and  O_21 
REMARK    8  A    between atoms: P_25  and  O_23 
ROOT
HETATM    1  C   UNK N   1      30.342  17.046   7.428  0.00  0.00     0.180 C 
HETATM    2  C   UNK N   1      29.881  17.585   8.782  0.00  0.00     0.182 C 
HETATM    3  C   UNK N   1      28.439  17.827   8.450  0.00  0.00     0.198 C 
HETATM    4  C   UNK N   1      28.660  18.525   7.109  0.00  0.00     0.262 C 
HETATM    5  O   UNK N   1      29.626  17.747   6.424  0.00  0.00    -0.353 OA
ENDROOT
BRANCH   4   6
HETATM    6  N   UNK N   1      27.462  18.727   6.282  0.00  0.00    -0.297 N 
HETATM    7  C   UNK N   1      26.777  19.900   6.228  0.00  0.00     0.188 A 
HETATM    8  N   UNK N   1      25.676  19.803   5.435  0.00  0.00    -0.346 N 
HETATM    9  C   UNK N   1      25.684  18.530   5.006  0.00  0.00     0.117 A 
ATOM     10  HN  UNK N   1      24.998  20.533   5.215  1.00  0.00     0.167 HD
HETATM   11  C   UNK N   1      24.772  17.866   4.204  0.00  0.00     0.135 A 
HETATM   12  C   UNK N   1      26.759  17.884   5.505  0.00  0.00     0.142 A 
HETATM   13 Cl   UNK N   1      23.353  18.672   3.566  0.00  0.00    -0.062 Cl
HETATM   14  N   UNK N   1      25.000  16.543   3.944  0.00  0.00    -0.341 N 
HETATM   15  C   UNK N   1      26.100  15.900   4.458  0.00  0.00     0.183 A 
HETATM   16  H   UNK N   1      24.367  16.045   3.378  0.00  0.00     0.167 HD
HETATM   17  N   UNK N   1      26.991  16.572   5.252  0.00  0.00    -0.336 N 
ATOM     18  HN  UNK N   1      27.807  16.100   5.641  1.00  0.00     0.168 HD
ENDBRANCH   4   6
BRANCH   3  19
HETATM   19  O   UNK N   1      27.800  18.631   9.397  0.00  0.00    -0.388 OA
HETATM   20  H   UNK N   1      27.697  19.571   9.610  0.00  0.00     0.210 HD
ENDBRANCH   3  19
BRANCH   2  21
HETATM   21  O   UNK N   1      30.064  16.675   9.825  0.00  0.00    -0.390 OA
HETATM   22  H   UNK N   1      30.724  16.740  10.531  0.00  0.00     0.210 HD
ENDBRANCH   2  21
BRANCH   1  23
HETATM   23  C   UNK N   1      31.852  17.151   7.222  0.00  0.00     0.215 C 
BRANCH  23  24
HETATM   24  O   UNK N   1      32.449  18.006   8.158  0.00  0.00    -0.294 OA
BRANCH  24  25
HETATM   25  P   UNK N   1      34.180  17.861   7.927  0.00  0.00     0.390 P 
HETATM   26  O   UNK N   1      34.488  17.657   6.416  0.00  0.00    -0.632 OA
BRANCH  25  27
HETATM   27  O   UNK N   1      34.797  16.453   8.731  0.00  0.00    -0.307 OA
HETATM   28  H   UNK N   1      34.611  15.936   9.532  0.00  0.00     0.222 HD
ENDBRANCH  25  27
BRANCH  25  29
HETATM   29  O   UNK N   1      35.044  19.279   8.436  0.00  0.00    -0.307 OA
HETATM   30  H   UNK N   1      35.026  19.560   9.363  0.00  0.00     0.222 HD
ENDBRANCH  25  29
ENDBRANCH  24  25
ENDBRANCH  23  24
ENDBRANCH   1  23
TORSDOF 8
ENDMDL
MODEL 5
REMARK VINA RESULT:      -6.3      7.023      9.476
REMARK  8 active torsions:
REMARK  status: ('A' for Active; 'I' for Inactive)
REMARK    1  A    between atoms: C_4  and  C_1 
REMARK    2  A    between atoms: O_23  and  C_1 
REMARK    3  A    between atoms: C_6  and  O_18 
REMARK    4  A    between atoms: C_7  and  O_19 
REMARK    5  A    between atoms: C_10  and  N_17 
REMARK    6  A    between atoms: P_25  and  O_20 
REMARK    7  A    between atoms: P_25  and  O_21 
REMARK    8  A    between atoms: P_25  and  O_23 
ROOT
HETATM    1  C   UNK N   1      32.898  16.257   8.192  0.00  0.00     0.180 C 
HETATM    2  C   UNK N   1      33.934  16.765   7.190  0.00  0.00     0.182 C 
HETATM    3  C   UNK N   1      33.022  17.563   6.306  0.00  0.00     0.198 C 
HETATM    4  C   UNK N   1      31.916  16.518   6.170  0.00  0.00     0.262 C 
HETATM    5  O   UNK N   1      31.696  16.016   7.477  0.00  0.00    -0.353 OA
ENDROOT
BRANCH   4   6
HETATM    6  N   UNK N   1      30.661  16.983   5.565  0.00  0.00    -0.297 N 
HETATM    7  C   UNK N   1      30.401  16.918   4.232  0.00  0.00     0.188 A 
HETATM    8  N   UNK N   1      29.195  17.467   3.927  0.00  0.00    -0.346 N 
HETATM    9  C   UNK N   1      28.713  17.891   5.107  0.00  0.00     0.117 A 
ATOM     10  HN  UNK N   1      28.756  17.539   3.009  1.00  0.00     0.167 HD
HETATM   11  C   UNK N   1      27.537  18.565   5.386  0.00  0.00     0.135 A 
HETATM   12  C   UNK N   1      29.585  17.594   6.093  0.00  0.00     0.142 A 
HETATM   13 Cl   UNK N   1      26.400  18.989   4.121  0.00  0.00    -0.062 Cl
HETATM   14  N   UNK N   1      27.300  18.917   6.686  0.00  0.00    -0.341 N 
HETATM   15  C   UNK N   1      28.197  18.606   7.678  0.00  0.00     0.183 A 
HETATM   16  H   UNK N   1      26.472  19.399   6.913  0.00  0.00     0.167 HD
HETATM   17  N   UNK N   1      29.357  17.940   7.384  0.00  0.00    -0.336 N 
ATOM     18  HN  UNK N   1      30.030  17.710   8.115  1.00  0.00     0.168 HD
ENDBRANCH   4   6
BRANCH   3  19
HETATM   19  O   UNK N   1      33.620  17.903   5.091  0.00  0.00    -0.388 OA
HETATM   20  H   UNK N   1      34.234  17.523   4.444  0.00  0.00     0.210 HD
ENDBRANCH   3  19
BRANCH   2  21
HETATM   21  O   UNK N   1      34.939  17.532   7.783  0.00  0.00    -0.390 OA
HETATM   22  H   UNK N   1      34.808  18.278   8.388  0.00  0.00     0.210 HD
ENDBRANCH   2  21
BRANCH   1  23
HETATM   23  C   UNK N   1      33.359  15.016   8.956  0.00  0.00     0.215 C 
BRANCH  23  24
HETATM   24  O   UNK N   1      34.756  14.935   9.026  0.00  0.00    -0.294 OA
BRANCH  24  25
HETATM   25  P   UNK N   1      35.199  15.435  10.646  0.00  0.00     0.390 P 
HETATM   26  O   UNK N   1      34.246  14.764  11.677  0.00  0.00    -0.632 OA
BRANCH  25  27
HETATM   27  O   UNK N   1      34.985  17.146  10.847  0.00  0.00    -0.307 OA
HETATM   28  H   UNK N   1      34.259  17.789  10.851  0.00  0.00     0.222 HD
ENDBRANCH  25  27
BRANCH  25  29
HETATM   29  O   UNK N   1      36.817  14.971  11.071  0.00  0.00    -0.307 OA
HETATM   30  H   UNK N   1      37.203  15.248  11.916  0.00  0.00     0.222 HD
ENDBRANCH  25  29
ENDBRANCH  24  25
ENDBRANCH  23  24
ENDBRANCH   1  23
TORSDOF 8
ENDMDL
MODEL 6
REMARK VINA RESULT:      -6.3      3.958      6.052
REMARK  8 active torsions:
REMARK  status: ('A' for Active; 'I' for Inactive)
REMARK    1  A    between atoms: C_4  and  C_1 
REMARK    2  A    between atoms: O_23  and  C_1 
REMARK    3  A    between atoms: C_6  and  O_18 
REMARK    4  A    between atoms: C_7  and  O_19 
REMARK    5  A    between atoms: C_10  and  N_17 
REMARK    6  A    between atoms: P_25  and  O_20 
REMARK    7  A    between atoms: P_25  and  O_21 
REMARK    8  A    between atoms: P_25  and  O_23 
ROOT
HETATM    1  C   UNK N   1      31.013  16.606   6.191  0.00  0.00     0.180 C 
HETATM    2  C   UNK N   1      32.196  17.524   5.885  0.00  0.00     0.182 C 
HETATM    3  C   UNK N   1      33.270  16.751   6.590  0.00  0.00     0.198 C 
HETATM    4  C   UNK N   1      32.506  16.490   7.887  0.00  0.00     0.262 C 
HETATM    5  O   UNK N   1      31.208  16.079   7.494  0.00  0.00    -0.353 OA
ENDROOT
BRANCH   4   6
HETATM    6  N   UNK N   1      33.112  15.518   8.807  0.00  0.00    -0.297 N 
HETATM    7  C   UNK N   1      32.738  14.213   8.872  0.00  0.00     0.188 A 
HETATM    8  N   UNK N   1      33.412  13.543   9.845  0.00  0.00    -0.346 N 
HETATM    9  C   UNK N   1      34.210  14.473  10.397  0.00  0.00     0.117 A 
ATOM     10  HN  UNK N   1      33.331  12.558  10.097  1.00  0.00     0.167 HD
HETATM   11  C   UNK N   1      35.086  14.360  11.463  0.00  0.00     0.135 A 
HETATM   12  C   UNK N   1      34.040  15.655   9.771  0.00  0.00     0.142 A 
HETATM   13 Cl   UNK N   1      35.307  12.842  12.312  0.00  0.00    -0.062 Cl
HETATM   14  N   UNK N   1      35.762  15.482  11.852  0.00  0.00    -0.341 N 
HETATM   15  C   UNK N   1      35.578  16.680  11.204  0.00  0.00     0.183 A 
HETATM   16  H   UNK N   1      36.390  15.432  12.608  0.00  0.00     0.167 HD
HETATM   17  N   UNK N   1      34.705  16.774  10.152  0.00  0.00    -0.336 N 
ATOM     18  HN  UNK N   1      34.560  17.661   9.669  1.00  0.00     0.168 HD
ENDBRANCH   4   6
BRANCH   3  19
HETATM   19  O   UNK N   1      34.435  17.500   6.771  0.00  0.00    -0.388 OA
HETATM   20  H   UNK N   1      35.369  17.361   6.994  0.00  0.00     0.210 HD
ENDBRANCH   3  19
BRANCH   2  21
HETATM   21  O   UNK N   1      32.431  17.676   4.517  0.00  0.00    -0.390 OA
HETATM   22  H   UNK N   1      33.116  18.230   4.112  0.00  0.00     0.210 HD
ENDBRANCH   2  21
BRANCH   1  23
HETATM   23  C   UNK N   1      29.660  17.305   6.062  0.00  0.00     0.215 C 
BRANCH  23  24
HETATM   24  O   UNK N   1      28.776  16.923   7.079  0.00  0.00    -0.294 OA
BRANCH  24  25
HETATM   25  P   UNK N   1      28.589  18.318   8.122  0.00  0.00     0.390 P 
HETATM   26  O   UNK N   1      28.125  19.540   7.278  0.00  0.00    -0.632 OA
BRANCH  25  27
HETATM   27  O   UNK N   1      30.110  18.775   8.824  0.00  0.00    -0.307 OA
HETATM   28  H   UNK N   1      30.716  18.455   9.510  0.00  0.00     0.222 HD
ENDBRANCH  25  27
BRANCH  25  29
HETATM   29  O   UNK N   1      27.398  18.074   9.361  0.00  0.00    -0.307 OA
HETATM   30  H   UNK N   1      27.665  17.965  10.287  0.00  0.00     0.222 HD
ENDBRANCH  25  29
ENDBRANCH  24  25
ENDBRANCH  23  24
ENDBRANCH   1  23
TORSDOF 8
ENDMDL
MODEL 7
REMARK VINA RESULT:      -6.1     13.861     15.401
REMARK  8 active torsions:
REMARK  status: ('A' for Active; 'I' for Inactive)
REMARK    1  A    between atoms: C_4  and  C_1 
REMARK    2  A    between atoms: O_23  and  C_1 
REMARK    3  A    between atoms: C_6  and  O_18 
REMARK    4  A    between atoms: C_7  and  O_19 
REMARK    5  A    between atoms: C_10  and  N_17 
REMARK    6  A    between atoms: P_25  and  O_20 
REMARK    7  A    between atoms: P_25  and  O_21 
REMARK    8  A    between atoms: P_25  and  O_23 
ROOT
HETATM    1  C   UNK N   1      20.947  17.226   4.961  0.00  0.00     0.180 C 
HETATM    2  C   UNK N   1      20.672  16.225   3.840  0.00  0.00     0.182 C 
HETATM    3  C   UNK N   1      20.751  14.960   4.641  0.00  0.00     0.198 C 
HETATM    4  C   UNK N   1      22.032  15.291   5.406  0.00  0.00     0.262 C 
HETATM    5  O   UNK N   1      21.884  16.630   5.844  0.00  0.00    -0.353 OA
ENDROOT
BRANCH   4   6
HETATM    6  N   UNK N   1      22.361  14.401   6.528  0.00  0.00    -0.297 N 
HETATM    7  C   UNK N   1      23.364  13.485   6.490  0.00  0.00     0.188 A 
HETATM    8  N   UNK N   1      23.421  12.752   7.634  0.00  0.00    -0.346 N 
HETATM    9  C   UNK N   1      22.412  13.226   8.384  0.00  0.00     0.117 A 
ATOM     10  HN  UNK N   1      24.080  12.010   7.869  1.00  0.00     0.167 HD
HETATM   11  C   UNK N   1      21.975  12.817   9.632  0.00  0.00     0.135 A 
HETATM   12  C   UNK N   1      21.780  14.222   7.728  0.00  0.00     0.142 A 
HETATM   13 Cl   UNK N   1      22.760  11.508  10.495  0.00  0.00    -0.062 Cl
HETATM   14  N   UNK N   1      20.889  13.453  10.166  0.00  0.00    -0.341 N 
HETATM   15  C   UNK N   1      20.258  14.466   9.486  0.00  0.00     0.183 A 
HETATM   16  H   UNK N   1      20.556  13.181  11.051  0.00  0.00     0.167 HD
HETATM   17  N   UNK N   1      20.702  14.857   8.250  0.00  0.00    -0.336 N 
ATOM     18  HN  UNK N   1      20.234  15.604   7.737  1.00  0.00     0.168 HD
ENDBRANCH   4   6
BRANCH   3  19
HETATM   19  O   UNK N   1      20.861  13.823   3.836  0.00  0.00    -0.388 OA
HETATM   20  H   UNK N   1      20.543  12.908   3.814  0.00  0.00     0.210 HD
ENDBRANCH   3  19
BRANCH   2  21
HETATM   21  O   UNK N   1      19.432  16.415   3.227  0.00  0.00    -0.390 OA
HETATM   22  H   UNK N   1      18.875  15.724   2.837  0.00  0.00     0.210 HD
ENDBRANCH   2  21
BRANCH   1  23
HETATM   23  C   UNK N   1      21.435  18.581   4.451  0.00  0.00     0.215 C 
BRANCH  23  24
HETATM   24  O   UNK N   1      21.660  18.568   3.068  0.00  0.00    -0.294 OA
BRANCH  24  25
HETATM   25  P   UNK N   1      20.586  19.770   2.381  0.00  0.00     0.390 P 
HETATM   26  O   UNK N   1      19.110  19.379   2.677  0.00  0.00    -0.632 OA
BRANCH  25  27
HETATM   27  O   UNK N   1      20.729  19.810   0.651  0.00  0.00    -0.307 OA
HETATM   28  H   UNK N   1      20.446  20.375  -0.085  0.00  0.00     0.222 HD
ENDBRANCH  25  27
BRANCH  25  29
HETATM   29  O   UNK N   1      20.838  21.353   3.049  0.00  0.00    -0.307 OA
HETATM   30  H   UNK N   1      21.639  21.855   2.837  0.00  0.00     0.222 HD
ENDBRANCH  25  29
ENDBRANCH  24  25
ENDBRANCH  23  24
ENDBRANCH   1  23
TORSDOF 8
ENDMDL
MODEL 8
REMARK VINA RESULT:      -6.0      1.478      2.474
REMARK  8 active torsions:
REMARK  status: ('A' for Active; 'I' for Inactive)
REMARK    1  A    between atoms: C_4  and  C_1 
REMARK    2  A    between atoms: O_23  and  C_1 
REMARK    3  A    between atoms: C_6  and  O_18 
REMARK    4  A    between atoms: C_7  and  O_19 
REMARK    5  A    between atoms: C_10  and  N_17 
REMARK    6  A    between atoms: P_25  and  O_20 
REMARK    7  A    between atoms: P_25  and  O_21 
REMARK    8  A    between atoms: P_25  and  O_23 
ROOT
HETATM    1  C   UNK N   1      35.681  14.057   8.646  0.00  0.00     0.180 C 
HETATM    2  C   UNK N   1      37.204  14.115   8.756  0.00  0.00     0.182 C 
HETATM    3  C   UNK N   1      37.365  13.373  10.049  0.00  0.00     0.198 C 
HETATM    4  C   UNK N   1      36.269  14.097  10.830  0.00  0.00     0.262 C 
HETATM    5  O   UNK N   1      35.153  14.162   9.959  0.00  0.00    -0.353 OA
ENDROOT
BRANCH   4   6
HETATM    6  N   UNK N   1      35.898  13.502  12.121  0.00  0.00    -0.297 N 
HETATM    7  C   UNK N   1      35.072  12.429  12.243  0.00  0.00     0.188 A 
HETATM    8  N   UNK N   1      34.844  12.115  13.546  0.00  0.00    -0.346 N 
HETATM    9  C   UNK N   1      35.540  13.033  14.238  0.00  0.00     0.117 A 
ATOM     10  HN  UNK N   1      34.273  11.354  13.915  1.00  0.00     0.167 HD
HETATM   11  C   UNK N   1      35.635  13.218  15.606  0.00  0.00     0.135 A 
HETATM   12  C   UNK N   1      36.181  13.861  13.386  0.00  0.00     0.142 A 
HETATM   13 Cl   UNK N   1      34.791  12.176  16.734  0.00  0.00    -0.062 Cl
HETATM   14  N   UNK N   1      36.393  14.264  16.054  0.00  0.00    -0.341 N 
HETATM   15  C   UNK N   1      37.041  15.097  15.175  0.00  0.00     0.183 A 
HETATM   16  H   UNK N   1      36.477  14.420  17.023  0.00  0.00     0.167 HD
HETATM   17  N   UNK N   1      36.934  14.901  13.823  0.00  0.00    -0.336 N 
ATOM     18  HN  UNK N   1      37.407  15.518  13.165  1.00  0.00     0.168 HD
ENDBRANCH   4   6
BRANCH   3  19
HETATM   19  O   UNK N   1      38.639  13.530  10.601  0.00  0.00    -0.388 OA
HETATM   20  H   UNK N   1      39.331  14.206  10.664  0.00  0.00     0.210 HD
ENDBRANCH   3  19
BRANCH   2  21
HETATM   21  O   UNK N   1      37.854  13.503   7.683  0.00  0.00    -0.390 OA
HETATM   22  H   UNK N   1      38.762  13.164   7.682  0.00  0.00     0.210 HD
ENDBRANCH   2  21
BRANCH   1  23
HETATM   23  C   UNK N   1      35.104  15.127   7.720  0.00  0.00     0.215 C 
BRANCH  23  24
HETATM   24  O   UNK N   1      33.808  15.502   8.098  0.00  0.00    -0.294 OA
BRANCH  24  25
HETATM   25  P   UNK N   1      33.900  17.186   8.575  0.00  0.00     0.390 P 
HETATM   26  O   UNK N   1      32.464  17.775   8.684  0.00  0.00    -0.632 OA
BRANCH  25  27
HETATM   27  O   UNK N   1      34.709  18.129   7.363  0.00  0.00    -0.307 OA
HETATM   28  H   UNK N   1      34.815  18.132   6.398  0.00  0.00     0.222 HD
ENDBRANCH  25  27
BRANCH  25  29
HETATM   29  O   UNK N   1      34.658  17.404  10.121  0.00  0.00    -0.307 OA
HETATM   30  H   UNK N   1      34.452  18.179  10.666  0.00  0.00     0.222 HD
ENDBRANCH  25  29
ENDBRANCH  24  25
ENDBRANCH  23  24
ENDBRANCH   1  23
TORSDOF 8
ENDMDL
MODEL 9
REMARK VINA RESULT:      -6.0      2.369      3.363
REMARK  8 active torsions:
REMARK  status: ('A' for Active; 'I' for Inactive)
REMARK    1  A    between atoms: C_4  and  C_1 
REMARK    2  A    between atoms: O_23  and  C_1 
REMARK    3  A    between atoms: C_6  and  O_18 
REMARK    4  A    between atoms: C_7  and  O_19 
REMARK    5  A    between atoms: C_10  and  N_17 
REMARK    6  A    between atoms: P_25  and  O_20 
REMARK    7  A    between atoms: P_25  and  O_21 
REMARK    8  A    between atoms: P_25  and  O_23 
ROOT
HETATM    1  C   UNK N   1      34.294  15.084   7.653  0.00  0.00     0.180 C 
HETATM    2  C   UNK N   1      33.462  13.809   7.785  0.00  0.00     0.182 C 
HETATM    3  C   UNK N   1      33.458  13.696   9.281  0.00  0.00     0.198 C 
HETATM    4  C   UNK N   1      34.947  13.955   9.501  0.00  0.00     0.262 C 
HETATM    5  O   UNK N   1      35.272  15.063   8.680  0.00  0.00    -0.353 OA
ENDROOT
BRANCH   4   6
HETATM    6  N   UNK N   1      35.362  14.188  10.892  0.00  0.00    -0.297 N 
HETATM    7  C   UNK N   1      36.083  15.270  11.288  0.00  0.00     0.188 A 
HETATM    8  N   UNK N   1      36.384  15.216  12.614  0.00  0.00    -0.346 N 
HETATM    9  C   UNK N   1      35.841  14.060  13.032  0.00  0.00     0.117 A 
ATOM     10  HN  UNK N   1      36.904  15.899  13.165  1.00  0.00     0.167 HD
HETATM   11  C   UNK N   1      35.877  13.475  14.286  0.00  0.00     0.135 A 
HETATM   12  C   UNK N   1      35.219  13.446  12.004  0.00  0.00     0.142 A 
HETATM   13 Cl   UNK N   1      36.701  14.237  15.632  0.00  0.00    -0.062 Cl
HETATM   14  N   UNK N   1      35.266  12.261  14.438  0.00  0.00    -0.341 N 
HETATM   15  C   UNK N   1      34.635  11.649  13.382  0.00  0.00     0.183 A 
HETATM   16  H   UNK N   1      35.277  11.821  15.318  0.00  0.00     0.167 HD
HETATM   17  N   UNK N   1      34.612  12.242  12.147  0.00  0.00    -0.336 N 
ATOM     18  HN  UNK N   1      34.150  11.791  11.358  1.00  0.00     0.168 HD
ENDBRANCH   4   6
BRANCH   3  19
HETATM   19  O   UNK N   1      33.040  12.438   9.720  0.00  0.00    -0.388 OA
HETATM   20  H   UNK N   1      32.984  11.931  10.545  0.00  0.00     0.210 HD
ENDBRANCH   3  19
BRANCH   2  21
HETATM   21  O   UNK N   1      32.184  13.931   7.237  0.00  0.00    -0.390 OA
HETATM   22  H   UNK N   1      31.620  14.718   7.269  0.00  0.00     0.210 HD
ENDBRANCH   2  21
BRANCH   1  23
HETATM   23  C   UNK N   1      34.930  15.246   6.273  0.00  0.00     0.215 C 
BRANCH  23  24
HETATM   24  O   UNK N   1      33.967  15.279   5.255  0.00  0.00    -0.294 OA
BRANCH  24  25
HETATM   25  P   UNK N   1      33.252  16.878   5.302  0.00  0.00     0.390 P 
HETATM   26  O   UNK N   1      31.871  16.810   6.015  0.00  0.00    -0.632 OA
BRANCH  25  27
HETATM   27  O   UNK N   1      32.930  17.459   3.698  0.00  0.00    -0.307 OA
HETATM   28  H   UNK N   1      32.186  17.833   3.200  0.00  0.00     0.222 HD
ENDBRANCH  25  27
BRANCH  25  29
HETATM   29  O   UNK N   1      34.223  18.020   6.179  0.00  0.00    -0.307 OA
HETATM   30  H   UNK N   1      34.957  18.479   5.743  0.00  0.00     0.222 HD
ENDBRANCH  25  29
ENDBRANCH  24  25
ENDBRANCH  23  24
ENDBRANCH   1  23
TORSDOF 8
ENDMDL
