MODEL 1
REMARK VINA RESULT:      -4.8      0.000      0.000
REMARK  3 active torsions:
REMARK  status: ('A' for Active; 'I' for Inactive)
REMARK    1  A    between atoms: S_2  and  C_5 
REMARK    2  A    between atoms: C_5  and  C_6 
REMARK    3  A    between atoms: C_6  and  N_7 
ROOT
HETATM    1  N   UNK N   1      30.556  17.342   8.496  0.00  0.00    -0.066 N 
HETATM    2  C   UNK N   1      30.014  17.426   7.136  0.00  0.00     0.261 A 
HETATM    3  C   UNK N   1      28.578  16.901   7.140  0.00  0.00     0.195 C 
HETATM    4  O   UNK N   1      27.790  17.714   7.975  0.00  0.00    -0.388 OA
HETATM    5  C   UNK N   1      28.258  17.524   9.290  0.00  0.00     0.195 C 
HETATM    6  C   UNK N   1      29.681  18.078   9.410  0.00  0.00     0.261 A 
HETATM    7  H   UNK N   1      29.704  17.836   8.229  0.00  0.00     0.280 HD
ENDROOT
BRANCH   1   8
HETATM    8  C   UNK N   1      31.862  17.982   8.506  0.00  0.00     0.252 C 
BRANCH   8   9
HETATM    9  C   UNK N   1      32.953  16.929   8.651  0.00  0.00     0.193 C 
BRANCH   9  10
HETATM   10  S   UNK N   1      34.547  17.621   8.122  0.00  0.00     0.103 S 
HETATM   11  O   UNK N   1      35.300  19.106   8.540  0.00  0.00    -0.595 OA
HETATM   12  O   UNK N   1      33.420  18.653   7.964  0.00  0.00    -0.595 OA
HETATM   13  O   UNK N   1      34.603  17.499   9.654  0.00  0.00    -0.595 OA
ENDBRANCH   9  10
ENDBRANCH   8   9
ENDBRANCH   1   8
TORSDOF 3
ENDMDL
MODEL 2
REMARK VINA RESULT:      -4.8      9.481     11.595
REMARK  3 active torsions:
REMARK  status: ('A' for Active; 'I' for Inactive)
REMARK    1  A    between atoms: S_2  and  C_5 
REMARK    2  A    between atoms: C_5  and  C_6 
REMARK    3  A    between atoms: C_6  and  N_7 
ROOT
HETATM    1  N   UNK N   1      22.408  13.148  10.149  0.00  0.00    -0.066 N 
HETATM    2  C   UNK N   1      23.469  13.146   9.137  0.00  0.00     0.261 A 
HETATM    3  C   UNK N   1      24.827  13.127   9.839  0.00  0.00     0.195 C 
HETATM    4  O   UNK N   1      24.942  11.947  10.596  0.00  0.00    -0.388 OA
HETATM    5  C   UNK N   1      23.990  12.030  11.631  0.00  0.00     0.195 C 
HETATM    6  C   UNK N   1      22.580  11.993  11.031  0.00  0.00     0.261 A 
HETATM    7  H   UNK N   1      23.149  12.451  10.071  0.00  0.00     0.280 HD
ENDROOT
BRANCH   1   8
HETATM    8  C   UNK N   1      21.129  13.012   9.470  0.00  0.00     0.252 C 
BRANCH   8   9
HETATM    9  C   UNK N   1      20.232  14.194   9.815  0.00  0.00     0.193 C 
BRANCH   9  10
HETATM   10  S   UNK N   1      20.316  15.435   8.491  0.00  0.00     0.103 S 
HETATM   11  O   UNK N   1      19.332  15.632   7.097  0.00  0.00    -0.595 OA
HETATM   12  O   UNK N   1      20.226  14.015   7.909  0.00  0.00    -0.595 OA
HETATM   13  O   UNK N   1      18.925  15.564   9.133  0.00  0.00    -0.595 OA
ENDBRANCH   9  10
ENDBRANCH   8   9
ENDBRANCH   1   8
TORSDOF 3
ENDMDL
MODEL 3
REMARK VINA RESULT:      -4.7      1.094      1.791
REMARK  3 active torsions:
REMARK  status: ('A' for Active; 'I' for Inactive)
REMARK    1  A    between atoms: S_2  and  C_5 
REMARK    2  A    between atoms: C_5  and  C_6 
REMARK    3  A    between atoms: C_6  and  N_7 
ROOT
HETATM    1  N   UNK N   1      30.547  17.418   7.829  0.00  0.00    -0.066 N 
HETATM    2  C   UNK N   1      30.122  17.274   9.224  0.00  0.00     0.261 A 
HETATM    3  C   UNK N   1      28.816  18.042   9.428  0.00  0.00     0.195 C 
HETATM    4  O   UNK N   1      27.818  17.486   8.607  0.00  0.00    -0.388 OA
HETATM    5  C   UNK N   1      28.195  17.741   7.274  0.00  0.00     0.195 C 
HETATM    6  C   UNK N   1      29.472  16.961   6.947  0.00  0.00     0.261 A 
HETATM    7  H   UNK N   1      29.644  17.056   8.137  0.00  0.00     0.280 HD
ENDROOT
BRANCH   1   8
HETATM    8  C   UNK N   1      31.703  16.562   7.614  0.00  0.00     0.252 C 
BRANCH   8   9
HETATM    9  C   UNK N   1      32.815  17.354   6.937  0.00  0.00     0.193 C 
BRANCH   9  10
HETATM   10  S   UNK N   1      34.136  17.702   8.134  0.00  0.00     0.103 S 
HETATM   11  O   UNK N   1      35.079  19.119   8.358  0.00  0.00    -0.595 OA
HETATM   12  O   UNK N   1      34.574  18.072   6.709  0.00  0.00    -0.595 OA
HETATM   13  O   UNK N   1      33.035  18.749   8.371  0.00  0.00    -0.595 OA
ENDBRANCH   9  10
ENDBRANCH   8   9
ENDBRANCH   1   8
TORSDOF 3
ENDMDL
MODEL 4
REMARK VINA RESULT:      -4.6     16.348     17.365
REMARK  3 active torsions:
REMARK  status: ('A' for Active; 'I' for Inactive)
REMARK    1  A    between atoms: S_2  and  C_5 
REMARK    2  A    between atoms: C_5  and  C_6 
REMARK    3  A    between atoms: C_6  and  N_7 
ROOT
HETATM    1  N   UNK N   1      26.212  25.384  -5.135  0.00  0.00    -0.066 N 
HETATM    2  C   UNK N   1      26.455  25.569  -3.701  0.00  0.00     0.261 A 
HETATM    3  C   UNK N   1      26.635  27.061  -3.416  0.00  0.00     0.195 C 
HETATM    4  O   UNK N   1      25.452  27.743  -3.751  0.00  0.00    -0.388 OA
HETATM    5  C   UNK N   1      25.305  27.648  -5.149  0.00  0.00     0.195 C 
HETATM    6  C   UNK N   1      25.056  26.186  -5.537  0.00  0.00     0.261 A 
HETATM    7  H   UNK N   1      25.662  25.978  -4.514  0.00  0.00     0.280 HD
ENDROOT
BRANCH   1   8
HETATM    8  C   UNK N   1      25.894  23.983  -5.366  0.00  0.00     0.252 C 
BRANCH   8   9
HETATM    9  C   UNK N   1      26.864  23.392  -6.380  0.00  0.00     0.193 C 
BRANCH   9  10
HETATM   10  S   UNK N   1      25.939  22.567  -7.706  0.00  0.00     0.103 S 
HETATM   11  O   UNK N   1      24.365  22.883  -8.318  0.00  0.00    -0.595 OA
HETATM   12  O   UNK N   1      25.080  22.703  -6.439  0.00  0.00    -0.595 OA
HETATM   13  O   UNK N   1      26.076  24.043  -8.114  0.00  0.00    -0.595 OA
ENDBRANCH   9  10
ENDBRANCH   8   9
ENDBRANCH   1   8
TORSDOF 3
ENDMDL
MODEL 5
REMARK VINA RESULT:      -4.4     12.482     13.629
REMARK  3 active torsions:
REMARK  status: ('A' for Active; 'I' for Inactive)
REMARK    1  A    between atoms: S_2  and  C_5 
REMARK    2  A    between atoms: C_5  and  C_6 
REMARK    3  A    between atoms: C_6  and  N_7 
ROOT
HETATM    1  N   UNK N   1      34.110  20.598  -4.292  0.00  0.00    -0.066 N 
HETATM    2  C   UNK N   1      34.053  19.148  -4.085  0.00  0.00     0.261 A 
HETATM    3  C   UNK N   1      35.078  18.475  -4.999  0.00  0.00     0.195 C 
HETATM    4  O   UNK N   1      36.368  18.916  -4.654  0.00  0.00    -0.388 OA
HETATM    5  C   UNK N   1      36.430  20.287  -4.972  0.00  0.00     0.195 C 
HETATM    6  C   UNK N   1      35.477  21.067  -4.061  0.00  0.00     0.261 A 
HETATM    7  H   UNK N   1      34.899  20.008  -4.028  0.00  0.00     0.280 HD
ENDROOT
BRANCH   1   8
HETATM    8  C   UNK N   1      33.242  21.233  -3.312  0.00  0.00     0.252 C 
BRANCH   8   9
HETATM    9  C   UNK N   1      32.199  22.088  -4.020  0.00  0.00     0.193 C 
BRANCH   9  10
HETATM   10  S   UNK N   1      30.724  22.249  -2.974  0.00  0.00     0.103 S 
HETATM   11  O   UNK N   1      30.530  23.012  -1.447  0.00  0.00    -0.595 OA
HETATM   12  O   UNK N   1      31.922  21.737  -2.160  0.00  0.00    -0.595 OA
HETATM   13  O   UNK N   1      31.195  23.677  -3.299  0.00  0.00    -0.595 OA
ENDBRANCH   9  10
ENDBRANCH   8   9
ENDBRANCH   1   8
TORSDOF 3
ENDMDL
MODEL 6
REMARK VINA RESULT:      -4.3      1.440      2.143
REMARK  3 active torsions:
REMARK  status: ('A' for Active; 'I' for Inactive)
REMARK    1  A    between atoms: S_2  and  C_5 
REMARK    2  A    between atoms: C_5  and  C_6 
REMARK    3  A    between atoms: C_6  and  N_7 
ROOT
HETATM    1  N   UNK N   1      30.548  17.636   8.134  0.00  0.00    -0.066 N 
HETATM    2  C   UNK N   1      29.775  17.532   9.376  0.00  0.00     0.261 A 
HETATM    3  C   UNK N   1      28.402  18.170   9.162  0.00  0.00     0.195 C 
HETATM    4  O   UNK N   1      27.714  17.464   8.158  0.00  0.00    -0.388 OA
HETATM    5  C   UNK N   1      28.414  17.678   6.955  0.00  0.00     0.195 C 
HETATM    6  C   UNK N   1      29.794  17.018   7.043  0.00  0.00     0.261 A 
HETATM    7  H   UNK N   1      29.629  17.201   8.224  0.00  0.00     0.280 HD
ENDROOT
BRANCH   1   8
HETATM    8  C   UNK N   1      31.788  16.895   8.305  0.00  0.00     0.252 C 
BRANCH   8   9
HETATM    9  C   UNK N   1      32.975  17.843   8.205  0.00  0.00     0.193 C 
BRANCH   9  10
HETATM   10  S   UNK N   1      34.452  16.923   7.684  0.00  0.00     0.103 S 
HETATM   11  O   UNK N   1      34.882  16.307   6.139  0.00  0.00    -0.595 OA
HETATM   12  O   UNK N   1      33.171  16.223   7.206  0.00  0.00    -0.595 OA
HETATM   13  O   UNK N   1      34.405  18.205   6.835  0.00  0.00    -0.595 OA
ENDBRANCH   9  10
ENDBRANCH   8   9
ENDBRANCH   1   8
TORSDOF 3
ENDMDL
MODEL 7
REMARK VINA RESULT:      -4.2      3.673      4.646
REMARK  3 active torsions:
REMARK  status: ('A' for Active; 'I' for Inactive)
REMARK    1  A    between atoms: S_2  and  C_5 
REMARK    2  A    between atoms: C_5  and  C_6 
REMARK    3  A    between atoms: C_6  and  N_7 
ROOT
HETATM    1  N   UNK N   1      33.128  16.097   5.181  0.00  0.00    -0.066 N 
HETATM    2  C   UNK N   1      33.657  15.041   4.312  0.00  0.00     0.261 A 
HETATM    3  C   UNK N   1      32.792  14.951   3.055  0.00  0.00     0.195 C 
HETATM    4  O   UNK N   1      32.863  16.170   2.355  0.00  0.00    -0.388 OA
HETATM    5  C   UNK N   1      32.243  17.143   3.164  0.00  0.00     0.195 C 
HETATM    6  C   UNK N   1      33.073  17.354   4.434  0.00  0.00     0.261 A 
HETATM    7  H   UNK N   1      33.413  16.219   4.209  0.00  0.00     0.280 HD
ENDROOT
BRANCH   1   8
HETATM    8  C   UNK N   1      34.046  16.273   6.296  0.00  0.00     0.252 C 
BRANCH   8   9
HETATM    9  C   UNK N   1      33.261  16.494   7.582  0.00  0.00     0.193 C 
BRANCH   9  10
HETATM   10  S   UNK N   1      34.194  17.591   8.689  0.00  0.00     0.103 S 
HETATM   11  O   UNK N   1      34.943  19.103   8.372  0.00  0.00    -0.595 OA
HETATM   12  O   UNK N   1      34.963  17.345   7.382  0.00  0.00    -0.595 OA
HETATM   13  O   UNK N   1      32.999  18.404   8.164  0.00  0.00    -0.595 OA
ENDBRANCH   9  10
ENDBRANCH   8   9
ENDBRANCH   1   8
TORSDOF 3
ENDMDL
MODEL 8
REMARK VINA RESULT:      -4.2     11.415     12.282
REMARK  3 active torsions:
REMARK  status: ('A' for Active; 'I' for Inactive)
REMARK    1  A    between atoms: S_2  and  C_5 
REMARK    2  A    between atoms: C_5  and  C_6 
REMARK    3  A    between atoms: C_6  and  N_7 
ROOT
HETATM    1  N   UNK N   1      20.741  17.630   4.224  0.00  0.00    -0.066 N 
HETATM    2  C   UNK N   1      21.804  16.773   4.756  0.00  0.00     0.261 A 
HETATM    3  C   UNK N   1      21.265  16.001   5.960  0.00  0.00     0.195 C 
HETATM    4  O   UNK N   1      20.205  15.176   5.545  0.00  0.00    -0.388 OA
HETATM    5  C   UNK N   1      19.154  16.026   5.149  0.00  0.00     0.195 C 
HETATM    6  C   UNK N   1      19.574  16.808   3.899  0.00  0.00     0.261 A 
HETATM    7  H   UNK N   1      20.678  16.620   4.348  0.00  0.00     0.280 HD
ENDROOT
BRANCH   1   8
HETATM    8  C   UNK N   1      21.220  18.241   2.993  0.00  0.00     0.252 C 
BRANCH   8   9
HETATM    9  C   UNK N   1      21.398  19.740   3.195  0.00  0.00     0.193 C 
BRANCH   9  10
HETATM   10  S   UNK N   1      20.721  20.636   1.767  0.00  0.00     0.103 S 
HETATM   11  O   UNK N   1      21.213  20.625   0.122  0.00  0.00    -0.595 OA
HETATM   12  O   UNK N   1      22.247  20.799   1.846  0.00  0.00    -0.595 OA
HETATM   13  O   UNK N   1      20.615  19.137   1.441  0.00  0.00    -0.595 OA
ENDBRANCH   9  10
ENDBRANCH   8   9
ENDBRANCH   1   8
TORSDOF 3
ENDMDL
MODEL 9
REMARK VINA RESULT:      -4.1      4.042      6.397
REMARK  3 active torsions:
REMARK  status: ('A' for Active; 'I' for Inactive)
REMARK    1  A    between atoms: S_2  and  C_5 
REMARK    2  A    between atoms: C_5  and  C_6 
REMARK    3  A    between atoms: C_6  and  N_7 
ROOT
HETATM    1  N   UNK N   1      35.343  14.688  10.541  0.00  0.00    -0.066 N 
HETATM    2  C   UNK N   1      34.969  14.011  11.787  0.00  0.00     0.261 A 
HETATM    3  C   UNK N   1      35.587  12.613  11.798  0.00  0.00     0.195 C 
HETATM    4  O   UNK N   1      36.989  12.725  11.765  0.00  0.00    -0.388 OA
HETATM    5  C   UNK N   1      37.326  13.269  10.511  0.00  0.00     0.195 C 
HETATM    6  C   UNK N   1      36.802  14.706  10.420  0.00  0.00     0.261 A 
HETATM    7  H   UNK N   1      35.996  14.292  11.217  0.00  0.00     0.280 HD
ENDROOT
BRANCH   1   8
HETATM    8  C   UNK N   1      34.878  16.064  10.612  0.00  0.00     0.252 C 
BRANCH   8   9
HETATM    9  C   UNK N   1      33.932  16.351   9.452  0.00  0.00     0.193 C 
BRANCH   9  10
HETATM   10  S   UNK N   1      34.713  17.514   8.297  0.00  0.00     0.103 S 
HETATM   11  O   UNK N   1      34.776  19.230   8.330  0.00  0.00    -0.595 OA
HETATM   12  O   UNK N   1      33.261  17.922   8.591  0.00  0.00    -0.595 OA
HETATM   13  O   UNK N   1      35.358  17.755   9.672  0.00  0.00    -0.595 OA
ENDBRANCH   9  10
ENDBRANCH   8   9
ENDBRANCH   1   8
TORSDOF 3
ENDMDL
