REMARK  13 active torsions:
REMARK  status: ('A' for Active; 'I' for Inactive)
REMARK    1  A    between atoms: C_9  and  C_7 
REMARK    2  A    between atoms: C_18  and  C_9 
REMARK    3  A    between atoms: C_31  and  C_19 
REMARK    4  A    between atoms: C_32  and  C_21 
REMARK    5  A    between atoms: O_39  and  C_22 
REMARK    6  A    between atoms: O_46  and  C_23 
REMARK    7  A    between atoms: N_38  and  C_25 
REMARK    8  A    between atoms: O_40  and  C_26 
REMARK    9  A    between atoms: C_27  and  O_41 
REMARK   10  A    between atoms: C_29  and  O_48 
REMARK   11  A    between atoms: C_30  and  O_45 
REMARK       I    between atoms: N_38  and  C_31 
REMARK   12  A    between atoms: O_48  and  C_32 
REMARK   13  A    between atoms: C_34  and  O_46 
ROOT
HETATM    1  C   UNK N   1       0.092  -1.105  -0.922  0.00  0.00     0.020 A 
HETATM    2  C   UNK N   1      -1.285  -0.955  -1.082  0.00  0.00     0.040 A 
HETATM    3  C   UNK N   1       0.850  -0.045  -0.415  0.00  0.00     0.035 A 
HETATM    4  C   UNK N   1      -1.921   0.242  -0.725  0.00  0.00     0.096 A 
HETATM    5  C   UNK N   1      -1.174   1.281  -0.135  0.00  0.00     0.102 A 
HETATM    6  C   UNK N   1       2.955   1.089  -0.030  0.00  0.00     0.146 A 
HETATM    7  C   UNK N   1       2.254  -0.067  -0.446  0.00  0.00     0.111 A 
HETATM    8  C   UNK N   1       0.201   1.131   0.016  0.00  0.00     0.117 A 
HETATM    9  C   UNK N   1       2.216   2.179   0.449  0.00  0.00     0.318 A 
HETATM   10 Cl   UNK N   1      -1.863   2.861   0.249  0.00  0.00    -0.078 Cl
HETATM   11  O   UNK N   1       2.791   3.195   0.802  0.00  0.00    -0.257 OA
HETATM   12  O   UNK N   1       0.901   2.159   0.460  0.00  0.00    -0.271 OA
ENDROOT
BRANCH   4  13
HETATM   13  O   UNK N   1      -3.218   0.395  -1.060  0.00  0.00    -0.316 OA
BRANCH  13  14
HETATM   14  C   UNK N   1      -4.236   0.740  -0.205  0.00  0.00     0.298 C 
HETATM   15  C   UNK N   1      -5.505   1.032  -1.040  0.00  0.00     0.206 C 
HETATM   16  C   UNK N   1      -6.714   0.744  -0.153  0.00  0.00     0.197 C 
HETATM   17  C   UNK N   1      -6.705  -0.786   0.077  0.00  0.00     0.186 C 
HETATM   18  C   UNK N   1      -5.262  -1.314   0.436  0.00  0.00     0.085 C 
HETATM   19  C   UNK N   1      -5.298  -2.284   1.606  0.00  0.00     0.048 C 
HETATM   20  C   UNK N   1      -4.655  -2.109  -0.722  0.00  0.00     0.048 C 
HETATM   21  O   UNK N   1      -4.388  -0.262   0.801  0.00  0.00    -0.345 OA
BRANCH  15  22
HETATM   22  O   UNK N   1      -5.491   2.354  -1.500  0.00  0.00    -0.388 OA
HETATM   23  H   UNK N   1      -4.692   2.803  -1.819  0.00  0.00     0.210 HD
ENDBRANCH  15  22
BRANCH  16  24
HETATM   24  O   UNK N   1      -6.589   1.418   1.060  0.00  0.00    -0.305 OA
BRANCH  24  25
HETATM   25  C   UNK N   1      -6.619   2.771   1.210  0.00  0.00     0.310 C 
HETATM   26  O   UNK N   1      -5.773   3.304   1.911  0.00  0.00    -0.258 OA
BRANCH  25  27
HETATM   27  C   UNK N   1      -7.659   3.613   0.581  0.00  0.00     0.108 A 
HETATM   28  C   UNK N   1      -8.795   3.157  -0.062  0.00  0.00     0.038 A 
HETATM   29  C   UNK N   1      -9.492   4.281  -0.459  0.00  0.00     0.027 A 
HETATM   30  C   UNK N   1      -8.743   5.358  -0.033  0.00  0.00     0.005 A 
HETATM   31  C   UNK N   1      -9.101   6.783  -0.250  0.00  0.00     0.068 C 
HETATM   32  N   UNK N   1      -7.633   4.957   0.607  0.00  0.00    -0.355 N 
HETATM   33  H   UNK N   1      -6.942   5.530   1.012  0.00  0.00     0.166 HD
ENDBRANCH  25  27
ENDBRANCH  24  25
ENDBRANCH  16  24
BRANCH  17  34
HETATM   34  O   UNK N   1      -7.674  -1.097   1.060  0.00  0.00    -0.385 OA
HETATM   35  C   UNK N   1      -8.259  -2.334   0.737  0.00  0.00     0.202 C 
ENDBRANCH  17  34
ENDBRANCH  13  14
ENDBRANCH   4  13
BRANCH   7  36
HETATM   36  O   UNK N   1       2.887  -1.125  -0.978  0.00  0.00    -0.357 OA
HETATM   37  H   UNK N   1       2.468  -1.877  -1.348  0.00  0.00     0.217 HD
ENDBRANCH   7  36
BRANCH   6  38
HETATM   38  N   UNK N   1       4.335   1.336  -0.242  0.00  0.00    -0.316 N 
HETATM   39  C   UNK N   1       5.549   0.773  -0.425  0.00  0.00     0.256 C 
HETATM   40  O   UNK N   1       6.441   1.524  -0.793  0.00  0.00    -0.267 OA
HETATM   41  H   UNK N   1       4.458   2.312  -0.264  0.00  0.00     0.169 HD
BRANCH  39  42
HETATM   42  C   UNK N   1       5.928  -0.636  -0.161  0.00  0.00     0.033 A 
HETATM   43  C   UNK N   1       5.099  -1.616   0.396  0.00  0.00     0.020 A 
HETATM   44  C   UNK N   1       5.605  -2.904   0.643  0.00  0.00     0.038 A 
HETATM   45  C   UNK N   1       6.952  -3.200   0.375  0.00  0.00     0.072 A 
HETATM   46  C   UNK N   1       7.790  -2.203  -0.144  0.00  0.00    -0.021 A 
HETATM   47  C   UNK N   1       7.260  -0.955  -0.411  0.00  0.00     0.027 A 
BRANCH  45  48
HETATM   48  O   UNK N   1       7.431  -4.430   0.628  0.00  0.00    -0.360 OA
HETATM   49  H   UNK N   1       6.856  -5.148   0.805  0.00  0.00     0.217 HD
ENDBRANCH  45  48
BRANCH  46  50
HETATM   50  C   UNK N   1       9.249  -2.429  -0.408  0.00  0.00     0.068 C 
BRANCH  50  51
HETATM   51  C   UNK N   1      10.115  -1.574   0.491  0.00  0.00    -0.020 C 
HETATM   52  C   UNK N   1      10.352  -0.259   0.326  0.00  0.00    -0.091 C 
HETATM   53  C   UNK N   1       9.788   0.528  -0.814  0.00  0.00     0.042 C 
HETATM   54  C   UNK N   1      11.225   0.445   1.306  0.00  0.00     0.042 C 
ENDBRANCH  50  51
ENDBRANCH  46  50
ENDBRANCH  39  42
ENDBRANCH   6  38
TORSDOF 13
