MODEL 1
REMARK VINA RESULT:      -4.9      0.000      0.000
REMARK  5 active torsions:
REMARK  status: ('A' for Active; 'I' for Inactive)
REMARK    1  A    between atoms: C_3  and  C_1 
REMARK    2  A    between atoms: C_4  and  C_2 
REMARK    3  A    between atoms: C_5  and  C_2 
REMARK    4  A    between atoms: C_6  and  C_4 
REMARK    5  A    between atoms: C_4  and  O_9 
ROOT
HETATM    1  C   UNK N   1      31.803  17.354   7.357  0.00  0.00     0.101 C 
HETATM    2  C   UNK N   1      33.160  17.492   7.226  0.00  0.00     0.064 C 
ENDROOT
BRANCH   2   3
HETATM    3  C   UNK N   1      34.000  17.994   8.422  0.00  0.00     0.259 C 
BRANCH   3   4
HETATM    4  C   UNK N   1      34.648  17.071   9.444  0.00  0.00     0.207 C 
HETATM    5  O   UNK N   1      35.528  17.521  10.161  0.00  0.00    -0.646 OA
HETATM    6  O   UNK N   1      34.218  15.819   9.670  0.00  0.00    -0.646 OA
ENDBRANCH   3   4
BRANCH   3   7
HETATM    7  O   UNK N   1      35.000  18.829   7.914  0.00  0.00    -0.380 OA
HETATM    8  H   UNK N   1      35.623  19.542   8.121  0.00  0.00     0.211 HD
ENDBRANCH   3   7
ENDBRANCH   2   3
BRANCH   2   9
HETATM    9  C   UNK N   1      33.728  17.202   5.860  0.00  0.00     0.208 C 
HETATM   10  O   UNK N   1      34.749  16.556   5.719  0.00  0.00    -0.644 OA
HETATM   11  O   UNK N   1      33.152  17.727   4.760  0.00  0.00    -0.644 OA
ENDBRANCH   2   9
BRANCH   1  12
HETATM   12  C   UNK N   1      30.978  17.601   8.577  0.00  0.00     0.199 C 
HETATM   13  O   UNK N   1      30.637  16.645   9.257  0.00  0.00    -0.644 OA
HETATM   14  O   UNK N   1      30.602  18.834   8.960  0.00  0.00    -0.644 OA
ENDBRANCH   1  12
TORSDOF 5
ENDMDL
MODEL 2
REMARK VINA RESULT:      -4.8      2.149      4.134
REMARK  5 active torsions:
REMARK  status: ('A' for Active; 'I' for Inactive)
REMARK    1  A    between atoms: C_3  and  C_1 
REMARK    2  A    between atoms: C_4  and  C_2 
REMARK    3  A    between atoms: C_5  and  C_2 
REMARK    4  A    between atoms: C_6  and  C_4 
REMARK    5  A    between atoms: C_4  and  O_9 
ROOT
HETATM    1  C   UNK N   1      35.049  15.021   9.707  0.00  0.00     0.101 C 
HETATM    2  C   UNK N   1      34.234  15.689   8.831  0.00  0.00     0.064 C 
ENDROOT
BRANCH   2   3
HETATM    3  C   UNK N   1      34.005  17.208   9.003  0.00  0.00     0.259 C 
BRANCH   3   4
HETATM    4  C   UNK N   1      34.632  18.263   8.102  0.00  0.00     0.207 C 
HETATM    5  O   UNK N   1      34.416  18.206   6.902  0.00  0.00    -0.646 OA
HETATM    6  O   UNK N   1      35.315  19.316   8.580  0.00  0.00    -0.646 OA
ENDBRANCH   3   4
BRANCH   3   7
HETATM    7  O   UNK N   1      32.625  17.428   9.011  0.00  0.00    -0.380 OA
HETATM    8  H   UNK N   1      31.751  17.008   9.006  0.00  0.00     0.211 HD
ENDBRANCH   3   7
ENDBRANCH   2   3
BRANCH   2   9
HETATM    9  C   UNK N   1      33.550  14.847   7.785  0.00  0.00     0.208 C 
HETATM   10  O   UNK N   1      34.143  14.446   6.802  0.00  0.00    -0.644 OA
HETATM   11  O   UNK N   1      32.230  14.586   7.880  0.00  0.00    -0.644 OA
ENDBRANCH   2   9
BRANCH   1  12
HETATM   12  C   UNK N   1      35.821  15.594  10.849  0.00  0.00     0.199 C 
HETATM   13  O   UNK N   1      36.839  16.227  10.609  0.00  0.00    -0.644 OA
HETATM   14  O   UNK N   1      35.437  15.449  12.129  0.00  0.00    -0.644 OA
ENDBRANCH   1  12
TORSDOF 5
ENDMDL
MODEL 3
REMARK VINA RESULT:      -4.8     13.650     14.520
REMARK  5 active torsions:
REMARK  status: ('A' for Active; 'I' for Inactive)
REMARK    1  A    between atoms: C_3  and  C_1 
REMARK    2  A    between atoms: C_4  and  C_2 
REMARK    3  A    between atoms: C_5  and  C_2 
REMARK    4  A    between atoms: C_6  and  C_4 
REMARK    5  A    between atoms: C_4  and  O_9 
ROOT
HETATM    1  C   UNK N   1      20.031  16.012   3.294  0.00  0.00     0.101 C 
HETATM    2  C   UNK N   1      20.011  17.046   2.395  0.00  0.00     0.064 C 
ENDROOT
BRANCH   2   3
HETATM    3  C   UNK N   1      19.504  18.438   2.838  0.00  0.00     0.259 C 
BRANCH   3   4
HETATM    4  C   UNK N   1      20.342  19.706   2.756  0.00  0.00     0.207 C 
HETATM    5  O   UNK N   1      20.409  20.292   1.688  0.00  0.00    -0.646 OA
HETATM    6  O   UNK N   1      20.915  20.269   3.832  0.00  0.00    -0.646 OA
ENDBRANCH   3   4
BRANCH   3   7
HETATM    7  O   UNK N   1      18.304  18.682   2.165  0.00  0.00    -0.380 OA
HETATM    8  H   UNK N   1      17.561  18.280   1.688  0.00  0.00     0.211 HD
ENDBRANCH   3   7
ENDBRANCH   2   3
BRANCH   2   9
HETATM    9  C   UNK N   1      20.431  16.712   0.987  0.00  0.00     0.208 C 
HETATM   10  O   UNK N   1      20.968  15.654   0.716  0.00  0.00    -0.644 OA
HETATM   11  O   UNK N   1      20.289  17.622   0.002  0.00  0.00    -0.644 OA
ENDBRANCH   2   9
BRANCH   1  12
HETATM   12  C   UNK N   1      19.641  16.051   4.734  0.00  0.00     0.199 C 
HETATM   13  O   UNK N   1      20.521  16.149   5.577  0.00  0.00    -0.644 OA
HETATM   14  O   UNK N   1      18.361  15.992   5.142  0.00  0.00    -0.644 OA
ENDBRANCH   1  12
TORSDOF 5
ENDMDL
MODEL 4
REMARK VINA RESULT:      -4.8      1.910      2.856
REMARK  5 active torsions:
REMARK  status: ('A' for Active; 'I' for Inactive)
REMARK    1  A    between atoms: C_3  and  C_1 
REMARK    2  A    between atoms: C_4  and  C_2 
REMARK    3  A    between atoms: C_5  and  C_2 
REMARK    4  A    between atoms: C_6  and  C_4 
REMARK    5  A    between atoms: C_4  and  O_9 
ROOT
HETATM    1  C   UNK N   1      32.876  16.349   8.385  0.00  0.00     0.101 C 
HETATM    2  C   UNK N   1      34.081  16.913   8.713  0.00  0.00     0.064 C 
ENDROOT
BRANCH   2   3
HETATM    3  C   UNK N   1      34.879  16.370   9.920  0.00  0.00     0.259 C 
BRANCH   3   4
HETATM    4  C   UNK N   1      35.779  15.144   9.855  0.00  0.00     0.207 C 
HETATM    5  O   UNK N   1      35.968  14.617   8.770  0.00  0.00    -0.646 OA
HETATM    6  O   UNK N   1      36.464  14.687  10.916  0.00  0.00    -0.646 OA
ENDBRANCH   3   4
BRANCH   3   7
HETATM    7  O   UNK N   1      35.642  17.425  10.429  0.00  0.00    -0.380 OA
HETATM    8  H   UNK N   1      36.256  18.143  10.210  0.00  0.00     0.211 HD
ENDBRANCH   3   7
ENDBRANCH   2   3
BRANCH   2   9
HETATM    9  C   UNK N   1      34.508  18.098   7.885  0.00  0.00     0.208 C 
HETATM   10  O   UNK N   1      34.991  19.091   8.395  0.00  0.00    -0.644 OA
HETATM   11  O   UNK N   1      34.287  18.112   6.555  0.00  0.00    -0.644 OA
ENDBRANCH   2   9
BRANCH   1  12
HETATM   12  C   UNK N   1      32.202  15.195   9.049  0.00  0.00     0.199 C 
HETATM   13  O   UNK N   1      31.421  15.418   9.962  0.00  0.00    -0.644 OA
HETATM   14  O   UNK N   1      32.412  13.920   8.678  0.00  0.00    -0.644 OA
ENDBRANCH   1  12
TORSDOF 5
ENDMDL
MODEL 5
REMARK VINA RESULT:      -4.7      2.188      4.480
REMARK  5 active torsions:
REMARK  status: ('A' for Active; 'I' for Inactive)
REMARK    1  A    between atoms: C_3  and  C_1 
REMARK    2  A    between atoms: C_4  and  C_2 
REMARK    3  A    between atoms: C_5  and  C_2 
REMARK    4  A    between atoms: C_6  and  C_4 
REMARK    5  A    between atoms: C_4  and  O_9 
ROOT
HETATM    1  C   UNK N   1      34.739  17.332   9.019  0.00  0.00     0.101 C 
HETATM    2  C   UNK N   1      34.509  16.199   9.755  0.00  0.00     0.064 C 
ENDROOT
BRANCH   2   3
HETATM    3  C   UNK N   1      33.236  15.362   9.497  0.00  0.00     0.259 C 
BRANCH   3   4
HETATM    4  C   UNK N   1      33.229  14.057   8.714  0.00  0.00     0.207 C 
HETATM    5  O   UNK N   1      34.074  13.216   8.974  0.00  0.00    -0.646 OA
HETATM    6  O   UNK N   1      32.267  13.744   7.830  0.00  0.00    -0.646 OA
ENDBRANCH   3   4
BRANCH   3   7
HETATM    7  O   UNK N   1      32.639  15.112  10.736  0.00  0.00    -0.380 OA
HETATM    8  H   UNK N   1      31.861  15.273  11.293  0.00  0.00     0.211 HD
ENDBRANCH   3   7
ENDBRANCH   2   3
BRANCH   2   9
HETATM    9  C   UNK N   1      35.514  15.894  10.836  0.00  0.00     0.208 C 
HETATM   10  O   UNK N   1      36.646  16.337  10.798  0.00  0.00    -0.644 OA
HETATM   11  O   UNK N   1      35.196  15.051  11.839  0.00  0.00    -0.644 OA
ENDBRANCH   2   9
BRANCH   1  12
HETATM   12  C   UNK N   1      33.900  17.885   7.914  0.00  0.00     0.199 C 
HETATM   13  O   UNK N   1      32.803  18.348   8.188  0.00  0.00    -0.644 OA
HETATM   14  O   UNK N   1      34.306  17.900   6.633  0.00  0.00    -0.644 OA
ENDBRANCH   1  12
TORSDOF 5
ENDMDL
MODEL 6
REMARK VINA RESULT:      -4.7      1.601      3.787
REMARK  5 active torsions:
REMARK  status: ('A' for Active; 'I' for Inactive)
REMARK    1  A    between atoms: C_3  and  C_1 
REMARK    2  A    between atoms: C_4  and  C_2 
REMARK    3  A    between atoms: C_5  and  C_2 
REMARK    4  A    between atoms: C_6  and  C_4 
REMARK    5  A    between atoms: C_4  and  O_9 
ROOT
HETATM    1  C   UNK N   1      33.846  17.554   6.216  0.00  0.00     0.101 C 
HETATM    2  C   UNK N   1      33.541  17.335   7.534  0.00  0.00     0.064 C 
ENDROOT
BRANCH   2   3
HETATM    3  C   UNK N   1      32.256  16.561   7.906  0.00  0.00     0.259 C 
BRANCH   3   4
HETATM    4  C   UNK N   1      32.195  15.047   8.051  0.00  0.00     0.207 C 
HETATM    5  O   UNK N   1      32.391  14.559   9.152  0.00  0.00    -0.646 OA
HETATM    6  O   UNK N   1      31.822  14.235   7.049  0.00  0.00    -0.646 OA
ENDBRANCH   3   4
BRANCH   3   7
HETATM    7  O   UNK N   1      31.756  17.118   9.087  0.00  0.00    -0.380 OA
HETATM    8  H   UNK N   1      30.958  17.399   9.560  0.00  0.00     0.211 HD
ENDBRANCH   3   7
ENDBRANCH   2   3
BRANCH   2   9
HETATM    9  C   UNK N   1      34.478  17.948   8.544  0.00  0.00     0.208 C 
HETATM   10  O   UNK N   1      34.691  17.419   9.618  0.00  0.00    -0.644 OA
HETATM   11  O   UNK N   1      35.043  19.149   8.304  0.00  0.00    -0.644 OA
ENDBRANCH   2   9
BRANCH   1  12
HETATM   12  C   UNK N   1      33.084  17.093   5.018  0.00  0.00     0.199 C 
HETATM   13  O   UNK N   1      33.404  16.038   4.490  0.00  0.00    -0.644 OA
HETATM   14  O   UNK N   1      32.055  17.788   4.501  0.00  0.00    -0.644 OA
ENDBRANCH   1  12
TORSDOF 5
ENDMDL
MODEL 7
REMARK VINA RESULT:      -4.6     10.706     13.057
REMARK  5 active torsions:
REMARK  status: ('A' for Active; 'I' for Inactive)
REMARK    1  A    between atoms: C_3  and  C_1 
REMARK    2  A    between atoms: C_4  and  C_2 
REMARK    3  A    between atoms: C_5  and  C_2 
REMARK    4  A    between atoms: C_6  and  C_4 
REMARK    5  A    between atoms: C_4  and  O_9 
ROOT
HETATM    1  C   UNK N   1      23.690  19.463   3.701  0.00  0.00     0.101 C 
HETATM    2  C   UNK N   1      22.335  19.536   3.509  0.00  0.00     0.064 C 
ENDROOT
BRANCH   2   3
HETATM    3  C   UNK N   1      21.755  20.572   2.519  0.00  0.00     0.259 C 
BRANCH   3   4
HETATM    4  C   UNK N   1      21.158  20.205   1.168  0.00  0.00     0.207 C 
HETATM    5  O   UNK N   1      21.241  21.011   0.255  0.00  0.00    -0.646 OA
HETATM    6  O   UNK N   1      20.647  18.991   0.903  0.00  0.00    -0.646 OA
ENDBRANCH   3   4
BRANCH   3   7
HETATM    7  O   UNK N   1      20.802  21.327   3.209  0.00  0.00    -0.380 OA
HETATM    8  H   UNK N   1      20.533  21.671   4.074  0.00  0.00     0.211 HD
ENDBRANCH   3   7
ENDBRANCH   2   3
BRANCH   2   9
HETATM    9  C   UNK N   1      21.493  18.621   4.360  0.00  0.00     0.208 C 
HETATM   10  O   UNK N   1      21.165  17.515   3.974  0.00  0.00    -0.644 OA
HETATM   11  O   UNK N   1      21.015  19.046   5.547  0.00  0.00    -0.644 OA
ENDBRANCH   2   9
BRANCH   1  12
HETATM   12  C   UNK N   1      24.749  20.266   3.022  0.00  0.00     0.199 C 
HETATM   13  O   UNK N   1      25.738  20.592   3.662  0.00  0.00    -0.644 OA
HETATM   14  O   UNK N   1      24.663  20.639   1.733  0.00  0.00    -0.644 OA
ENDBRANCH   1  12
TORSDOF 5
ENDMDL
MODEL 8
REMARK VINA RESULT:      -4.5     10.404     11.885
REMARK  5 active torsions:
REMARK  status: ('A' for Active; 'I' for Inactive)
REMARK    1  A    between atoms: C_3  and  C_1 
REMARK    2  A    between atoms: C_4  and  C_2 
REMARK    3  A    between atoms: C_5  and  C_2 
REMARK    4  A    between atoms: C_6  and  C_4 
REMARK    5  A    between atoms: C_4  and  O_9 
ROOT
HETATM    1  C   UNK N   1      41.542  21.320   2.365  0.00  0.00     0.101 C 
HETATM    2  C   UNK N   1      42.370  22.380   2.628  0.00  0.00     0.064 C 
ENDROOT
BRANCH   2   3
HETATM    3  C   UNK N   1      43.333  22.321   3.836  0.00  0.00     0.259 C 
BRANCH   3   4
HETATM    4  C   UNK N   1      44.726  21.713   3.775  0.00  0.00     0.207 C 
HETATM    5  O   UNK N   1      45.661  22.349   4.236  0.00  0.00    -0.646 OA
HETATM    6  O   UNK N   1      44.957  20.463   3.341  0.00  0.00    -0.646 OA
ENDBRANCH   3   4
BRANCH   3   7
HETATM    7  O   UNK N   1      43.462  23.621   4.335  0.00  0.00    -0.380 OA
HETATM    8  H   UNK N   1      43.662  24.157   5.117  0.00  0.00     0.211 HD
ENDBRANCH   3   7
ENDBRANCH   2   3
BRANCH   2   9
HETATM    9  C   UNK N   1      42.217  23.582   1.730  0.00  0.00     0.208 C 
HETATM   10  O   UNK N   1      43.180  24.130   1.229  0.00  0.00    -0.644 OA
HETATM   11  O   UNK N   1      41.000  24.126   1.526  0.00  0.00    -0.644 OA
ENDBRANCH   2   9
BRANCH   1  12
HETATM   12  C   UNK N   1      41.459  20.026   3.105  0.00  0.00     0.199 C 
HETATM   13  O   UNK N   1      42.188  19.108   2.762  0.00  0.00    -0.644 OA
HETATM   14  O   UNK N   1      40.621  19.834   4.139  0.00  0.00    -0.644 OA
ENDBRANCH   1  12
TORSDOF 5
ENDMDL
MODEL 9
REMARK VINA RESULT:      -4.5      1.288      3.833
REMARK  5 active torsions:
REMARK  status: ('A' for Active; 'I' for Inactive)
REMARK    1  A    between atoms: C_3  and  C_1 
REMARK    2  A    between atoms: C_4  and  C_2 
REMARK    3  A    between atoms: C_5  and  C_2 
REMARK    4  A    between atoms: C_6  and  C_4 
REMARK    5  A    between atoms: C_4  and  O_9 
ROOT
HETATM    1  C   UNK N   1      33.867  17.768   7.301  0.00  0.00     0.101 C 
HETATM    2  C   UNK N   1      32.540  17.426   7.294  0.00  0.00     0.064 C 
ENDROOT
BRANCH   2   3
HETATM    3  C   UNK N   1      31.734  17.452   8.612  0.00  0.00     0.259 C 
BRANCH   3   4
HETATM    4  C   UNK N   1      30.341  18.051   8.737  0.00  0.00     0.207 C 
HETATM    5  O   UNK N   1      30.202  19.076   9.385  0.00  0.00    -0.646 OA
HETATM    6  O   UNK N   1      29.278  17.566   8.074  0.00  0.00    -0.646 OA
ENDBRANCH   3   4
BRANCH   3   7
HETATM    7  O   UNK N   1      31.674  16.142   9.096  0.00  0.00    -0.380 OA
HETATM    8  H   UNK N   1      31.281  15.264   8.972  0.00  0.00     0.211 HD
ENDBRANCH   3   7
ENDBRANCH   2   3
BRANCH   2   9
HETATM    9  C   UNK N   1      31.978  16.970   5.972  0.00  0.00     0.208 C 
HETATM   10  O   UNK N   1      31.276  15.980   5.885  0.00  0.00    -0.644 OA
HETATM   11  O   UNK N   1      32.311  17.613   4.834  0.00  0.00    -0.644 OA
ENDBRANCH   2   9
BRANCH   1  12
HETATM   12  C   UNK N   1      34.683  18.222   8.465  0.00  0.00     0.199 C 
HETATM   13  O   UNK N   1      35.177  19.340   8.434  0.00  0.00    -0.644 OA
HETATM   14  O   UNK N   1      34.890  17.455   9.550  0.00  0.00    -0.644 OA
ENDBRANCH   1  12
TORSDOF 5
ENDMDL
