REMARK  4 active torsions:
REMARK  status: ('A' for Active; 'I' for Inactive)
REMARK    1  A    between atoms: C_2  and  C_4 
REMARK    2  A    between atoms: C_4  and  N_5 
REMARK    3  A    between atoms: C_4  and  C_6 
REMARK    4  A    between atoms: C_6  and  O_7 
ROOT
HETATM    1  C   UNK N   1       1.701   0.958  -0.000  0.00  0.00     0.243 C 
ENDROOT
BRANCH   1   2
HETATM    2  C   UNK N   1       1.014   2.296   0.000  0.00  0.00     0.155 C 
HETATM    3  C   UNK N   1       1.809   3.557   0.000  0.00  0.00     0.093 C 
HETATM    4  O   UNK N   1      -0.204   2.360   0.000  0.00  0.00    -0.296 OA
ENDBRANCH   1   2
BRANCH   1   5
HETATM    5  N   UNK N   1       3.155   0.918  -0.000  0.00  0.00    -0.412 N 
HETATM    6  H   UNK N   1       3.641   0.021  -0.000  0.00  0.00     0.151 HD
HETATM    7  H   UNK N   1       3.689   1.787  -0.000  0.00  0.00     0.151 HD
ENDBRANCH   1   5
BRANCH   1   8
HETATM    8  C   UNK N   1       0.959  -0.347  -0.000  0.00  0.00     0.170 C 
HETATM    9  O   UNK N   1      -0.259  -0.363   0.000  0.00  0.00    -0.648 OA
BRANCH   8  10
HETATM   10  O   UNK N   1       1.640  -1.509  -0.000  0.00  0.00    -0.775 OA
HETATM   11  H   UNK N   1       1.176  -2.324  -0.000  0.00  0.00     0.167 HD
ENDBRANCH   8  10
ENDBRANCH   1   8
TORSDOF 4
