REMARK  7 active torsions:
REMARK  status: ('A' for Active; 'I' for Inactive)
REMARK    1  A    between atoms: C_2  and  O_7 
REMARK    2  A    between atoms: C_5  and  C_3 
REMARK    3  A    between atoms: C_4  and  O_15 
REMARK    4  A    between atoms: O_9  and  C_5 
REMARK    5  A    between atoms: C_6  and  O_10 
REMARK    6  A    between atoms: S_16  and  O_11 
REMARK    7  A    between atoms: S_16  and  O_15 
ROOT
HETATM    1  C   UNK N   1       2.348   1.039   0.014  0.00  0.00     0.051 C 
HETATM    2  C   UNK N   1       1.078   1.819   0.276  0.00  0.00     0.179 C 
HETATM    3  C   UNK N   1       2.333  -0.307  -0.074  0.00  0.00     0.144 C 
HETATM    4  C   UNK N   1      -0.185   0.966   0.025  0.00  0.00     0.231 C 
HETATM    5  C   UNK N   1       0.040  -0.419   0.644  0.00  0.00     0.296 C 
HETATM    6  O   UNK N   1       1.170  -0.993   0.089  0.00  0.00    -0.311 OA
ENDROOT
BRANCH   4   7
HETATM    7  O   UNK N   1      -1.307   1.584   0.635  0.00  0.00    -0.250 OA
BRANCH   7   8
HETATM    8  S   UNK N   1      -2.556   1.875  -0.531  0.00  0.00     0.241 S 
HETATM    9  O   UNK N   1      -2.623   3.032   0.477  0.00  0.00    -0.579 OA
HETATM   10  O   UNK N   1      -2.995   0.635   0.264  0.00  0.00    -0.579 OA
BRANCH   8  11
HETATM   11  O   UNK N   1      -4.202   2.058  -0.077  0.00  0.00    -0.274 OA
HETATM   12  H   UNK N   1      -4.577   2.915   0.180  0.00  0.00     0.234 HD
ENDBRANCH   8  11
ENDBRANCH   7   8
ENDBRANCH   4   7
BRANCH   2  13
HETATM   13  O   UNK N   1       1.047   2.958  -0.530  0.00  0.00    -0.389 OA
HETATM   14  H   UNK N   1       1.721   3.373  -1.090  0.00  0.00     0.210 HD
ENDBRANCH   2  13
BRANCH   5  15
HETATM   15  O   UNK N   1      -1.052  -1.255   0.417  0.00  0.00    -0.368 OA
HETATM   16  H   UNK N   1      -1.936  -0.888   0.259  0.00  0.00     0.212 HD
ENDBRANCH   5  15
BRANCH   3  17
HETATM   17  C   UNK N   1       3.578  -1.052  -0.343  0.00  0.00     0.200 C 
HETATM   18  O   UNK N   1       3.550  -2.271  -0.422  0.00  0.00    -0.645 OA
BRANCH  17  19
HETATM   19  O   UNK N   1       4.751  -0.404  -0.479  0.00  0.00    -0.771 OA
HETATM   20  H   UNK N   1       5.549  -0.885  -0.574  0.00  0.00     0.167 HD
ENDBRANCH  17  19
ENDBRANCH   3  17
TORSDOF 7
