MODEL 1
REMARK VINA RESULT:      -8.3      0.000      0.000
REMARK  6 active torsions:
REMARK  status: ('A' for Active; 'I' for Inactive)
REMARK    1  A    between atoms: N_2  and  C_4 
REMARK    2  A    between atoms: C_8  and  C_21 
REMARK    3  A    between atoms: C_12  and  N_18 
REMARK    4  A    between atoms: C_24  and  N_30 
REMARK    5  A    between atoms: C_26  and  C_27 
REMARK    6  A    between atoms: C_27  and  O_28 
ROOT
HETATM    1  C   UNK N   1      37.547  13.103   5.574  0.00  0.00     0.028 C 
HETATM    2  C   UNK N   1      36.578  13.966   5.223  0.00  0.00     0.007 C 
HETATM    3  C   UNK N   1      35.881  14.857   6.216  0.00  0.00     0.072 C 
HETATM    4  C   UNK N   1      36.066  14.433   7.661  0.00  0.00    -0.009 C 
HETATM    5  C   UNK N   1      35.194  14.777   8.676  0.00  0.00    -0.003 C 
HETATM    6  C   UNK N   1      35.528  14.219  10.045  0.00  0.00     0.010 C 
HETATM    7  C   UNK N   1      34.605  14.209  11.093  0.00  0.00     0.017 C 
HETATM    8  C   UNK N   1      34.974  13.836  12.381  0.00  0.00     0.030 C 
HETATM    9  C   UNK N   1      36.283  13.424  12.650  0.00  0.00     0.032 C 
HETATM   10  C   UNK N   1      37.180  13.284  11.579  0.00  0.00     0.067 C 
HETATM   11  C   UNK N   1      36.801  13.650  10.281  0.00  0.00     0.089 C 
HETATM   12  O   UNK N   1      37.652  13.423   9.259  0.00  0.00    -0.309 OA
HETATM   13  C   UNK N   1      37.277  13.616   7.975  0.00  0.00     0.085 C 
HETATM   14  C   UNK N   1      37.965  13.011   6.997  0.00  0.00     0.066 C 
ENDROOT
BRANCH   5  15
HETATM   15  C   UNK N   1      33.927  15.631   8.407  0.00  0.00    -0.007 A 
HETATM   16  C   UNK N   1      32.782  14.953   7.939  0.00  0.00     0.015 A 
HETATM   17  C   UNK N   1      31.562  15.582   7.713  0.00  0.00     0.031 A 
HETATM   18  C   UNK N   1      31.408  16.937   7.992  0.00  0.00     0.047 A 
HETATM   19  C   UNK N   1      32.516  17.646   8.441  0.00  0.00     0.049 A 
HETATM   20  C   UNK N   1      33.774  17.058   8.623  0.00  0.00     0.051 A 
BRANCH  18  21
HETATM   21  N   UNK N   1      30.146  17.601   7.810  0.00  0.00    -0.245 N 
HETATM   22  C   UNK N   1      29.371  18.137   8.774  0.00  0.00     0.255 A 
HETATM   23  O   UNK N   1      29.630  18.117   9.966  0.00  0.00    -0.268 OA
HETATM   24  C   UNK N   1      28.166  18.737   8.181  0.00  0.00     0.080 A 
HETATM   25  C   UNK N   1      28.257  18.536   6.856  0.00  0.00     0.080 A 
HETATM   26  C   UNK N   1      29.516  17.812   6.635  0.00  0.00     0.255 A 
HETATM   27  O   UNK N   1      29.939  17.463   5.545  0.00  0.00    -0.268 OA
ENDBRANCH  18  21
BRANCH  20  28
HETATM   28  C   UNK N   1      34.840  18.043   8.926  0.00  0.00     0.177 C 
HETATM   29  O   UNK N   1      34.963  19.056   8.258  0.00  0.00    -0.646 OA
BRANCH  28  30
HETATM   30  O   UNK N   1      35.605  17.883  10.027  0.00  0.00    -0.773 OA
HETATM   31  H   UNK N   1      36.330  18.452  10.197  0.00  0.00     0.167 HD
ENDBRANCH  28  30
ENDBRANCH  20  28
ENDBRANCH   5  15
BRANCH   1  32
HETATM   32  N   UNK N   1      38.128  12.234   4.594  0.00  0.00    -0.390 N 
HETATM   33  C   UNK N   1      37.889  12.450   3.190  0.00  0.00     0.149 C 
HETATM   34  C   UNK N   1      39.049  11.191   4.977  0.00  0.00     0.149 C 
ENDBRANCH   1  32
BRANCH   9  35
HETATM   35  N   UNK N   1      36.699  13.186  13.995  0.00  0.00    -0.389 N 
HETATM   36  C   UNK N   1      37.197  11.894  14.395  0.00  0.00     0.149 C 
HETATM   37  C   UNK N   1      36.776  14.270  14.942  0.00  0.00     0.149 C 
ENDBRANCH   9  35
TORSDOF 6
ENDMDL
MODEL 2
REMARK VINA RESULT:      -7.9      0.456      5.393
REMARK  6 active torsions:
REMARK  status: ('A' for Active; 'I' for Inactive)
REMARK    1  A    between atoms: N_2  and  C_4 
REMARK    2  A    between atoms: C_8  and  C_21 
REMARK    3  A    between atoms: C_12  and  N_18 
REMARK    4  A    between atoms: C_24  and  N_30 
REMARK    5  A    between atoms: C_26  and  C_27 
REMARK    6  A    between atoms: C_27  and  O_28 
ROOT
HETATM    1  C   UNK N   1      36.218  13.375  12.689  0.00  0.00     0.028 C 
HETATM    2  C   UNK N   1      35.050  14.023  12.532  0.00  0.00     0.007 C 
HETATM    3  C   UNK N   1      34.386  14.194  11.192  0.00  0.00     0.072 C 
HETATM    4  C   UNK N   1      35.304  13.939  10.012  0.00  0.00    -0.009 C 
HETATM    5  C   UNK N   1      35.089  14.460   8.751  0.00  0.00    -0.003 C 
HETATM    6  C   UNK N   1      36.145  14.127   7.715  0.00  0.00     0.010 C 
HETATM    7  C   UNK N   1      36.245  14.814   6.502  0.00  0.00     0.017 C 
HETATM    8  C   UNK N   1      37.117  14.397   5.502  0.00  0.00     0.030 C 
HETATM    9  C   UNK N   1      37.948  13.290   5.705  0.00  0.00     0.032 C 
HETATM   10  C   UNK N   1      37.968  12.684   6.972  0.00  0.00     0.067 C 
HETATM   11  C   UNK N   1      37.096  13.115   7.980  0.00  0.00     0.089 C 
HETATM   12  O   UNK N   1      37.197  12.573   9.212  0.00  0.00    -0.309 OA
HETATM   13  C   UNK N   1      36.486  13.058  10.254  0.00  0.00     0.085 C 
HETATM   14  C   UNK N   1      36.896  12.793  11.502  0.00  0.00     0.066 C 
ENDROOT
BRANCH   5  15
HETATM   15  C   UNK N   1      33.874  15.373   8.441  0.00  0.00    -0.007 A 
HETATM   16  C   UNK N   1      32.726  14.755   7.903  0.00  0.00     0.015 A 
HETATM   17  C   UNK N   1      31.546  15.441   7.634  0.00  0.00     0.031 A 
HETATM   18  C   UNK N   1      31.435  16.795   7.935  0.00  0.00     0.047 A 
HETATM   19  C   UNK N   1      32.550  17.446   8.453  0.00  0.00     0.049 A 
HETATM   20  C   UNK N   1      33.771  16.800   8.682  0.00  0.00     0.051 A 
BRANCH  18  21
HETATM   21  N   UNK N   1      30.213  17.517   7.707  0.00  0.00    -0.245 N 
HETATM   22  C   UNK N   1      29.661  17.810   6.513  0.00  0.00     0.255 A 
HETATM   23  O   UNK N   1      30.143  17.514   5.432  0.00  0.00    -0.268 OA
HETATM   24  C   UNK N   1      28.404  18.549   6.703  0.00  0.00     0.080 A 
HETATM   25  C   UNK N   1      28.239  18.680   8.030  0.00  0.00     0.080 A 
HETATM   26  C   UNK N   1      29.396  18.023   8.654  0.00  0.00     0.255 A 
HETATM   27  O   UNK N   1      29.585  17.935   9.857  0.00  0.00    -0.268 OA
ENDBRANCH  18  21
BRANCH  20  28
HETATM   28  C   UNK N   1      34.861  17.732   9.057  0.00  0.00     0.177 C 
HETATM   29  O   UNK N   1      35.074  18.741   8.406  0.00  0.00    -0.646 OA
BRANCH  28  30
HETATM   30  O   UNK N   1      35.547  17.531  10.203  0.00  0.00    -0.773 OA
HETATM   31  H   UNK N   1      35.166  17.731  11.035  0.00  0.00     0.167 HD
ENDBRANCH  28  30
ENDBRANCH  20  28
ENDBRANCH   5  15
BRANCH   1  32
HETATM   32  N   UNK N   1      36.834  13.302  13.980  0.00  0.00    -0.390 N 
HETATM   33  C   UNK N   1      36.830  14.443  14.860  0.00  0.00     0.149 C 
HETATM   34  C   UNK N   1      37.376  12.060  14.477  0.00  0.00     0.149 C 
ENDBRANCH   1  32
BRANCH   9  35
HETATM   35  N   UNK N   1      38.731  12.774   4.630  0.00  0.00    -0.389 N 
HETATM   36  C   UNK N   1      38.620  13.329   3.304  0.00  0.00     0.149 C 
HETATM   37  C   UNK N   1      39.758  11.792   4.875  0.00  0.00     0.149 C 
ENDBRANCH   9  35
TORSDOF 6
ENDMDL
MODEL 3
REMARK VINA RESULT:      -7.4      2.952      7.725
REMARK  6 active torsions:
REMARK  status: ('A' for Active; 'I' for Inactive)
REMARK    1  A    between atoms: N_2  and  C_4 
REMARK    2  A    between atoms: C_8  and  C_21 
REMARK    3  A    between atoms: C_12  and  N_18 
REMARK    4  A    between atoms: C_24  and  N_30 
REMARK    5  A    between atoms: C_26  and  C_27 
REMARK    6  A    between atoms: C_27  and  O_28 
ROOT
HETATM    1  C   UNK N   1      39.756  12.911   7.512  0.00  0.00     0.028 C 
HETATM    2  C   UNK N   1      39.671  12.247   8.679  0.00  0.00     0.007 C 
HETATM    3  C   UNK N   1      38.384  12.114   9.449  0.00  0.00     0.072 C 
HETATM    4  C   UNK N   1      37.309  13.096   9.028  0.00  0.00    -0.009 C 
HETATM    5  C   UNK N   1      36.264  13.482   9.845  0.00  0.00    -0.003 C 
HETATM    6  C   UNK N   1      35.316  14.509   9.258  0.00  0.00     0.010 C 
HETATM    7  C   UNK N   1      34.409  15.224  10.044  0.00  0.00     0.017 C 
HETATM    8  C   UNK N   1      33.445  16.047   9.472  0.00  0.00     0.030 C 
HETATM    9  C   UNK N   1      33.384  16.205   8.084  0.00  0.00     0.032 C 
HETATM   10  C   UNK N   1      34.382  15.614   7.293  0.00  0.00     0.067 C 
HETATM   11  C   UNK N   1      35.359  14.795   7.874  0.00  0.00     0.089 C 
HETATM   12  O   UNK N   1      36.354  14.311   7.103  0.00  0.00    -0.309 OA
HETATM   13  C   UNK N   1      37.401  13.645   7.641  0.00  0.00     0.085 C 
HETATM   14  C   UNK N   1      38.539  13.544   6.941  0.00  0.00     0.066 C 
ENDROOT
BRANCH   5  15
HETATM   15  C   UNK N   1      36.115  12.937  11.290  0.00  0.00    -0.007 A 
HETATM   16  C   UNK N   1      36.813  13.617  12.309  0.00  0.00     0.015 A 
HETATM   17  C   UNK N   1      36.724  13.274  13.655  0.00  0.00     0.031 A 
HETATM   18  C   UNK N   1      35.882  12.243  14.063  0.00  0.00     0.047 A 
HETATM   19  C   UNK N   1      35.188  11.537  13.088  0.00  0.00     0.049 A 
HETATM   20  C   UNK N   1      35.299  11.816  11.720  0.00  0.00     0.051 A 
BRANCH  18  21
HETATM   21  N   UNK N   1      35.738  11.898  15.451  0.00  0.00    -0.245 N 
HETATM   22  C   UNK N   1      34.923  12.489  16.348  0.00  0.00     0.255 A 
HETATM   23  O   UNK N   1      34.190  13.434  16.105  0.00  0.00    -0.268 OA
HETATM   24  C   UNK N   1      35.056  11.838  17.660  0.00  0.00     0.080 A 
HETATM   25  C   UNK N   1      35.964  10.861  17.507  0.00  0.00     0.080 A 
HETATM   26  C   UNK N   1      36.391  10.912  16.101  0.00  0.00     0.255 A 
HETATM   27  O   UNK N   1      37.208  10.163  15.592  0.00  0.00    -0.268 OA
ENDBRANCH  18  21
BRANCH  20  28
HETATM   28  C   UNK N   1      34.615  10.817  10.863  0.00  0.00     0.177 C 
HETATM   29  O   UNK N   1      35.256  10.040  10.176  0.00  0.00    -0.646 OA
BRANCH  28  30
HETATM   30  O   UNK N   1      33.275  10.680  10.937  0.00  0.00    -0.773 OA
HETATM   31  H   UNK N   1      32.781  11.113  11.606  0.00  0.00     0.167 HD
ENDBRANCH  28  30
ENDBRANCH  20  28
ENDBRANCH   5  15
BRANCH   1  32
HETATM   32  N   UNK N   1      41.021  13.061   6.858  0.00  0.00    -0.390 N 
HETATM   33  C   UNK N   1      41.235  14.123   5.909  0.00  0.00     0.149 C 
HETATM   34  C   UNK N   1      42.144  12.225   7.209  0.00  0.00     0.149 C 
ENDBRANCH   1  32
BRANCH   9  35
HETATM   35  N   UNK N   1      32.306  16.927   7.490  0.00  0.00    -0.389 N 
HETATM   36  C   UNK N   1      31.306  17.566   8.309  0.00  0.00     0.149 C 
HETATM   37  C   UNK N   1      32.275  17.164   6.068  0.00  0.00     0.149 C 
ENDBRANCH   9  35
TORSDOF 6
ENDMDL
MODEL 4
REMARK VINA RESULT:      -7.3      2.416      8.216
REMARK  6 active torsions:
REMARK  status: ('A' for Active; 'I' for Inactive)
REMARK    1  A    between atoms: N_2  and  C_4 
REMARK    2  A    between atoms: C_8  and  C_21 
REMARK    3  A    between atoms: C_12  and  N_18 
REMARK    4  A    between atoms: C_24  and  N_30 
REMARK    5  A    between atoms: C_26  and  C_27 
REMARK    6  A    between atoms: C_27  and  O_28 
ROOT
HETATM    1  C   UNK N   1      32.303  16.537   7.404  0.00  0.00     0.028 C 
HETATM    2  C   UNK N   1      32.363  16.129   8.684  0.00  0.00     0.007 C 
HETATM    3  C   UNK N   1      33.602  15.524   9.289  0.00  0.00     0.072 C 
HETATM    4  C   UNK N   1      34.619  15.052   8.268  0.00  0.00    -0.009 C 
HETATM    5  C   UNK N   1      35.572  14.086   8.530  0.00  0.00    -0.003 C 
HETATM    6  C   UNK N   1      36.470  13.718   7.365  0.00  0.00     0.010 C 
HETATM    7  C   UNK N   1      37.260  12.566   7.366  0.00  0.00     0.017 C 
HETATM    8  C   UNK N   1      38.190  12.323   6.361  0.00  0.00     0.030 C 
HETATM    9  C   UNK N   1      38.331  13.221   5.297  0.00  0.00     0.032 C 
HETATM   10  C   UNK N   1      37.440  14.302   5.203  0.00  0.00     0.067 C 
HETATM   11  C   UNK N   1      36.497  14.536   6.212  0.00  0.00     0.089 C 
HETATM   12  O   UNK N   1      35.598  15.530   6.054  0.00  0.00    -0.309 OA
HETATM   13  C   UNK N   1      34.576  15.699   6.922  0.00  0.00     0.085 C 
HETATM   14  C   UNK N   1      33.500  16.397   6.535  0.00  0.00     0.066 C 
ENDROOT
BRANCH   5  15
HETATM   15  C   UNK N   1      35.667  13.388   9.912  0.00  0.00    -0.007 A 
HETATM   16  C   UNK N   1      36.626  13.886  10.819  0.00  0.00     0.015 A 
HETATM   17  C   UNK N   1      36.780  13.395  12.112  0.00  0.00     0.031 A 
HETATM   18  C   UNK N   1      35.939  12.393  12.588  0.00  0.00     0.047 A 
HETATM   19  C   UNK N   1      34.990  11.864  11.721  0.00  0.00     0.049 A 
HETATM   20  C   UNK N   1      34.847  12.292  10.395  0.00  0.00     0.051 A 
BRANCH  18  21
HETATM   21  N   UNK N   1      36.048  11.899  13.934  0.00  0.00    -0.245 N 
HETATM   22  C   UNK N   1      36.825  10.883  14.358  0.00  0.00     0.255 A 
HETATM   23  O   UNK N   1      37.547  10.210  13.639  0.00  0.00    -0.268 OA
HETATM   24  C   UNK N   1      36.665  10.694  15.808  0.00  0.00     0.080 A 
HETATM   25  C   UNK N   1      35.780  11.619  16.215  0.00  0.00     0.080 A 
HETATM   26  C   UNK N   1      35.395  12.375  15.015  0.00  0.00     0.255 A 
HETATM   27  O   UNK N   1      34.608  13.307  14.999  0.00  0.00    -0.268 OA
ENDBRANCH  18  21
BRANCH  20  28
HETATM   28  C   UNK N   1      33.903  11.459   9.612  0.00  0.00     0.177 C 
HETATM   29  O   UNK N   1      34.205  10.328   9.267  0.00  0.00    -0.646 OA
BRANCH  28  30
HETATM   30  O   UNK N   1      32.650  11.903   9.383  0.00  0.00    -0.773 OA
HETATM   31  H   UNK N   1      31.951  11.704   9.975  0.00  0.00     0.167 HD
ENDBRANCH  28  30
ENDBRANCH  20  28
ENDBRANCH   5  15
BRANCH   1  32
HETATM   32  N   UNK N   1      31.076  17.045   6.866  0.00  0.00    -0.390 N 
HETATM   33  C   UNK N   1      30.050  17.557   7.738  0.00  0.00     0.149 C 
HETATM   34  C   UNK N   1      30.878  17.158   5.441  0.00  0.00     0.149 C 
ENDBRANCH   1  32
BRANCH   9  35
HETATM   35  N   UNK N   1      39.384  13.051   4.349  0.00  0.00    -0.389 N 
HETATM   36  C   UNK N   1      39.167  13.318   2.949  0.00  0.00     0.149 C 
HETATM   37  C   UNK N   1      40.726  12.757   4.787  0.00  0.00     0.149 C 
ENDBRANCH   9  35
TORSDOF 6
ENDMDL
MODEL 5
REMARK VINA RESULT:      -7.3      2.633      5.899
REMARK  6 active torsions:
REMARK  status: ('A' for Active; 'I' for Inactive)
REMARK    1  A    between atoms: N_2  and  C_4 
REMARK    2  A    between atoms: C_8  and  C_21 
REMARK    3  A    between atoms: C_12  and  N_18 
REMARK    4  A    between atoms: C_24  and  N_30 
REMARK    5  A    between atoms: C_26  and  C_27 
REMARK    6  A    between atoms: C_27  and  O_28 
ROOT
HETATM    1  C   UNK N   1      36.097  12.006  13.430  0.00  0.00     0.028 C 
HETATM    2  C   UNK N   1      35.082  12.602  12.780  0.00  0.00     0.007 C 
HETATM    3  C   UNK N   1      35.069  12.791  11.286  0.00  0.00     0.072 C 
HETATM    4  C   UNK N   1      36.428  12.627  10.632  0.00  0.00    -0.009 C 
HETATM    5  C   UNK N   1      36.761  13.184   9.413  0.00  0.00    -0.003 C 
HETATM    6  C   UNK N   1      38.184  12.943   8.949  0.00  0.00     0.010 C 
HETATM    7  C   UNK N   1      38.767  13.679   7.914  0.00  0.00     0.017 C 
HETATM    8  C   UNK N   1      40.015  13.344   7.399  0.00  0.00     0.030 C 
HETATM    9  C   UNK N   1      40.736  12.272   7.935  0.00  0.00     0.032 C 
HETATM   10  C   UNK N   1      40.231  11.620   9.072  0.00  0.00     0.067 C 
HETATM   11  C   UNK N   1      38.979  11.968   9.595  0.00  0.00     0.089 C 
HETATM   12  O   UNK N   1      38.558  11.386  10.736  0.00  0.00    -0.309 OA
HETATM   13  C   UNK N   1      37.432  11.796  11.362  0.00  0.00     0.085 C 
HETATM   14  C   UNK N   1      37.263  11.503  12.659  0.00  0.00     0.066 C 
ENDROOT
BRANCH   5  15
HETATM   15  C   UNK N   1      35.754  14.048   8.609  0.00  0.00    -0.007 A 
HETATM   16  C   UNK N   1      35.322  13.541   7.366  0.00  0.00     0.015 A 
HETATM   17  C   UNK N   1      34.377  14.181   6.568  0.00  0.00     0.031 A 
HETATM   18  C   UNK N   1      33.775  15.358   7.000  0.00  0.00     0.047 A 
HETATM   19  C   UNK N   1      34.185  15.900   8.213  0.00  0.00     0.049 A 
HETATM   20  C   UNK N   1      35.174  15.315   9.013  0.00  0.00     0.051 A 
BRANCH  18  21
HETATM   21  N   UNK N   1      32.765  16.015   6.215  0.00  0.00    -0.245 N 
HETATM   22  C   UNK N   1      32.887  17.190   5.565  0.00  0.00     0.255 A 
HETATM   23  O   UNK N   1      33.890  17.886   5.567  0.00  0.00    -0.268 OA
HETATM   24  C   UNK N   1      31.635  17.515   4.866  0.00  0.00     0.080 A 
HETATM   25  C   UNK N   1      30.785  16.508   5.125  0.00  0.00     0.080 A 
HETATM   26  C   UNK N   1      31.514  15.565   5.985  0.00  0.00     0.255 A 
HETATM   27  O   UNK N   1      31.059  14.519   6.417  0.00  0.00    -0.268 OA
ENDBRANCH  18  21
BRANCH  20  28
HETATM   28  C   UNK N   1      35.574  16.165  10.160  0.00  0.00     0.177 C 
HETATM   29  O   UNK N   1      36.704  16.108  10.617  0.00  0.00    -0.646 OA
BRANCH  28  30
HETATM   30  O   UNK N   1      34.723  17.104  10.626  0.00  0.00    -0.773 OA
HETATM   31  H   UNK N   1      34.540  17.176  11.542  0.00  0.00     0.167 HD
ENDBRANCH  28  30
ENDBRANCH  20  28
ENDBRANCH   5  15
BRANCH   1  32
HETATM   32  N   UNK N   1      36.083  11.914  14.859  0.00  0.00    -0.390 N 
HETATM   33  C   UNK N   1      36.761  10.835  15.530  0.00  0.00     0.149 C 
HETATM   34  C   UNK N   1      35.485  12.949  15.666  0.00  0.00     0.149 C 
ENDBRANCH   1  32
BRANCH   9  35
HETATM   35  N   UNK N   1      41.943  11.835   7.312  0.00  0.00    -0.389 N 
HETATM   36  C   UNK N   1      42.222  12.162   5.936  0.00  0.00     0.149 C 
HETATM   37  C   UNK N   1      42.977  11.190   8.083  0.00  0.00     0.149 C 
ENDBRANCH   9  35
TORSDOF 6
ENDMDL
MODEL 6
REMARK VINA RESULT:      -7.2      2.528      7.311
REMARK  6 active torsions:
REMARK  status: ('A' for Active; 'I' for Inactive)
REMARK    1  A    between atoms: N_2  and  C_4 
REMARK    2  A    between atoms: C_8  and  C_21 
REMARK    3  A    between atoms: C_12  and  N_18 
REMARK    4  A    between atoms: C_24  and  N_30 
REMARK    5  A    between atoms: C_26  and  C_27 
REMARK    6  A    between atoms: C_27  and  O_28 
ROOT
HETATM    1  C   UNK N   1      38.816  12.891   6.631  0.00  0.00     0.028 C 
HETATM    2  C   UNK N   1      38.911  12.484   7.910  0.00  0.00     0.007 C 
HETATM    3  C   UNK N   1      37.710  12.312   8.801  0.00  0.00     0.072 C 
HETATM    4  C   UNK N   1      36.458  12.999   8.289  0.00  0.00    -0.009 C 
HETATM    5  C   UNK N   1      35.407  13.377   9.102  0.00  0.00    -0.003 C 
HETATM    6  C   UNK N   1      34.264  14.091   8.407  0.00  0.00     0.010 C 
HETATM    7  C   UNK N   1      33.289  14.802   9.112  0.00  0.00     0.017 C 
HETATM    8  C   UNK N   1      32.167  15.321   8.474  0.00  0.00     0.030 C 
HETATM    9  C   UNK N   1      32.006  15.169   7.093  0.00  0.00     0.032 C 
HETATM   10  C   UNK N   1      33.049  14.591   6.351  0.00  0.00     0.067 C 
HETATM   11  C   UNK N   1      34.183  14.081   6.996  0.00  0.00     0.089 C 
HETATM   12  O   UNK N   1      35.206  13.610   6.252  0.00  0.00    -0.309 OA
HETATM   13  C   UNK N   1      36.379  13.249   6.818  0.00  0.00     0.085 C 
HETATM   14  C   UNK N   1      37.479  13.185   6.055  0.00  0.00     0.066 C 
ENDROOT
BRANCH   5  15
HETATM   15  C   UNK N   1      35.432  13.133  10.634  0.00  0.00    -0.007 A 
HETATM   16  C   UNK N   1      35.100  11.839  11.085  0.00  0.00     0.015 A 
HETATM   17  C   UNK N   1      35.139  11.464  12.424  0.00  0.00     0.031 A 
HETATM   18  C   UNK N   1      35.562  12.367  13.395  0.00  0.00     0.047 A 
HETATM   19  C   UNK N   1      35.884  13.659  12.994  0.00  0.00     0.049 A 
HETATM   20  C   UNK N   1      35.800  14.088  11.663  0.00  0.00     0.051 A 
BRANCH  18  21
HETATM   21  N   UNK N   1      35.653  11.992  14.780  0.00  0.00    -0.245 N 
HETATM   22  C   UNK N   1      34.832  12.381  15.775  0.00  0.00     0.255 A 
HETATM   23  O   UNK N   1      33.884  13.139  15.641  0.00  0.00    -0.268 OA
HETATM   24  C   UNK N   1      35.251  11.770  17.046  0.00  0.00     0.080 A 
HETATM   25  C   UNK N   1      36.332  11.023  16.768  0.00  0.00     0.080 A 
HETATM   26  C   UNK N   1      36.577  11.175  15.327  0.00  0.00     0.255 A 
HETATM   27  O   UNK N   1      37.479  10.631  14.710  0.00  0.00    -0.268 OA
ENDBRANCH  18  21
BRANCH  20  28
HETATM   28  C   UNK N   1      36.011  15.547  11.506  0.00  0.00     0.177 C 
HETATM   29  O   UNK N   1      35.259  16.348  12.036  0.00  0.00    -0.646 OA
BRANCH  28  30
HETATM   30  O   UNK N   1      37.116  15.998  10.876  0.00  0.00    -0.773 OA
HETATM   31  H   UNK N   1      37.117  16.828  10.439  0.00  0.00     0.167 HD
ENDBRANCH  28  30
ENDBRANCH  20  28
ENDBRANCH   5  15
BRANCH   1  32
HETATM   32  N   UNK N   1      39.999  13.099   5.852  0.00  0.00    -0.390 N 
HETATM   33  C   UNK N   1      40.902  14.178   6.163  0.00  0.00     0.149 C 
HETATM   34  C   UNK N   1      40.376  12.176   4.809  0.00  0.00     0.149 C 
ENDBRANCH   1  32
BRANCH   9  35
HETATM   35  N   UNK N   1      30.788  15.567   6.464  0.00  0.00    -0.389 N 
HETATM   36  C   UNK N   1      30.314  16.925   6.569  0.00  0.00     0.149 C 
HETATM   37  C   UNK N   1      30.086  14.665   5.586  0.00  0.00     0.149 C 
ENDBRANCH   9  35
TORSDOF 6
ENDMDL
MODEL 7
REMARK VINA RESULT:      -7.1      2.111      3.381
REMARK  6 active torsions:
REMARK  status: ('A' for Active; 'I' for Inactive)
REMARK    1  A    between atoms: N_2  and  C_4 
REMARK    2  A    between atoms: C_8  and  C_21 
REMARK    3  A    between atoms: C_12  and  N_18 
REMARK    4  A    between atoms: C_24  and  N_30 
REMARK    5  A    between atoms: C_26  and  C_27 
REMARK    6  A    between atoms: C_27  and  O_28 
ROOT
HETATM    1  C   UNK N   1      39.395  12.502   7.885  0.00  0.00     0.028 C 
HETATM    2  C   UNK N   1      38.440  13.204   7.249  0.00  0.00     0.007 C 
HETATM    3  C   UNK N   1      37.334  13.920   7.976  0.00  0.00     0.072 C 
HETATM    4  C   UNK N   1      37.149  13.472   9.413  0.00  0.00    -0.009 C 
HETATM    5  C   UNK N   1      35.967  13.619  10.113  0.00  0.00    -0.003 C 
HETATM    6  C   UNK N   1      35.967  13.066  11.524  0.00  0.00     0.010 C 
HETATM    7  C   UNK N   1      34.788  12.855  12.244  0.00  0.00     0.017 C 
HETATM    8  C   UNK N   1      34.813  12.494  13.587  0.00  0.00     0.030 C 
HETATM    9  C   UNK N   1      36.033  12.298  14.244  0.00  0.00     0.032 C 
HETATM   10  C   UNK N   1      37.220  12.358  13.496  0.00  0.00     0.067 C 
HETATM   11  C   UNK N   1      37.189  12.710  12.140  0.00  0.00     0.089 C 
HETATM   12  O   UNK N   1      38.333  12.676  11.426  0.00  0.00    -0.309 OA
HETATM   13  C   UNK N   1      38.333  12.858  10.087  0.00  0.00     0.085 C 
HETATM   14  C   UNK N   1      39.376  12.421   9.369  0.00  0.00     0.066 C 
ENDROOT
BRANCH   5  15
HETATM   15  C   UNK N   1      34.709  14.257   9.465  0.00  0.00    -0.007 A 
HETATM   16  C   UNK N   1      34.602  15.662   9.518  0.00  0.00     0.015 A 
HETATM   17  C   UNK N   1      33.559  16.370   8.928  0.00  0.00     0.031 A 
HETATM   18  C   UNK N   1      32.577  15.701   8.203  0.00  0.00     0.047 A 
HETATM   19  C   UNK N   1      32.638  14.313   8.140  0.00  0.00     0.049 A 
HETATM   20  C   UNK N   1      33.639  13.565   8.771  0.00  0.00     0.051 A 
BRANCH  18  21
HETATM   21  N   UNK N   1      31.514  16.412   7.547  0.00  0.00    -0.245 N 
HETATM   22  C   UNK N   1      31.425  16.693   6.231  0.00  0.00     0.255 A 
HETATM   23  O   UNK N   1      32.264  16.392   5.397  0.00  0.00    -0.268 OA
HETATM   24  C   UNK N   1      30.180  17.424   5.952  0.00  0.00     0.080 A 
HETATM   25  C   UNK N   1      29.551  17.564   7.130  0.00  0.00     0.080 A 
HETATM   26  C   UNK N   1      30.411  16.919   8.134  0.00  0.00     0.255 A 
HETATM   27  O   UNK N   1      30.156  16.842   9.325  0.00  0.00    -0.268 OA
ENDBRANCH  18  21
BRANCH  20  28
HETATM   28  C   UNK N   1      33.393  12.103   8.722  0.00  0.00     0.177 C 
HETATM   29  O   UNK N   1      34.160  11.359   8.134  0.00  0.00    -0.646 OA
BRANCH  28  30
HETATM   30  O   UNK N   1      32.379  11.572   9.438  0.00  0.00    -0.773 OA
HETATM   31  H   UNK N   1      31.519  11.500   9.075  0.00  0.00     0.167 HD
ENDBRANCH  28  30
ENDBRANCH  20  28
ENDBRANCH   5  15
BRANCH   1  32
HETATM   32  N   UNK N   1      40.384  11.787   7.136  0.00  0.00    -0.390 N 
HETATM   33  C   UNK N   1      40.020  11.063   5.945  0.00  0.00     0.149 C 
HETATM   34  C   UNK N   1      41.782  11.861   7.488  0.00  0.00     0.149 C 
ENDBRANCH   1  32
BRANCH   9  35
HETATM   35  N   UNK N   1      36.062  12.076  15.653  0.00  0.00    -0.389 N 
HETATM   36  C   UNK N   1      35.575  13.078  16.568  0.00  0.00     0.149 C 
HETATM   37  C   UNK N   1      36.434  10.789  16.186  0.00  0.00     0.149 C 
ENDBRANCH   9  35
TORSDOF 6
ENDMDL
MODEL 8
REMARK VINA RESULT:      -7.1      1.698      2.236
REMARK  6 active torsions:
REMARK  status: ('A' for Active; 'I' for Inactive)
REMARK    1  A    between atoms: N_2  and  C_4 
REMARK    2  A    between atoms: C_8  and  C_21 
REMARK    3  A    between atoms: C_12  and  N_18 
REMARK    4  A    between atoms: C_24  and  N_30 
REMARK    5  A    between atoms: C_26  and  C_27 
REMARK    6  A    between atoms: C_27  and  O_28 
ROOT
HETATM    1  C   UNK N   1      39.286  12.005   7.676  0.00  0.00     0.028 C 
HETATM    2  C   UNK N   1      38.440  12.860   7.076  0.00  0.00     0.007 C 
HETATM    3  C   UNK N   1      37.464  13.714   7.842  0.00  0.00     0.072 C 
HETATM    4  C   UNK N   1      37.233  13.256   9.269  0.00  0.00    -0.009 C 
HETATM    5  C   UNK N   1      36.096  13.559   9.994  0.00  0.00    -0.003 C 
HETATM    6  C   UNK N   1      36.032  12.972  11.390  0.00  0.00     0.010 C 
HETATM    7  C   UNK N   1      34.845  12.920  12.124  0.00  0.00     0.017 C 
HETATM    8  C   UNK N   1      34.833  12.519  13.457  0.00  0.00     0.030 C 
HETATM    9  C   UNK N   1      36.018  12.124  14.086  0.00  0.00     0.032 C 
HETATM   10  C   UNK N   1      37.190  12.026  13.318  0.00  0.00     0.067 C 
HETATM   11  C   UNK N   1      37.194  12.418  11.974  0.00  0.00     0.089 C 
HETATM   12  O   UNK N   1      38.311  12.233  11.239  0.00  0.00    -0.309 OA
HETATM   13  C   UNK N   1      38.320  12.452   9.905  0.00  0.00     0.085 C 
HETATM   14  C   UNK N   1      39.276  11.884   9.157  0.00  0.00     0.066 C 
ENDROOT
BRANCH   5  15
HETATM   15  C   UNK N   1      34.941  14.397   9.386  0.00  0.00    -0.007 A 
HETATM   16  C   UNK N   1      33.957  13.701   8.653  0.00  0.00     0.015 A 
HETATM   17  C   UNK N   1      32.836  14.317   8.105  0.00  0.00     0.031 A 
HETATM   18  C   UNK N   1      32.615  15.677   8.300  0.00  0.00     0.047 A 
HETATM   19  C   UNK N   1      33.569  16.403   9.004  0.00  0.00     0.049 A 
HETATM   20  C   UNK N   1      34.737  15.828   9.520  0.00  0.00     0.051 A 
BRANCH  18  21
HETATM   21  N   UNK N   1      31.443  16.328   7.782  0.00  0.00    -0.245 N 
HETATM   22  C   UNK N   1      30.408  16.812   8.497  0.00  0.00     0.255 A 
HETATM   23  O   UNK N   1      30.309  16.748   9.712  0.00  0.00    -0.268 OA
HETATM   24  C   UNK N   1      29.411  17.417   7.600  0.00  0.00     0.080 A 
HETATM   25  C   UNK N   1      29.887  17.271   6.352  0.00  0.00     0.080 A 
HETATM   26  C   UNK N   1      31.176  16.576   6.483  0.00  0.00     0.255 A 
HETATM   27  O   UNK N   1      31.906  16.278   5.551  0.00  0.00    -0.268 OA
ENDBRANCH  18  21
BRANCH  20  28
HETATM   28  C   UNK N   1      35.688  16.827  10.064  0.00  0.00     0.177 C 
HETATM   29  O   UNK N   1      35.553  18.015   9.822  0.00  0.00    -0.646 OA
BRANCH  28  30
HETATM   30  O   UNK N   1      36.640  16.438  10.938  0.00  0.00    -0.773 OA
HETATM   31  H   UNK N   1      37.122  15.645  10.804  0.00  0.00     0.167 HD
ENDBRANCH  28  30
ENDBRANCH  20  28
ENDBRANCH   5  15
BRANCH   1  32
HETATM   32  N   UNK N   1      40.146  11.171   6.891  0.00  0.00    -0.390 N 
HETATM   33  C   UNK N   1      39.897  10.980   5.485  0.00  0.00     0.149 C 
HETATM   34  C   UNK N   1      41.340  10.591   7.456  0.00  0.00     0.149 C 
ENDBRANCH   1  32
BRANCH   9  35
HETATM   35  N   UNK N   1      36.032  11.858  15.488  0.00  0.00    -0.389 N 
HETATM   36  C   UNK N   1      36.578  10.626  16.000  0.00  0.00     0.149 C 
HETATM   37  C   UNK N   1      35.644  12.877  16.432  0.00  0.00     0.149 C 
ENDBRANCH   9  35
TORSDOF 6
ENDMDL
MODEL 9
REMARK VINA RESULT:      -6.9      2.392      6.054
REMARK  6 active torsions:
REMARK  status: ('A' for Active; 'I' for Inactive)
REMARK    1  A    between atoms: N_2  and  C_4 
REMARK    2  A    between atoms: C_8  and  C_21 
REMARK    3  A    between atoms: C_12  and  N_18 
REMARK    4  A    between atoms: C_24  and  N_30 
REMARK    5  A    between atoms: C_26  and  C_27 
REMARK    6  A    between atoms: C_27  and  O_28 
ROOT
HETATM    1  C   UNK N   1      36.215  13.306  13.845  0.00  0.00     0.028 C 
HETATM    2  C   UNK N   1      35.077  13.693  13.240  0.00  0.00     0.007 C 
HETATM    3  C   UNK N   1      34.846  13.532  11.761  0.00  0.00     0.072 C 
HETATM    4  C   UNK N   1      36.110  13.280  10.962  0.00  0.00    -0.009 C 
HETATM    5  C   UNK N   1      36.230  13.555   9.614  0.00  0.00    -0.003 C 
HETATM    6  C   UNK N   1      37.589  13.274   9.005  0.00  0.00     0.010 C 
HETATM    7  C   UNK N   1      37.967  13.777   7.757  0.00  0.00     0.017 C 
HETATM    8  C   UNK N   1      39.155  13.386   7.147  0.00  0.00     0.030 C 
HETATM    9  C   UNK N   1      40.021  12.498   7.792  0.00  0.00     0.032 C 
HETATM   10  C   UNK N   1      39.728  12.104   9.108  0.00  0.00     0.067 C 
HETATM   11  C   UNK N   1      38.537  12.510   9.723  0.00  0.00     0.089 C 
HETATM   12  O   UNK N   1      38.323  12.188  11.016  0.00  0.00    -0.309 OA
HETATM   13  C   UNK N   1      37.265  12.682  11.698  0.00  0.00     0.085 C 
HETATM   14  C   UNK N   1      37.299  12.689  13.038  0.00  0.00     0.066 C 
ENDROOT
BRANCH   5  15
HETATM   15  C   UNK N   1      35.060  14.167   8.800  0.00  0.00    -0.007 A 
HETATM   16  C   UNK N   1      35.114  15.552   8.537  0.00  0.00     0.015 A 
HETATM   17  C   UNK N   1      34.165  16.221   7.770  0.00  0.00     0.031 A 
HETATM   18  C   UNK N   1      33.118  15.520   7.179  0.00  0.00     0.047 A 
HETATM   19  C   UNK N   1      33.019  14.155   7.426  0.00  0.00     0.049 A 
HETATM   20  C   UNK N   1      33.922  13.460   8.240  0.00  0.00     0.051 A 
BRANCH  18  21
HETATM   21  N   UNK N   1      32.149  16.179   6.346  0.00  0.00    -0.245 N 
HETATM   22  C   UNK N   1      30.970  16.700   6.740  0.00  0.00     0.255 A 
HETATM   23  O   UNK N   1      30.540  16.666   7.882  0.00  0.00    -0.268 OA
HETATM   24  C   UNK N   1      30.273  17.300   5.592  0.00  0.00     0.080 A 
HETATM   25  C   UNK N   1      31.070  17.116   4.527  0.00  0.00     0.080 A 
HETATM   26  C   UNK N   1      32.255  16.401   5.020  0.00  0.00     0.255 A 
HETATM   27  O   UNK N   1      33.206  16.067   4.331  0.00  0.00    -0.268 OA
ENDBRANCH  18  21
BRANCH  20  28
HETATM   28  C   UNK N   1      33.510  12.061   8.506  0.00  0.00     0.177 C 
HETATM   29  O   UNK N   1      34.163  11.124   8.078  0.00  0.00    -0.646 OA
BRANCH  28  30
HETATM   30  O   UNK N   1      32.474  11.816   9.335  0.00  0.00    -0.773 OA
HETATM   31  H   UNK N   1      31.870  11.122   9.160  0.00  0.00     0.167 HD
ENDBRANCH  28  30
ENDBRANCH  20  28
ENDBRANCH   5  15
BRANCH   1  32
HETATM   32  N   UNK N   1      36.404  13.544  15.244  0.00  0.00    -0.390 N 
HETATM   33  C   UNK N   1      37.150  14.690  15.698  0.00  0.00     0.149 C 
HETATM   34  C   UNK N   1      35.765  12.711  16.234  0.00  0.00     0.149 C 
ENDBRANCH   1  32
BRANCH   9  35
HETATM   35  N   UNK N   1      41.161  11.981   7.106  0.00  0.00    -0.389 N 
HETATM   36  C   UNK N   1      42.309  11.506   7.837  0.00  0.00     0.149 C 
HETATM   37  C   UNK N   1      41.130  11.781   5.678  0.00  0.00     0.149 C 
ENDBRANCH   9  35
TORSDOF 6
ENDMDL
