REMARK  6 active torsions:
REMARK  status: ('A' for Active; 'I' for Inactive)
REMARK    1  A    between atoms: C_6  and  C_3 
REMARK    2  A    between atoms: S_22  and  C_3 
REMARK    3  A    between atoms: C_8  and  C_5 
REMARK    4  A    between atoms: C_10  and  O_19 
REMARK    5  A    between atoms: C_11  and  O_20 
REMARK    6  A    between atoms: O_21  and  C_12 
ROOT
HETATM    1  C   UNK N   1       1.179  -0.604  -0.223  0.00  0.00     0.100 A 
HETATM    2  C   UNK N   1       5.501   0.409   0.413  0.00  0.00     0.183 A 
HETATM    3  C   UNK N   1       1.861   0.567   0.109  0.00  0.00     0.011 A 
HETATM    4  C   UNK N   1       3.185   0.227   0.170  0.00  0.00     0.074 A 
HETATM    5  C   UNK N   1       3.283  -1.090  -0.111  0.00  0.00     0.111 A 
HETATM    6  C   UNK N   1       4.529  -1.700  -0.125  0.00  0.00     0.170 A 
HETATM    7  N   UNK N   1       2.071  -1.626  -0.351  0.00  0.00    -0.360 N 
HETATM    8  N   UNK N   1       4.267   0.998   0.435  0.00  0.00    -0.350 N 
ATOM      9  HN  UNK N   1       4.164   1.991   0.644  1.00  0.00     0.166 HD
HETATM   10  N   UNK N   1       5.627  -0.930   0.137  0.00  0.00    -0.331 N 
ATOM     11  HN  UNK N   1       6.554  -1.356   0.128  1.00  0.00     0.168 HD
HETATM   12  H   UNK N   1       1.871  -2.564  -0.572  0.00  0.00     0.165 HD
ENDROOT
BRANCH   3  13
HETATM   13  C   UNK N   1       1.309   1.936   0.369  0.00  0.00     0.145 C 
HETATM   14  C   UNK N   1      -0.166   2.149   0.058  0.00  0.00     0.175 C 
HETATM   15  C   UNK N   1      -0.211   3.654   0.203  0.00  0.00     0.172 C 
HETATM   16  C   UNK N   1       1.080   4.077  -0.520  0.00  0.00     0.118 C 
HETATM   17  N   UNK N   1       1.995   2.933  -0.445  0.00  0.00    -0.403 N 
HETATM   18  H   UNK N   1       2.918   2.852  -0.872  0.00  0.00     0.154 HD
BRANCH  14  19
HETATM   19  O   UNK N   1      -1.013   1.499   0.959  0.00  0.00    -0.391 OA
HETATM   20  H   UNK N   1      -1.698   1.782   1.584  0.00  0.00     0.210 HD
ENDBRANCH  14  19
BRANCH  15  21
HETATM   21  O   UNK N   1      -1.360   4.224  -0.350  0.00  0.00    -0.391 OA
HETATM   22  H   UNK N   1      -1.417   5.113  -0.734  0.00  0.00     0.210 HD
ENDBRANCH  15  21
BRANCH  16  23
HETATM   23  C   UNK N   1       1.758   5.262   0.162  0.00  0.00     0.100 C 
BRANCH  23  24
HETATM   24  S   UNK N   1       0.931   6.842  -0.144  0.00  0.00    -0.171 SA
HETATM   25  C   UNK N   1       2.467   7.531  -0.822  0.00  0.00     0.089 C 
ENDBRANCH  23  24
ENDBRANCH  16  23
ENDBRANCH   3  13
BRANCH   6  26
HETATM   26  O   UNK N   1       4.661  -3.009  -0.393  0.00  0.00    -0.344 OA
HETATM   27  H   UNK N   1       3.916  -3.546  -0.580  0.00  0.00     0.219 HD
ENDBRANCH   6  26
TORSDOF 6
