REMARK  7 active torsions:
REMARK  status: ('A' for Active; 'I' for Inactive)
REMARK    1  A    between atoms: C_2  and  N_1 
REMARK    2  A    between atoms: C_2  and  C_3 
REMARK    3  A    between atoms: C_2  and  C_8 
REMARK    4  A    between atoms: C_3  and  C_4 
REMARK    5  A    between atoms: C_4  and  C_5 
REMARK    6  A    between atoms: C_5  and  C_6 
REMARK    7  A    between atoms: C_6  and  N_7 
REMARK       I    between atoms: C_8  and  N_9 
ROOT
HETATM    1  C   UNK N   1       5.099   1.859  -0.002  0.00  0.00     0.167 C 
ENDROOT
BRANCH   1   2
HETATM    2  N   UNK N   1       5.169   3.313   0.001  0.00  0.00    -0.418 N 
HETATM    3  H   UNK N   1       6.076   3.780   0.004  0.00  0.00     0.150 HD
HETATM    4  H   UNK N   1       4.312   3.865   0.001  0.00  0.00     0.150 HD
ENDBRANCH   1   2
BRANCH   1   5
HETATM    5  C   UNK N   1       3.750   1.150   0.001  0.00  0.00     0.034 C 
BRANCH   5   6
HETATM    6  C   UNK N   1       2.542   2.064  -0.001  0.00  0.00     0.004 C 
BRANCH   6   7
HETATM    7  C   UNK N   1       1.327   1.160   0.000  0.00  0.00     0.027 C 
BRANCH   7   8
HETATM    8  C   UNK N   1       0.044   1.957  -0.000  0.00  0.00     0.229 C 
BRANCH   8   9
HETATM    9  N   UNK N   1      -1.077   1.034   0.000  0.00  0.00    -0.079 N 
HETATM   10  H   UNK N   1      -2.032   1.393   0.000  0.00  0.00     0.274 HD
HETATM   11  H   UNK N   1      -0.909   0.028   0.000  0.00  0.00     0.274 HD
HETATM   12  H   UNK N   1      -1.864   0.386   0.000  0.00  0.00     0.274 HD
ENDBRANCH   8   9
ENDBRANCH   7   8
ENDBRANCH   6   7
ENDBRANCH   5   6
ENDBRANCH   1   5
BRANCH   1  13
HETATM   13  C   UNK N   1       6.372   1.068  -0.000  0.00  0.00     0.237 C 
HETATM   14  N   UNK N   1       7.565   1.696   0.000  0.00  0.00    -0.368 N 
HETATM   15  H   UNK N   1       8.398   1.171   0.000  0.00  0.00     0.159 HD
HETATM   16  H   UNK N   1       7.604   2.680   0.000  0.00  0.00     0.159 HD
HETATM   17  O   UNK N   1       6.331  -0.150   0.000  0.00  0.00    -0.271 OA
ENDBRANCH   1  13
TORSDOF 7
