MODEL 1
REMARK VINA RESULT:      -5.5      0.000      0.000
REMARK  6 active torsions:
REMARK  status: ('A' for Active; 'I' for Inactive)
REMARK    1  A    between atoms: C_4  and  C_2 
REMARK    2  A    between atoms: O_12  and  C_2 
REMARK    3  A    between atoms: C_5  and  O_7 
REMARK    4  A    between atoms: P_13  and  O_8 
REMARK    5  A    between atoms: P_13  and  O_9 
REMARK    6  A    between atoms: P_13  and  O_12 
ROOT
HETATM    1  C   UNK N   1      36.209  13.576  11.020  0.00  0.00     0.202 C 
HETATM    2  C   UNK N   1      34.737  13.391  11.326  0.00  0.00     0.173 C 
HETATM    3  C   UNK N   1      35.239  15.630  11.036  0.00  0.00     0.177 C 
HETATM    4  C   UNK N   1      34.206  14.597  10.623  0.00  0.00     0.180 C 
HETATM    5  O   UNK N   1      34.539  13.482  12.709  0.00  0.00    -0.391 OA
HETATM    6  O   UNK N   1      36.489  14.970  11.007  0.00  0.00    -0.378 OA
HETATM    7  H   UNK N   1      34.543  13.548  13.677  0.00  0.00     0.210 HD
ENDROOT
BRANCH   4   8
HETATM    8  O   UNK N   1      32.904  14.930  11.004  0.00  0.00    -0.390 OA
HETATM    9  H   UNK N   1      32.293  14.336  11.469  0.00  0.00     0.210 HD
ENDBRANCH   4   8
BRANCH   3  10
HETATM   10  C   UNK N   1      35.241  16.831  10.091  0.00  0.00     0.215 C 
BRANCH  10  11
HETATM   11  O   UNK N   1      34.629  16.492   8.879  0.00  0.00    -0.294 OA
BRANCH  11  12
HETATM   12  P   UNK N   1      34.238  17.971   8.041  0.00  0.00     0.390 P 
HETATM   13  O   UNK N   1      34.453  17.795   6.512  0.00  0.00    -0.632 OA
BRANCH  12  14
HETATM   14  O   UNK N   1      32.579  18.417   8.292  0.00  0.00    -0.307 OA
HETATM   15  H   UNK N   1      31.706  18.341   7.875  0.00  0.00     0.222 HD
ENDBRANCH  12  14
BRANCH  12  16
HETATM   16  O   UNK N   1      35.297  19.248   8.551  0.00  0.00    -0.307 OA
HETATM   17  H   UNK N   1      35.492  20.175   8.345  0.00  0.00     0.222 HD
ENDBRANCH  12  16
ENDBRANCH  11  12
ENDBRANCH  10  11
ENDBRANCH   3  10
TORSDOF 6
ENDMDL
MODEL 2
REMARK VINA RESULT:      -5.5      4.294      5.951
REMARK  6 active torsions:
REMARK  status: ('A' for Active; 'I' for Inactive)
REMARK    1  A    between atoms: C_4  and  C_2 
REMARK    2  A    between atoms: O_12  and  C_2 
REMARK    3  A    between atoms: C_5  and  O_7 
REMARK    4  A    between atoms: P_13  and  O_8 
REMARK    5  A    between atoms: P_13  and  O_9 
REMARK    6  A    between atoms: P_13  and  O_12 
ROOT
HETATM    1  C   UNK N   1      28.499  18.140   7.150  0.00  0.00     0.202 C 
HETATM    2  C   UNK N   1      28.358  18.762   8.523  0.00  0.00     0.173 C 
HETATM    3  C   UNK N   1      30.102  17.243   8.487  0.00  0.00     0.177 C 
HETATM    4  C   UNK N   1      29.778  18.645   8.973  0.00  0.00     0.180 C 
HETATM    5  O   UNK N   1      27.511  17.967   9.305  0.00  0.00    -0.391 OA
HETATM    6  O   UNK N   1      29.476  17.109   7.227  0.00  0.00    -0.378 OA
HETATM    7  H   UNK N   1      26.901  17.342   9.727  0.00  0.00     0.210 HD
ENDROOT
BRANCH   4   8
HETATM    8  O   UNK N   1      29.936  18.807  10.351  0.00  0.00    -0.390 OA
HETATM    9  H   UNK N   1      30.781  18.976  10.797  0.00  0.00     0.210 HD
ENDBRANCH   4   8
BRANCH   3  10
HETATM   10  C   UNK N   1      31.610  17.027   8.366  0.00  0.00     0.215 C 
BRANCH  10  11
HETATM   11  O   UNK N   1      32.277  18.256   8.378  0.00  0.00    -0.294 OA
BRANCH  11  12
HETATM   12  P   UNK N   1      33.942  17.971   7.944  0.00  0.00     0.390 P 
HETATM   13  O   UNK N   1      34.081  17.853   6.401  0.00  0.00    -0.632 OA
BRANCH  12  14
HETATM   14  O   UNK N   1      34.961  19.275   8.467  0.00  0.00    -0.307 OA
HETATM   15  H   UNK N   1      35.789  19.440   8.945  0.00  0.00     0.222 HD
ENDBRANCH  12  14
BRANCH  12  16
HETATM   16  O   UNK N   1      34.487  16.465   8.613  0.00  0.00    -0.307 OA
HETATM   17  H   UNK N   1      34.391  15.511   8.467  0.00  0.00     0.222 HD
ENDBRANCH  12  16
ENDBRANCH  11  12
ENDBRANCH  10  11
ENDBRANCH   3  10
TORSDOF 6
ENDMDL
MODEL 3
REMARK VINA RESULT:      -5.1      1.232      2.345
REMARK  6 active torsions:
REMARK  status: ('A' for Active; 'I' for Inactive)
REMARK    1  A    between atoms: C_4  and  C_2 
REMARK    2  A    between atoms: O_12  and  C_2 
REMARK    3  A    between atoms: C_5  and  O_7 
REMARK    4  A    between atoms: P_13  and  O_8 
REMARK    5  A    between atoms: P_13  and  O_9 
REMARK    6  A    between atoms: P_13  and  O_12 
ROOT
HETATM    1  C   UNK N   1      34.954  13.631  12.068  0.00  0.00     0.202 C 
HETATM    2  C   UNK N   1      36.188  14.501  12.197  0.00  0.00     0.173 C 
HETATM    3  C   UNK N   1      35.236  14.733  10.101  0.00  0.00     0.177 C 
HETATM    4  C   UNK N   1      35.811  15.573  11.228  0.00  0.00     0.180 C 
HETATM    5  O   UNK N   1      37.305  13.785  11.752  0.00  0.00    -0.391 OA
HETATM    6  O   UNK N   1      34.506  13.694  10.720  0.00  0.00    -0.378 OA
HETATM    7  H   UNK N   1      37.992  13.177  11.434  0.00  0.00     0.210 HD
ENDROOT
BRANCH   4   8
HETATM    8  O   UNK N   1      36.892  16.366  10.835  0.00  0.00    -0.390 OA
HETATM    9  H   UNK N   1      37.241  16.421   9.931  0.00  0.00     0.210 HD
ENDBRANCH   4   8
BRANCH   3  10
HETATM   10  C   UNK N   1      34.331  15.561   9.190  0.00  0.00     0.215 C 
BRANCH  10  11
HETATM   11  O   UNK N   1      35.098  16.246   8.241  0.00  0.00    -0.294 OA
BRANCH  11  12
HETATM   12  P   UNK N   1      34.317  17.771   7.917  0.00  0.00     0.390 P 
HETATM   13  O   UNK N   1      32.911  17.805   8.576  0.00  0.00    -0.632 OA
BRANCH  12  14
HETATM   14  O   UNK N   1      35.233  19.097   8.563  0.00  0.00    -0.307 OA
HETATM   15  H   UNK N   1      36.083  19.290   8.990  0.00  0.00     0.222 HD
ENDBRANCH  12  14
BRANCH  12  16
HETATM   16  O   UNK N   1      34.076  17.972   6.210  0.00  0.00    -0.307 OA
HETATM   17  H   UNK N   1      33.506  18.458   5.594  0.00  0.00     0.222 HD
ENDBRANCH  12  16
ENDBRANCH  11  12
ENDBRANCH  10  11
ENDBRANCH   3  10
TORSDOF 6
ENDMDL
MODEL 4
REMARK VINA RESULT:      -4.9      3.755      5.652
REMARK  6 active torsions:
REMARK  status: ('A' for Active; 'I' for Inactive)
REMARK    1  A    between atoms: C_4  and  C_2 
REMARK    2  A    between atoms: O_12  and  C_2 
REMARK    3  A    between atoms: C_5  and  O_7 
REMARK    4  A    between atoms: P_13  and  O_8 
REMARK    5  A    between atoms: P_13  and  O_9 
REMARK    6  A    between atoms: P_13  and  O_12 
ROOT
HETATM    1  C   UNK N   1      33.399  16.718   6.138  0.00  0.00     0.202 C 
HETATM    2  C   UNK N   1      34.342  17.016   7.286  0.00  0.00     0.173 C 
HETATM    3  C   UNK N   1      32.145  17.374   7.915  0.00  0.00     0.177 C 
HETATM    4  C   UNK N   1      33.418  16.719   8.421  0.00  0.00     0.180 C 
HETATM    5  O   UNK N   1      34.689  18.372   7.256  0.00  0.00    -0.391 OA
HETATM    6  O   UNK N   1      32.087  17.102   6.529  0.00  0.00    -0.378 OA
HETATM    7  H   UNK N   1      34.860  19.316   7.112  0.00  0.00     0.210 HD
ENDROOT
BRANCH   4   8
HETATM    8  O   UNK N   1      33.860  17.234   9.642  0.00  0.00    -0.390 OA
HETATM    9  H   UNK N   1      34.766  17.155   9.982  0.00  0.00     0.210 HD
ENDBRANCH   4   8
BRANCH   3  10
HETATM   10  C   UNK N   1      30.910  16.822   8.625  0.00  0.00     0.215 C 
BRANCH  10  11
HETATM   11  O   UNK N   1      29.747  17.261   7.983  0.00  0.00    -0.294 OA
BRANCH  11  12
HETATM   12  P   UNK N   1      28.705  17.978   9.184  0.00  0.00     0.390 P 
HETATM   13  O   UNK N   1      27.791  16.893   9.818  0.00  0.00    -0.632 OA
BRANCH  12  14
HETATM   14  O   UNK N   1      29.627  18.702  10.465  0.00  0.00    -0.307 OA
HETATM   15  H   UNK N   1      30.495  19.100  10.638  0.00  0.00     0.222 HD
ENDBRANCH  12  14
BRANCH  12  16
HETATM   16  O   UNK N   1      27.657  19.149   8.449  0.00  0.00    -0.307 OA
HETATM   17  H   UNK N   1      26.836  19.190   7.936  0.00  0.00     0.222 HD
ENDBRANCH  12  16
ENDBRANCH  11  12
ENDBRANCH  10  11
ENDBRANCH   3  10
TORSDOF 6
ENDMDL
MODEL 5
REMARK VINA RESULT:      -4.9     15.310     16.556
REMARK  6 active torsions:
REMARK  status: ('A' for Active; 'I' for Inactive)
REMARK    1  A    between atoms: C_4  and  C_2 
REMARK    2  A    between atoms: O_12  and  C_2 
REMARK    3  A    between atoms: C_5  and  O_7 
REMARK    4  A    between atoms: P_13  and  O_8 
REMARK    5  A    between atoms: P_13  and  O_9 
REMARK    6  A    between atoms: P_13  and  O_12 
ROOT
HETATM    1  C   UNK N   1      21.057  14.796   2.139  0.00  0.00     0.202 C 
HETATM    2  C   UNK N   1      20.000  15.134   1.108  0.00  0.00     0.173 C 
HETATM    3  C   UNK N   1      20.176  16.817   2.686  0.00  0.00     0.177 C 
HETATM    4  C   UNK N   1      20.080  16.624   1.183  0.00  0.00     0.180 C 
HETATM    5  O   UNK N   1      18.757  14.670   1.553  0.00  0.00    -0.391 OA
HETATM    6  O   UNK N   1      21.012  15.782   3.162  0.00  0.00    -0.378 OA
HETATM    7  H   UNK N   1      17.967  14.287   1.968  0.00  0.00     0.210 HD
ENDROOT
BRANCH   4   8
HETATM    8  O   UNK N   1      18.979  17.265   0.609  0.00  0.00    -0.390 OA
HETATM    9  H   UNK N   1      18.857  17.413  -0.343  0.00  0.00     0.210 HD
ENDBRANCH   4   8
BRANCH   3  10
HETATM   10  C   UNK N   1      20.755  18.185   3.040  0.00  0.00     0.215 C 
BRANCH  10  11
HETATM   11  O   UNK N   1      20.820  18.992   1.898  0.00  0.00    -0.294 OA
BRANCH  11  12
HETATM   12  P   UNK N   1      21.050  20.642   2.417  0.00  0.00     0.390 P 
HETATM   13  O   UNK N   1      20.208  20.926   3.692  0.00  0.00    -0.632 OA
BRANCH  12  14
HETATM   14  O   UNK N   1      22.713  20.954   2.804  0.00  0.00    -0.307 OA
HETATM   15  H   UNK N   1      23.354  21.681   2.847  0.00  0.00     0.222 HD
ENDBRANCH  12  14
BRANCH  12  16
HETATM   16  O   UNK N   1      20.492  21.739   1.193  0.00  0.00    -0.307 OA
HETATM   17  H   UNK N   1      20.738  22.586   0.790  0.00  0.00     0.222 HD
ENDBRANCH  12  16
ENDBRANCH  11  12
ENDBRANCH  10  11
ENDBRANCH   3  10
TORSDOF 6
ENDMDL
MODEL 6
REMARK VINA RESULT:      -4.8      1.801      2.495
REMARK  6 active torsions:
REMARK  status: ('A' for Active; 'I' for Inactive)
REMARK    1  A    between atoms: C_4  and  C_2 
REMARK    2  A    between atoms: O_12  and  C_2 
REMARK    3  A    between atoms: C_5  and  O_7 
REMARK    4  A    between atoms: P_13  and  O_8 
REMARK    5  A    between atoms: P_13  and  O_9 
REMARK    6  A    between atoms: P_13  and  O_12 
ROOT
HETATM    1  C   UNK N   1      36.042  13.970  10.946  0.00  0.00     0.202 C 
HETATM    2  C   UNK N   1      35.945  15.434  11.326  0.00  0.00     0.173 C 
HETATM    3  C   UNK N   1      35.195  15.096   9.164  0.00  0.00     0.177 C 
HETATM    4  C   UNK N   1      34.807  15.823  10.439  0.00  0.00     0.180 C 
HETATM    5  O   UNK N   1      37.126  16.086  10.952  0.00  0.00    -0.391 OA
HETATM    6  O   UNK N   1      35.719  13.847   9.567  0.00  0.00    -0.378 OA
HETATM    7  H   UNK N   1      37.993  16.409  10.660  0.00  0.00     0.210 HD
ENDROOT
BRANCH   4   8
HETATM    8  O   UNK N   1      34.682  17.205  10.276  0.00  0.00    -0.390 OA
HETATM    9  H   UNK N   1      35.230  17.868  10.725  0.00  0.00     0.210 HD
ENDBRANCH   4   8
BRANCH   3  10
HETATM   10  C   UNK N   1      33.993  14.904   8.240  0.00  0.00     0.215 C 
BRANCH  10  11
HETATM   11  O   UNK N   1      33.271  16.098   8.134  0.00  0.00    -0.294 OA
BRANCH  11  12
HETATM   12  P   UNK N   1      33.930  17.010   6.800  0.00  0.00     0.390 P 
HETATM   13  O   UNK N   1      32.796  17.427   5.823  0.00  0.00    -0.632 OA
BRANCH  12  14
HETATM   14  O   UNK N   1      34.708  18.460   7.353  0.00  0.00    -0.307 OA
HETATM   15  H   UNK N   1      34.501  19.351   7.676  0.00  0.00     0.222 HD
ENDBRANCH  12  14
BRANCH  12  16
HETATM   16  O   UNK N   1      35.038  16.031   5.893  0.00  0.00    -0.307 OA
HETATM   17  H   UNK N   1      35.979  15.796   5.878  0.00  0.00     0.222 HD
ENDBRANCH  12  16
ENDBRANCH  11  12
ENDBRANCH  10  11
ENDBRANCH   3  10
TORSDOF 6
ENDMDL
MODEL 7
REMARK VINA RESULT:      -4.8     15.219     16.931
REMARK  6 active torsions:
REMARK  status: ('A' for Active; 'I' for Inactive)
REMARK    1  A    between atoms: C_4  and  C_2 
REMARK    2  A    between atoms: O_12  and  C_2 
REMARK    3  A    between atoms: C_5  and  O_7 
REMARK    4  A    between atoms: P_13  and  O_8 
REMARK    5  A    between atoms: P_13  and  O_9 
REMARK    6  A    between atoms: P_13  and  O_12 
ROOT
HETATM    1  C   UNK N   1      21.726  20.152   2.757  0.00  0.00     0.202 C 
HETATM    2  C   UNK N   1      20.432  20.158   1.970  0.00  0.00     0.173 C 
HETATM    3  C   UNK N   1      20.755  18.114   3.003  0.00  0.00     0.177 C 
HETATM    4  C   UNK N   1      19.673  19.155   2.775  0.00  0.00     0.180 C 
HETATM    5  O   UNK N   1      20.677  19.688   0.675  0.00  0.00    -0.391 OA
HETATM    6  O   UNK N   1      21.949  18.833   3.237  0.00  0.00    -0.378 OA
HETATM    7  H   UNK N   1      20.985  19.364  -0.187  0.00  0.00     0.210 HD
ENDROOT
BRANCH   4   8
HETATM    8  O   UNK N   1      18.549  18.653   2.115  0.00  0.00    -0.390 OA
HETATM    9  H   UNK N   1      17.709  19.128   2.011  0.00  0.00     0.210 HD
ENDBRANCH   4   8
BRANCH   3  10
HETATM   10  C   UNK N   1      20.425  17.214   4.193  0.00  0.00     0.215 C 
BRANCH  10  11
HETATM   11  O   UNK N   1      19.080  16.832   4.151  0.00  0.00    -0.294 OA
BRANCH  11  12
HETATM   12  P   UNK N   1      18.817  15.646   5.403  0.00  0.00     0.390 P 
HETATM   13  O   UNK N   1      17.693  16.121   6.365  0.00  0.00    -0.632 OA
BRANCH  12  14
HETATM   14  O   UNK N   1      18.327  14.121   4.734  0.00  0.00    -0.307 OA
HETATM   15  H   UNK N   1      18.638  13.428   4.130  0.00  0.00     0.222 HD
ENDBRANCH  12  14
BRANCH  12  16
HETATM   16  O   UNK N   1      20.251  15.458   6.363  0.00  0.00    -0.307 OA
HETATM   17  H   UNK N   1      20.611  14.876   7.050  0.00  0.00     0.222 HD
ENDBRANCH  12  16
ENDBRANCH  11  12
ENDBRANCH  10  11
ENDBRANCH   3  10
TORSDOF 6
ENDMDL
MODEL 8
REMARK VINA RESULT:      -4.8      3.298      6.218
REMARK  6 active torsions:
REMARK  status: ('A' for Active; 'I' for Inactive)
REMARK    1  A    between atoms: C_4  and  C_2 
REMARK    2  A    between atoms: O_12  and  C_2 
REMARK    3  A    between atoms: C_5  and  O_7 
REMARK    4  A    between atoms: P_13  and  O_8 
REMARK    5  A    between atoms: P_13  and  O_9 
REMARK    6  A    between atoms: P_13  and  O_12 
ROOT
HETATM    1  C   UNK N   1      34.018  15.300  10.302  0.00  0.00     0.202 C 
HETATM    2  C   UNK N   1      35.288  15.938   9.778  0.00  0.00     0.173 C 
HETATM    3  C   UNK N   1      35.615  15.086  11.904  0.00  0.00     0.177 C 
HETATM    4  C   UNK N   1      36.282  15.124  10.541  0.00  0.00     0.180 C 
HETATM    5  O   UNK N   1      35.326  17.281  10.171  0.00  0.00    -0.391 OA
HETATM    6  O   UNK N   1      34.231  14.937  11.660  0.00  0.00    -0.378 OA
HETATM    7  H   UNK N   1      35.220  18.191  10.491  0.00  0.00     0.210 HD
ENDROOT
BRANCH   4   8
HETATM    8  O   UNK N   1      37.559  15.689  10.562  0.00  0.00    -0.390 OA
HETATM    9  H   UNK N   1      37.744  16.641  10.599  0.00  0.00     0.210 HD
ENDBRANCH   4   8
BRANCH   3  10
HETATM   10  C   UNK N   1      36.140  13.931  12.754  0.00  0.00     0.215 C 
BRANCH  10  11
HETATM   11  O   UNK N   1      35.309  13.729  13.862  0.00  0.00    -0.294 OA
BRANCH  11  12
HETATM   12  P   UNK N   1      36.323  13.439  15.251  0.00  0.00     0.390 P 
HETATM   13  O   UNK N   1      37.021  12.057  15.127  0.00  0.00    -0.632 OA
BRANCH  12  14
HETATM   14  O   UNK N   1      37.565  14.645  15.387  0.00  0.00    -0.307 OA
HETATM   15  H   UNK N   1      37.859  15.362  15.971  0.00  0.00     0.222 HD
ENDBRANCH  12  14
BRANCH  12  16
HETATM   16  O   UNK N   1      35.363  13.388  16.695  0.00  0.00    -0.307 OA
HETATM   17  H   UNK N   1      35.092  13.965  17.426  0.00  0.00     0.222 HD
ENDBRANCH  12  16
ENDBRANCH  11  12
ENDBRANCH  10  11
ENDBRANCH   3  10
TORSDOF 6
ENDMDL
MODEL 9
REMARK VINA RESULT:      -4.6     11.555     12.960
REMARK  6 active torsions:
REMARK  status: ('A' for Active; 'I' for Inactive)
REMARK    1  A    between atoms: C_4  and  C_2 
REMARK    2  A    between atoms: O_12  and  C_2 
REMARK    3  A    between atoms: C_5  and  O_7 
REMARK    4  A    between atoms: P_13  and  O_8 
REMARK    5  A    between atoms: P_13  and  O_9 
REMARK    6  A    between atoms: P_13  and  O_12 
ROOT
HETATM    1  C   UNK N   1      44.682  20.677   3.274  0.00  0.00     0.202 C 
HETATM    2  C   UNK N   1      44.657  21.816   4.271  0.00  0.00     0.173 C 
HETATM    3  C   UNK N   1      43.932  22.529   2.193  0.00  0.00     0.177 C 
HETATM    4  C   UNK N   1      43.560  22.627   3.662  0.00  0.00     0.180 C 
HETATM    5  O   UNK N   1      45.878  22.499   4.223  0.00  0.00    -0.391 OA
HETATM    6  O   UNK N   1      44.380  21.204   1.988  0.00  0.00    -0.378 OA
HETATM    7  H   UNK N   1      46.767  22.869   4.102  0.00  0.00     0.210 HD
ENDROOT
BRANCH   4   8
HETATM    8  O   UNK N   1      43.512  23.939   4.138  0.00  0.00    -0.390 OA
HETATM    9  H   UNK N   1      43.049  24.671   3.701  0.00  0.00     0.210 HD
ENDBRANCH   4   8
BRANCH   3  10
HETATM   10  C   UNK N   1      42.740  22.842   1.290  0.00  0.00     0.215 C 
BRANCH  10  11
HETATM   11  O   UNK N   1      41.552  22.795   2.026  0.00  0.00    -0.294 OA
BRANCH  11  12
HETATM   12  P   UNK N   1      40.567  21.508   1.380  0.00  0.00     0.390 P 
HETATM   13  O   UNK N   1      41.461  20.312   0.952  0.00  0.00    -0.632 OA
BRANCH  12  14
HETATM   14  O   UNK N   1      39.438  20.925   2.563  0.00  0.00    -0.307 OA
HETATM   15  H   UNK N   1      38.575  20.486   2.629  0.00  0.00     0.222 HD
ENDBRANCH  12  14
BRANCH  12  16
HETATM   16  O   UNK N   1      39.735  22.046  -0.044  0.00  0.00    -0.307 OA
HETATM   17  H   UNK N   1      39.777  22.756  -0.704  0.00  0.00     0.222 HD
ENDBRANCH  12  16
ENDBRANCH  11  12
ENDBRANCH  10  11
ENDBRANCH   3  10
TORSDOF 6
ENDMDL
