MODEL 1
REMARK VINA RESULT:      -5.8      0.000      0.000
REMARK  10 active torsions:
REMARK  status: ('A' for Active; 'I' for Inactive)
REMARK    1  A    between atoms: C_2  and  C_1 
REMARK    2  A    between atoms: O_17  and  C_1 
REMARK    3  A    between atoms: C_3  and  N_7 
REMARK    4  A    between atoms: C_4  and  O_8 
REMARK    5  A    between atoms: C_5  and  O_9 
REMARK    6  A    between atoms: C_6  and  O_10 
REMARK    7  A    between atoms: S_19  and  N_7 
REMARK    8  A    between atoms: S_19  and  O_11 
REMARK    9  A    between atoms: S_20  and  O_14 
REMARK   10  A    between atoms: S_20  and  O_17 
ROOT
HETATM    1  C   UNK N   1      35.749  13.865  10.820  0.00  0.00     0.181 C 
HETATM    2  C   UNK N   1      34.470  15.884   9.573  0.00  0.00     0.180 C 
HETATM    3  C   UNK N   1      36.183  15.266  11.335  0.00  0.00     0.180 C 
HETATM    4  C   UNK N   1      35.269  16.382  10.779  0.00  0.00     0.177 C 
HETATM    5  C   UNK N   1      33.638  14.648  10.055  0.00  0.00     0.283 C 
HETATM    6  O   UNK N   1      34.347  13.697  10.852  0.00  0.00    -0.349 OA
ENDROOT
BRANCH   1   7
HETATM    7  C   UNK N   1      36.420  12.733  11.599  0.00  0.00     0.226 C 
BRANCH   7   8
HETATM    8  O   UNK N   1      35.483  12.110  12.478  0.00  0.00    -0.261 OA
BRANCH   8   9
HETATM    9  S   UNK N   1      35.857  12.101  14.219  0.00  0.00     0.240 S 
HETATM   10  O   UNK N   1      37.178  12.702  13.704  0.00  0.00    -0.579 OA
HETATM   11  O   UNK N   1      34.716  13.124  14.085  0.00  0.00    -0.579 OA
BRANCH   9  12
HETATM   12  O   UNK N   1      36.177  13.559  15.065  0.00  0.00    -0.274 OA
HETATM   13  H   UNK N   1      35.976  14.080  15.858  0.00  0.00     0.234 HD
ENDBRANCH   9  12
ENDBRANCH   8   9
ENDBRANCH   7   8
ENDBRANCH   1   7
BRANCH   3  14
HETATM   14  O   UNK N   1      36.168  15.338  12.732  0.00  0.00    -0.390 OA
HETATM   15  H   UNK N   1      36.289  15.923  13.496  0.00  0.00     0.210 HD
ENDBRANCH   3  14
BRANCH   4  16
HETATM   16  O   UNK N   1      36.025  17.514  10.462  0.00  0.00    -0.391 OA
HETATM   17  H   UNK N   1      35.606  18.322  10.128  0.00  0.00     0.210 HD
ENDBRANCH   4  16
BRANCH   5  18
HETATM   18  O   UNK N   1      32.562  15.098  10.825  0.00  0.00    -0.369 OA
HETATM   19  H   UNK N   1      31.681  15.413  11.083  0.00  0.00     0.212 HD
ENDBRANCH   5  18
BRANCH   2  20
HETATM   20  N   UNK N   1      33.592  16.961   9.091  0.00  0.00    -0.296 N 
HETATM   21  H   UNK N   1      33.157  17.659   9.693  0.00  0.00     0.174 HD
BRANCH  20  22
HETATM   22  S   UNK N   1      33.389  16.888   7.332  0.00  0.00     0.195 S 
HETATM   23  O   UNK N   1      32.949  18.299   7.750  0.00  0.00    -0.585 OA
HETATM   24  O   UNK N   1      34.899  16.806   7.606  0.00  0.00    -0.585 OA
BRANCH  22  25
HETATM   25  O   UNK N   1      34.193  18.042   6.348  0.00  0.00    -0.279 OA
HETATM   26  H   UNK N   1      33.854  18.332   5.486  0.00  0.00     0.234 HD
ENDBRANCH  22  25
ENDBRANCH  20  22
ENDBRANCH   2  20
TORSDOF 10
ENDMDL
MODEL 2
REMARK VINA RESULT:      -5.7      1.543      1.955
REMARK  10 active torsions:
REMARK  status: ('A' for Active; 'I' for Inactive)
REMARK    1  A    between atoms: C_2  and  C_1 
REMARK    2  A    between atoms: O_17  and  C_1 
REMARK    3  A    between atoms: C_3  and  N_7 
REMARK    4  A    between atoms: C_4  and  O_8 
REMARK    5  A    between atoms: C_5  and  O_9 
REMARK    6  A    between atoms: C_6  and  O_10 
REMARK    7  A    between atoms: S_19  and  N_7 
REMARK    8  A    between atoms: S_19  and  O_11 
REMARK    9  A    between atoms: S_20  and  O_14 
REMARK   10  A    between atoms: S_20  and  O_17 
ROOT
HETATM    1  C   UNK N   1      34.998  13.494  11.515  0.00  0.00     0.181 C 
HETATM    2  C   UNK N   1      35.307  15.092   9.366  0.00  0.00     0.180 C 
HETATM    3  C   UNK N   1      36.452  13.493  10.964  0.00  0.00     0.180 C 
HETATM    4  C   UNK N   1      36.653  14.591   9.893  0.00  0.00     0.177 C 
HETATM    5  C   UNK N   1      34.506  15.632  10.598  0.00  0.00     0.283 C 
HETATM    6  O   UNK N   1      34.523  14.801  11.760  0.00  0.00    -0.349 OA
ENDROOT
BRANCH   1   7
HETATM    7  C   UNK N   1      34.864  12.651  12.783  0.00  0.00     0.226 C 
BRANCH   7   8
HETATM    8  O   UNK N   1      34.888  13.487  13.941  0.00  0.00    -0.261 OA
BRANCH   8   9
HETATM    9  S   UNK N   1      36.074  13.107  15.214  0.00  0.00     0.240 S 
HETATM   10  O   UNK N   1      36.402  11.956  14.245  0.00  0.00    -0.579 OA
HETATM   11  O   UNK N   1      36.559  14.447  14.636  0.00  0.00    -0.579 OA
BRANCH   9  12
HETATM   12  O   UNK N   1      37.758  13.112  14.888  0.00  0.00    -0.274 OA
HETATM   13  H   UNK N   1      38.459  12.766  14.314  0.00  0.00     0.234 HD
ENDBRANCH   9  12
ENDBRANCH   8   9
ENDBRANCH   7   8
ENDBRANCH   1   7
BRANCH   3  14
HETATM   14  O   UNK N   1      37.396  13.687  11.978  0.00  0.00    -0.390 OA
HETATM   15  H   UNK N   1      37.936  14.346  12.442  0.00  0.00     0.210 HD
ENDBRANCH   3  14
BRANCH   4  16
HETATM   16  O   UNK N   1      37.466  14.117   8.860  0.00  0.00    -0.391 OA
HETATM   17  H   UNK N   1      37.367  13.217   8.515  0.00  0.00     0.210 HD
ENDBRANCH   4  16
BRANCH   5  18
HETATM   18  O   UNK N   1      35.035  16.868  10.978  0.00  0.00    -0.369 OA
HETATM   19  H   UNK N   1      35.103  17.791  11.270  0.00  0.00     0.212 HD
ENDBRANCH   5  18
BRANCH   2  20
HETATM   20  N   UNK N   1      35.537  16.154   8.375  0.00  0.00    -0.296 N 
HETATM   21  H   UNK N   1      36.440  16.595   8.204  0.00  0.00     0.174 HD
BRANCH  20  22
HETATM   22  S   UNK N   1      34.043  16.568   7.517  0.00  0.00     0.195 S 
HETATM   23  O   UNK N   1      34.585  17.889   8.084  0.00  0.00    -0.585 OA
HETATM   24  O   UNK N   1      35.050  16.109   6.452  0.00  0.00    -0.585 OA
BRANCH  22  25
HETATM   25  O   UNK N   1      34.095  17.739   6.263  0.00  0.00    -0.279 OA
HETATM   26  H   UNK N   1      33.689  18.618   6.340  0.00  0.00     0.234 HD
ENDBRANCH  22  25
ENDBRANCH  20  22
ENDBRANCH   2  20
TORSDOF 10
ENDMDL
MODEL 3
REMARK VINA RESULT:      -5.4     17.190     21.229
REMARK  10 active torsions:
REMARK  status: ('A' for Active; 'I' for Inactive)
REMARK    1  A    between atoms: C_2  and  C_1 
REMARK    2  A    between atoms: O_17  and  C_1 
REMARK    3  A    between atoms: C_3  and  N_7 
REMARK    4  A    between atoms: C_4  and  O_8 
REMARK    5  A    between atoms: C_5  and  O_9 
REMARK    6  A    between atoms: C_6  and  O_10 
REMARK    7  A    between atoms: S_19  and  N_7 
REMARK    8  A    between atoms: S_19  and  O_11 
REMARK    9  A    between atoms: S_20  and  O_14 
REMARK   10  A    between atoms: S_20  and  O_17 
ROOT
HETATM    1  C   UNK N   1      26.694  24.795  -6.842  0.00  0.00     0.181 C 
HETATM    2  C   UNK N   1      28.102  24.499  -4.562  0.00  0.00     0.180 C 
HETATM    3  C   UNK N   1      25.791  24.725  -5.578  0.00  0.00     0.180 C 
HETATM    4  C   UNK N   1      26.628  24.797  -4.280  0.00  0.00     0.177 C 
HETATM    5  C   UNK N   1      28.587  25.550  -5.617  0.00  0.00     0.283 C 
HETATM    6  O   UNK N   1      27.706  25.773  -6.720  0.00  0.00    -0.349 OA
ENDROOT
BRANCH   1   7
HETATM    7  C   UNK N   1      25.883  25.051  -8.113  0.00  0.00     0.226 C 
BRANCH   7   8
HETATM    8  O   UNK N   1      24.949  23.993  -8.330  0.00  0.00    -0.261 OA
BRANCH   8   9
HETATM    9  S   UNK N   1      25.583  22.332  -8.418  0.00  0.00     0.240 S 
HETATM   10  O   UNK N   1      24.137  22.002  -8.005  0.00  0.00    -0.579 OA
HETATM   11  O   UNK N   1      25.624  22.827  -9.873  0.00  0.00    -0.579 OA
BRANCH   9  12
HETATM   12  O   UNK N   1      24.932  21.190  -9.521  0.00  0.00    -0.274 OA
HETATM   13  H   UNK N   1      24.149  20.668  -9.757  0.00  0.00     0.234 HD
ENDBRANCH   9  12
ENDBRANCH   8   9
ENDBRANCH   7   8
ENDBRANCH   1   7
BRANCH   3  14
HETATM   14  O   UNK N   1      24.846  25.756  -5.552  0.00  0.00    -0.390 OA
HETATM   15  H   UNK N   1      24.723  26.718  -5.551  0.00  0.00     0.210 HD
ENDBRANCH   3  14
BRANCH   4  16
HETATM   16  O   UNK N   1      26.104  23.931  -3.317  0.00  0.00    -0.391 OA
HETATM   17  H   UNK N   1      25.156  23.918  -3.114  0.00  0.00     0.210 HD
ENDBRANCH   4  16
BRANCH   5  18
HETATM   18  O   UNK N   1      28.759  26.784  -4.982  0.00  0.00    -0.369 OA
HETATM   19  H   UNK N   1      29.058  27.686  -4.788  0.00  0.00     0.212 HD
ENDBRANCH   5  18
BRANCH   2  20
HETATM   20  N   UNK N   1      28.869  24.607  -3.312  0.00  0.00    -0.296 N 
HETATM   21  H   UNK N   1      28.841  25.413  -2.689  0.00  0.00     0.174 HD
BRANCH  20  22
HETATM   22  S   UNK N   1      29.848  23.156  -3.031  0.00  0.00     0.195 S 
HETATM   23  O   UNK N   1      30.748  24.350  -2.676  0.00  0.00    -0.585 OA
HETATM   24  O   UNK N   1      28.721  23.138  -1.986  0.00  0.00    -0.585 OA
BRANCH  22  25
HETATM   25  O   UNK N   1      30.536  22.900  -1.479  0.00  0.00    -0.279 OA
HETATM   26  H   UNK N   1      30.702  22.017  -1.112  0.00  0.00     0.234 HD
ENDBRANCH  22  25
ENDBRANCH  20  22
ENDBRANCH   2  20
TORSDOF 10
ENDMDL
MODEL 4
REMARK VINA RESULT:      -5.3      1.701      2.025
REMARK  10 active torsions:
REMARK  status: ('A' for Active; 'I' for Inactive)
REMARK    1  A    between atoms: C_2  and  C_1 
REMARK    2  A    between atoms: O_17  and  C_1 
REMARK    3  A    between atoms: C_3  and  N_7 
REMARK    4  A    between atoms: C_4  and  O_8 
REMARK    5  A    between atoms: C_5  and  O_9 
REMARK    6  A    between atoms: C_6  and  O_10 
REMARK    7  A    between atoms: S_19  and  N_7 
REMARK    8  A    between atoms: S_19  and  O_11 
REMARK    9  A    between atoms: S_20  and  O_14 
REMARK   10  A    between atoms: S_20  and  O_17 
ROOT
HETATM    1  C   UNK N   1      35.137  13.815   9.743  0.00  0.00     0.181 C 
HETATM    2  C   UNK N   1      33.950  15.497   8.002  0.00  0.00     0.180 C 
HETATM    3  C   UNK N   1      34.605  15.110  10.419  0.00  0.00     0.180 C 
HETATM    4  C   UNK N   1      33.727  15.936   9.450  0.00  0.00     0.177 C 
HETATM    5  C   UNK N   1      33.608  13.971   7.928  0.00  0.00     0.283 C 
HETATM    6  O   UNK N   1      34.140  13.165   8.981  0.00  0.00    -0.349 OA
ENDROOT
BRANCH   1   7
HETATM    7  C   UNK N   1      35.726  12.837  10.759  0.00  0.00     0.226 C 
BRANCH   7   8
HETATM    8  O   UNK N   1      36.575  13.525  11.678  0.00  0.00    -0.261 OA
BRANCH   8   9
HETATM    9  S   UNK N   1      36.386  13.164  13.411  0.00  0.00     0.240 S 
HETATM   10  O   UNK N   1      36.197  14.691  13.474  0.00  0.00    -0.579 OA
HETATM   11  O   UNK N   1      35.164  12.501  12.754  0.00  0.00    -0.579 OA
BRANCH   9  12
HETATM   12  O   UNK N   1      34.922  13.515  14.236  0.00  0.00    -0.274 OA
HETATM   13  H   UNK N   1      34.289  13.204  14.902  0.00  0.00     0.234 HD
ENDBRANCH   9  12
ENDBRANCH   8   9
ENDBRANCH   7   8
ENDBRANCH   1   7
BRANCH   3  14
HETATM   14  O   UNK N   1      33.855  14.832  11.567  0.00  0.00    -0.390 OA
HETATM   15  H   UNK N   1      33.431  15.219  12.348  0.00  0.00     0.210 HD
ENDBRANCH   3  14
BRANCH   4  16
HETATM   16  O   UNK N   1      33.973  17.301   9.618  0.00  0.00    -0.391 OA
HETATM   17  H   UNK N   1      33.587  17.795  10.357  0.00  0.00     0.210 HD
ENDBRANCH   4  16
BRANCH   5  18
HETATM   18  O   UNK N   1      32.219  13.815   7.963  0.00  0.00    -0.369 OA
HETATM   19  H   UNK N   1      31.285  13.819   7.702  0.00  0.00     0.212 HD
ENDBRANCH   5  18
BRANCH   2  20
HETATM   20  N   UNK N   1      33.078  16.281   7.115  0.00  0.00    -0.296 N 
HETATM   21  H   UNK N   1      32.139  16.593   7.362  0.00  0.00     0.174 HD
BRANCH  20  22
HETATM   22  S   UNK N   1      33.868  16.614   5.564  0.00  0.00     0.195 S 
HETATM   23  O   UNK N   1      32.358  16.715   5.300  0.00  0.00    -0.585 OA
HETATM   24  O   UNK N   1      34.223  17.780   6.498  0.00  0.00    -0.585 OA
BRANCH  22  25
HETATM   25  O   UNK N   1      33.536  18.091   4.755  0.00  0.00    -0.279 OA
HETATM   26  H   UNK N   1      33.384  18.929   5.222  0.00  0.00     0.234 HD
ENDBRANCH  22  25
ENDBRANCH  20  22
ENDBRANCH   2  20
TORSDOF 10
ENDMDL
MODEL 5
REMARK VINA RESULT:      -5.3     13.209     14.649
REMARK  10 active torsions:
REMARK  status: ('A' for Active; 'I' for Inactive)
REMARK    1  A    between atoms: C_2  and  C_1 
REMARK    2  A    between atoms: O_17  and  C_1 
REMARK    3  A    between atoms: C_3  and  N_7 
REMARK    4  A    between atoms: C_4  and  O_8 
REMARK    5  A    between atoms: C_5  and  O_9 
REMARK    6  A    between atoms: C_6  and  O_10 
REMARK    7  A    between atoms: S_19  and  N_7 
REMARK    8  A    between atoms: S_19  and  O_11 
REMARK    9  A    between atoms: S_20  and  O_14 
REMARK   10  A    between atoms: S_20  and  O_17 
ROOT
HETATM    1  C   UNK N   1      21.301  15.536   6.075  0.00  0.00     0.181 C 
HETATM    2  C   UNK N   1      21.450  18.003   4.999  0.00  0.00     0.180 C 
HETATM    3  C   UNK N   1      22.751  15.940   5.686  0.00  0.00     0.180 C 
HETATM    4  C   UNK N   1      22.839  17.435   5.299  0.00  0.00     0.177 C 
HETATM    5  C   UNK N   1      20.582  17.793   6.285  0.00  0.00     0.283 C 
HETATM    6  O   UNK N   1      20.681  16.505   6.895  0.00  0.00    -0.349 OA
ENDROOT
BRANCH   1   7
HETATM    7  C   UNK N   1      21.250  14.172   6.763  0.00  0.00     0.226 C 
BRANCH   7   8
HETATM    8  O   UNK N   1      20.224  14.152   7.756  0.00  0.00    -0.261 OA
BRANCH   8   9
HETATM    9  S   UNK N   1      20.725  14.110   9.464  0.00  0.00     0.240 S 
HETATM   10  O   UNK N   1      19.231  14.421   9.672  0.00  0.00    -0.579 OA
HETATM   11  O   UNK N   1      20.906  12.660   8.983  0.00  0.00    -0.579 OA
BRANCH   9  12
HETATM   12  O   UNK N   1      20.059  12.965  10.556  0.00  0.00    -0.274 OA
HETATM   13  H   UNK N   1      19.577  12.127  10.635  0.00  0.00     0.234 HD
ENDBRANCH   9  12
ENDBRANCH   8   9
ENDBRANCH   7   8
ENDBRANCH   1   7
BRANCH   3  14
HETATM   14  O   UNK N   1      23.658  15.698   6.723  0.00  0.00    -0.390 OA
HETATM   15  H   UNK N   1      24.503  15.282   6.955  0.00  0.00     0.210 HD
ENDBRANCH   3  14
BRANCH   4  16
HETATM   16  O   UNK N   1      23.709  17.606   4.219  0.00  0.00    -0.391 OA
HETATM   17  H   UNK N   1      23.452  18.129   3.444  0.00  0.00     0.210 HD
ENDBRANCH   4  16
BRANCH   5  18
HETATM   18  O   UNK N   1      20.967  18.727   7.251  0.00  0.00    -0.369 OA
HETATM   19  H   UNK N   1      21.513  19.301   7.811  0.00  0.00     0.212 HD
ENDBRANCH   5  18
BRANCH   2  20
HETATM   20  N   UNK N   1      21.570  19.431   4.666  0.00  0.00    -0.296 N 
HETATM   21  H   UNK N   1      21.859  20.152   5.326  0.00  0.00     0.174 HD
BRANCH  20  22
HETATM   22  S   UNK N   1      21.147  19.734   2.972  0.00  0.00     0.195 S 
HETATM   23  O   UNK N   1      20.250  20.662   3.805  0.00  0.00    -0.585 OA
HETATM   24  O   UNK N   1      22.586  20.236   3.164  0.00  0.00    -0.585 OA
BRANCH  22  25
HETATM   25  O   UNK N   1      21.263  21.331   2.354  0.00  0.00    -0.279 OA
HETATM   26  H   UNK N   1      20.525  21.962   2.370  0.00  0.00     0.234 HD
ENDBRANCH  22  25
ENDBRANCH  20  22
ENDBRANCH   2  20
TORSDOF 10
ENDMDL
MODEL 6
REMARK VINA RESULT:      -5.3      3.295      7.559
REMARK  10 active torsions:
REMARK  status: ('A' for Active; 'I' for Inactive)
REMARK    1  A    between atoms: C_2  and  C_1 
REMARK    2  A    between atoms: O_17  and  C_1 
REMARK    3  A    between atoms: C_3  and  N_7 
REMARK    4  A    between atoms: C_4  and  O_8 
REMARK    5  A    between atoms: C_5  and  O_9 
REMARK    6  A    between atoms: C_6  and  O_10 
REMARK    7  A    between atoms: S_19  and  N_7 
REMARK    8  A    between atoms: S_19  and  O_11 
REMARK    9  A    between atoms: S_20  and  O_14 
REMARK   10  A    between atoms: S_20  and  O_17 
ROOT
HETATM    1  C   UNK N   1      32.770  16.847   6.255  0.00  0.00     0.181 C 
HETATM    2  C   UNK N   1      33.980  16.643   8.655  0.00  0.00     0.180 C 
HETATM    3  C   UNK N   1      31.764  16.659   7.425  0.00  0.00     0.180 C 
HETATM    4  C   UNK N   1      32.463  16.786   8.799  0.00  0.00     0.177 C 
HETATM    5  C   UNK N   1      34.453  17.761   7.665  0.00  0.00     0.283 C 
HETATM    6  O   UNK N   1      33.661  17.918   6.486  0.00  0.00    -0.349 OA
ENDROOT
BRANCH   1   7
HETATM    7  C   UNK N   1      32.061  17.048   4.915  0.00  0.00     0.226 C 
BRANCH   7   8
HETATM    8  O   UNK N   1      31.041  16.065   4.738  0.00  0.00    -0.261 OA
BRANCH   8   9
HETATM    9  S   UNK N   1      29.431  16.622   4.220  0.00  0.00     0.240 S 
HETATM   10  O   UNK N   1      29.017  15.900   5.515  0.00  0.00    -0.579 OA
HETATM   11  O   UNK N   1      30.190  17.919   4.552  0.00  0.00    -0.579 OA
BRANCH   9  12
HETATM   12  O   UNK N   1      28.509  17.696   5.191  0.00  0.00    -0.274 OA
HETATM   13  H   UNK N   1      28.254  18.621   5.334  0.00  0.00     0.234 HD
ENDBRANCH   9  12
ENDBRANCH   8   9
ENDBRANCH   7   8
ENDBRANCH   1   7
BRANCH   3  14
HETATM   14  O   UNK N   1      30.721  17.589   7.374  0.00  0.00    -0.390 OA
HETATM   15  H   UNK N   1      30.489  18.509   7.170  0.00  0.00     0.210 HD
ENDBRANCH   3  14
BRANCH   4  16
HETATM   16  O   UNK N   1      31.942  15.850   9.696  0.00  0.00    -0.391 OA
HETATM   17  H   UNK N   1      32.494  15.141  10.061  0.00  0.00     0.210 HD
ENDBRANCH   4  16
BRANCH   5  18
HETATM   18  O   UNK N   1      34.438  18.991   8.328  0.00  0.00    -0.369 OA
HETATM   19  H   UNK N   1      34.668  19.893   8.601  0.00  0.00     0.212 HD
ENDBRANCH   5  18
BRANCH   2  20
HETATM   20  N   UNK N   1      34.611  16.800   9.974  0.00  0.00    -0.296 N 
HETATM   21  H   UNK N   1      34.445  17.586  10.601  0.00  0.00     0.174 HD
BRANCH  20  22
HETATM   22  S   UNK N   1      35.698  15.446  10.332  0.00  0.00     0.195 S 
HETATM   23  O   UNK N   1      36.476  16.720  10.693  0.00  0.00    -0.585 OA
HETATM   24  O   UNK N   1      34.533  15.353  11.330  0.00  0.00    -0.585 OA
BRANCH  22  25
HETATM   25  O   UNK N   1      36.339  15.284  11.916  0.00  0.00    -0.279 OA
HETATM   26  H   UNK N   1      37.229  15.582  12.162  0.00  0.00     0.234 HD
ENDBRANCH  22  25
ENDBRANCH  20  22
ENDBRANCH   2  20
TORSDOF 10
ENDMDL
MODEL 7
REMARK VINA RESULT:      -5.3      1.468      2.418
REMARK  10 active torsions:
REMARK  status: ('A' for Active; 'I' for Inactive)
REMARK    1  A    between atoms: C_2  and  C_1 
REMARK    2  A    between atoms: O_17  and  C_1 
REMARK    3  A    between atoms: C_3  and  N_7 
REMARK    4  A    between atoms: C_4  and  O_8 
REMARK    5  A    between atoms: C_5  and  O_9 
REMARK    6  A    between atoms: C_6  and  O_10 
REMARK    7  A    between atoms: S_19  and  N_7 
REMARK    8  A    between atoms: S_19  and  O_11 
REMARK    9  A    between atoms: S_20  and  O_14 
REMARK   10  A    between atoms: S_20  and  O_17 
ROOT
HETATM    1  C   UNK N   1      36.105  14.364  11.184  0.00  0.00     0.181 C 
HETATM    2  C   UNK N   1      34.765  15.725   9.282  0.00  0.00     0.180 C 
HETATM    3  C   UNK N   1      34.566  14.159  11.264  0.00  0.00     0.180 C 
HETATM    4  C   UNK N   1      33.851  14.752  10.028  0.00  0.00     0.177 C 
HETATM    5  C   UNK N   1      36.049  14.926   8.874  0.00  0.00     0.283 C 
HETATM    6  O   UNK N   1      36.611  14.096   9.893  0.00  0.00    -0.349 OA
ENDROOT
BRANCH   1   7
HETATM    7  C   UNK N   1      36.852  13.516  12.214  0.00  0.00     0.226 C 
BRANCH   7   8
HETATM    8  O   UNK N   1      36.314  13.729  13.520  0.00  0.00    -0.261 OA
BRANCH   8   9
HETATM    9  S   UNK N   1      35.907  12.295  14.493  0.00  0.00     0.240 S 
HETATM   10  O   UNK N   1      34.500  12.912  14.397  0.00  0.00    -0.579 OA
HETATM   11  O   UNK N   1      36.332  11.717  13.133  0.00  0.00    -0.579 OA
BRANCH   9  12
HETATM   12  O   UNK N   1      34.813  11.108  13.912  0.00  0.00    -0.274 OA
HETATM   13  H   UNK N   1      33.884  10.908  13.718  0.00  0.00     0.234 HD
ENDBRANCH   9  12
ENDBRANCH   8   9
ENDBRANCH   7   8
ENDBRANCH   1   7
BRANCH   3  14
HETATM   14  O   UNK N   1      34.222  12.807  11.368  0.00  0.00    -0.390 OA
HETATM   15  H   UNK N   1      33.485  12.179  11.410  0.00  0.00     0.210 HD
ENDBRANCH   3  14
BRANCH   4  16
HETATM   16  O   UNK N   1      32.652  15.361  10.407  0.00  0.00    -0.391 OA
HETATM   17  H   UNK N   1      32.139  15.896   9.782  0.00  0.00     0.210 HD
ENDBRANCH   4  16
BRANCH   5  18
HETATM   18  O   UNK N   1      35.740  14.090   7.798  0.00  0.00    -0.369 OA
HETATM   19  H   UNK N   1      35.793  13.382   7.136  0.00  0.00     0.212 HD
ENDBRANCH   5  18
BRANCH   2  20
HETATM   20  N   UNK N   1      34.064  16.243   8.098  0.00  0.00    -0.296 N 
HETATM   21  H   UNK N   1      33.798  15.676   7.294  0.00  0.00     0.174 HD
BRANCH  20  22
HETATM   22  S   UNK N   1      33.739  17.979   8.250  0.00  0.00     0.195 S 
HETATM   23  O   UNK N   1      34.618  17.606   9.454  0.00  0.00    -0.585 OA
HETATM   24  O   UNK N   1      34.617  17.802   7.002  0.00  0.00    -0.585 OA
BRANCH  22  25
HETATM   25  O   UNK N   1      35.059  19.072   8.343  0.00  0.00    -0.279 OA
HETATM   26  H   UNK N   1      35.453  19.359   9.182  0.00  0.00     0.234 HD
ENDBRANCH  22  25
ENDBRANCH  20  22
ENDBRANCH   2  20
TORSDOF 10
ENDMDL
MODEL 8
REMARK VINA RESULT:      -5.2      2.090      6.435
REMARK  10 active torsions:
REMARK  status: ('A' for Active; 'I' for Inactive)
REMARK    1  A    between atoms: C_2  and  C_1 
REMARK    2  A    between atoms: O_17  and  C_1 
REMARK    3  A    between atoms: C_3  and  N_7 
REMARK    4  A    between atoms: C_4  and  O_8 
REMARK    5  A    between atoms: C_5  and  O_9 
REMARK    6  A    between atoms: C_6  and  O_10 
REMARK    7  A    between atoms: S_19  and  N_7 
REMARK    8  A    between atoms: S_19  and  O_11 
REMARK    9  A    between atoms: S_20  and  O_14 
REMARK   10  A    between atoms: S_20  and  O_17 
ROOT
HETATM    1  C   UNK N   1      34.984  14.639  10.426  0.00  0.00     0.181 C 
HETATM    2  C   UNK N   1      35.647  13.102  12.540  0.00  0.00     0.180 C 
HETATM    3  C   UNK N   1      35.897  15.375  11.447  0.00  0.00     0.180 C 
HETATM    4  C   UNK N   1      36.452  14.403  12.514  0.00  0.00     0.177 C 
HETATM    5  C   UNK N   1      35.731  12.485  11.103  0.00  0.00     0.283 C 
HETATM    6  O   UNK N   1      35.528  13.399  10.024  0.00  0.00    -0.349 OA
ENDROOT
BRANCH   1   7
HETATM    7  C   UNK N   1      34.692  15.496   9.195  0.00  0.00     0.226 C 
BRANCH   7   8
HETATM    8  O   UNK N   1      34.416  16.843   9.579  0.00  0.00    -0.261 OA
BRANCH   8   9
HETATM    9  S   UNK N   1      33.746  17.937   8.344  0.00  0.00     0.240 S 
HETATM   10  O   UNK N   1      35.085  18.658   8.585  0.00  0.00    -0.579 OA
HETATM   11  O   UNK N   1      33.979  16.617   7.590  0.00  0.00    -0.579 OA
BRANCH   9  12
HETATM   12  O   UNK N   1      34.538  18.168   6.839  0.00  0.00    -0.274 OA
HETATM   13  H   UNK N   1      34.878  17.731   6.043  0.00  0.00     0.234 HD
ENDBRANCH   9  12
ENDBRANCH   8   9
ENDBRANCH   7   8
ENDBRANCH   1   7
BRANCH   3  14
HETATM   14  O   UNK N   1      36.977  16.008  10.822  0.00  0.00    -0.390 OA
HETATM   15  H   UNK N   1      37.404  16.188   9.970  0.00  0.00     0.210 HD
ENDBRANCH   3  14
BRANCH   4  16
HETATM   16  O   UNK N   1      36.470  15.020  13.768  0.00  0.00    -0.391 OA
HETATM   17  H   UNK N   1      37.297  15.345  14.157  0.00  0.00     0.210 HD
ENDBRANCH   4  16
BRANCH   5  18
HETATM   18  O   UNK N   1      36.998  11.923  10.923  0.00  0.00    -0.369 OA
HETATM   19  H   UNK N   1      37.941  11.724  11.032  0.00  0.00     0.212 HD
ENDBRANCH   5  18
BRANCH   2  20
HETATM   20  N   UNK N   1      36.222  12.193  13.543  0.00  0.00    -0.296 N 
HETATM   21  H   UNK N   1      37.152  11.781  13.479  0.00  0.00     0.174 HD
BRANCH  20  22
HETATM   22  S   UNK N   1      35.089  11.907  14.876  0.00  0.00     0.195 S 
HETATM   23  O   UNK N   1      36.248  12.721  15.472  0.00  0.00    -0.585 OA
HETATM   24  O   UNK N   1      34.375  12.836  13.882  0.00  0.00    -0.585 OA
BRANCH  22  25
HETATM   25  O   UNK N   1      34.451  13.250  15.734  0.00  0.00    -0.279 OA
HETATM   26  H   UNK N   1      34.055  14.020  15.296  0.00  0.00     0.234 HD
ENDBRANCH  22  25
ENDBRANCH  20  22
ENDBRANCH   2  20
TORSDOF 10
ENDMDL
MODEL 9
REMARK VINA RESULT:      -5.2     16.892     19.801
REMARK  10 active torsions:
REMARK  status: ('A' for Active; 'I' for Inactive)
REMARK    1  A    between atoms: C_2  and  C_1 
REMARK    2  A    between atoms: O_17  and  C_1 
REMARK    3  A    between atoms: C_3  and  N_7 
REMARK    4  A    between atoms: C_4  and  O_8 
REMARK    5  A    between atoms: C_5  and  O_9 
REMARK    6  A    between atoms: C_6  and  O_10 
REMARK    7  A    between atoms: S_19  and  N_7 
REMARK    8  A    between atoms: S_19  and  O_11 
REMARK    9  A    between atoms: S_20  and  O_14 
REMARK   10  A    between atoms: S_20  and  O_17 
ROOT
HETATM    1  C   UNK N   1      29.171  24.792  -4.617  0.00  0.00     0.181 C 
HETATM    2  C   UNK N   1      26.906  24.031  -5.866  0.00  0.00     0.180 C 
HETATM    3  C   UNK N   1      28.794  25.721  -5.805  0.00  0.00     0.180 C 
HETATM    4  C   UNK N   1      27.379  25.406  -6.345  0.00  0.00     0.177 C 
HETATM    5  C   UNK N   1      26.931  24.059  -4.301  0.00  0.00     0.283 C 
HETATM    6  O   UNK N   1      28.101  24.628  -3.710  0.00  0.00    -0.349 OA
ENDROOT
BRANCH   1   7
HETATM    7  C   UNK N   1      30.407  25.291  -3.869  0.00  0.00     0.226 C 
BRANCH   7   8
HETATM    8  O   UNK N   1      30.677  24.457  -2.741  0.00  0.00    -0.261 OA
BRANCH   8   9
HETATM    9  S   UNK N   1      30.652  22.694  -2.988  0.00  0.00     0.240 S 
HETATM   10  O   UNK N   1      32.057  22.983  -3.549  0.00  0.00    -0.579 OA
HETATM   11  O   UNK N   1      30.643  22.859  -1.459  0.00  0.00    -0.579 OA
BRANCH   9  12
HETATM   12  O   UNK N   1      31.789  21.672  -2.208  0.00  0.00    -0.274 OA
HETATM   13  H   UNK N   1      32.376  20.908  -2.314  0.00  0.00     0.234 HD
ENDBRANCH   9  12
ENDBRANCH   8   9
ENDBRANCH   7   8
ENDBRANCH   1   7
BRANCH   3  14
HETATM   14  O   UNK N   1      28.839  27.073  -5.448  0.00  0.00    -0.390 OA
HETATM   15  H   UNK N   1      29.332  27.902  -5.547  0.00  0.00     0.210 HD
ENDBRANCH   3  14
BRANCH   4  16
HETATM   16  O   UNK N   1      27.360  25.499  -7.739  0.00  0.00    -0.391 OA
HETATM   17  H   UNK N   1      27.846  24.869  -8.292  0.00  0.00     0.210 HD
ENDBRANCH   4  16
BRANCH   5  18
HETATM   18  O   UNK N   1      25.843  24.806  -3.842  0.00  0.00    -0.369 OA
HETATM   19  H   UNK N   1      25.279  25.556  -3.595  0.00  0.00     0.212 HD
ENDBRANCH   5  18
BRANCH   2  20
HETATM   20  N   UNK N   1      25.548  23.780  -6.372  0.00  0.00    -0.296 N 
HETATM   21  H   UNK N   1      24.719  24.288  -6.068  0.00  0.00     0.174 HD
BRANCH  20  22
HETATM   22  S   UNK N   1      25.541  22.481  -7.578  0.00  0.00     0.195 S 
HETATM   23  O   UNK N   1      24.547  22.053  -6.488  0.00  0.00    -0.585 OA
HETATM   24  O   UNK N   1      24.932  23.717  -8.257  0.00  0.00    -0.585 OA
BRANCH  22  25
HETATM   25  O   UNK N   1      24.057  22.033  -8.315  0.00  0.00    -0.279 OA
HETATM   26  H   UNK N   1      23.524  21.277  -8.019  0.00  0.00     0.234 HD
ENDBRANCH  22  25
ENDBRANCH  20  22
ENDBRANCH   2  20
TORSDOF 10
ENDMDL
