REMARK  0 active torsions:
REMARK  status: ('A' for Active; 'I' for Inactive)
ROOT
HETATM    1 Cl   UNK N   1       3.416  -1.156  -0.000  0.00  0.00    -0.084 Cl
HETATM    2  C   UNK N   1       1.898  -0.284  -0.000  0.00  0.00     0.037 A 
HETATM    3  C   UNK N   1       0.692  -0.991   0.000  0.00  0.00     0.047 A 
HETATM    4  C   UNK N   1      -0.522  -0.299  -0.000  0.00  0.00     0.037 A 
HETATM    5 Cl   UNK N   1      -2.029  -1.188  -0.000  0.00  0.00    -0.084 Cl
HETATM    6  C   UNK N   1      -0.531   1.099   0.000  0.00  0.00     0.047 A 
HETATM    7  C   UNK N   1       0.676   1.807   0.000  0.00  0.00     0.037 A 
HETATM    8 Cl   UNK N   1       0.665   3.556  -0.000  0.00  0.00    -0.084 Cl
HETATM    9  C   UNK N   1       1.891   1.113   0.000  0.00  0.00     0.047 A 
ENDROOT
TORSDOF 0
