MODEL 1
REMARK VINA RESULT:      -6.7      0.000      0.000
REMARK  28 active torsions:
REMARK  status: ('A' for Active; 'I' for Inactive)
REMARK    1  A    between atoms: C_8  and  C_1 
REMARK    2  A    between atoms: O_43  and  C_1 
REMARK    3  A    between atoms: C_9  and  C_2 
REMARK    4  A    between atoms: O_44  and  C_2 
REMARK    5  A    between atoms: C_10  and  C_3 
REMARK    6  A    between atoms: O_45  and  C_3 
REMARK    7  A    between atoms: C_11  and  C_4 
REMARK    8  A    between atoms: O_46  and  C_4 
REMARK    9  A    between atoms: C_12  and  C_5 
REMARK   10  A    between atoms: O_47  and  C_5 
REMARK   11  A    between atoms: C_13  and  C_6 
REMARK   12  A    between atoms: O_48  and  C_6 
REMARK   13  A    between atoms: C_14  and  C_7 
REMARK   14  A    between atoms: O_49  and  C_7 
REMARK   15  A    between atoms: C_15  and  O_50 
REMARK   16  A    between atoms: C_16  and  O_51 
REMARK   17  A    between atoms: C_17  and  O_52 
REMARK   18  A    between atoms: C_18  and  O_53 
REMARK   19  A    between atoms: C_19  and  O_54 
REMARK   20  A    between atoms: C_20  and  O_55 
REMARK   21  A    between atoms: C_21  and  O_56 
REMARK   22  A    between atoms: C_22  and  O_57 
REMARK   23  A    between atoms: C_23  and  O_58 
REMARK   24  A    between atoms: C_24  and  O_59 
REMARK   25  A    between atoms: C_25  and  O_60 
REMARK   26  A    between atoms: C_26  and  O_61 
REMARK   27  A    between atoms: C_27  and  O_62 
REMARK   28  A    between atoms: C_28  and  O_63 
ROOT
HETATM    1  C   UNK N   1      30.086  12.903   4.047  0.00  0.00     0.180 C 
HETATM    2  C   UNK N   1      28.724  10.268   1.149  0.00  0.00     0.180 C 
HETATM    3  C   UNK N   1      30.462  16.728   3.635  0.00  0.00     0.180 C 
HETATM    4  C   UNK N   1      25.320  11.100   0.935  0.00  0.00     0.180 C 
HETATM    5  C   UNK N   1      26.962  19.663   5.894  0.00  0.00     0.180 C 
HETATM    6  C   UNK N   1      22.703  14.162   0.921  0.00  0.00     0.180 C 
HETATM    7  C   UNK N   1      22.726  16.713   4.045  0.00  0.00     0.180 C 
HETATM    8  C   UNK N   1      32.549  12.391   4.224  0.00  0.00     0.183 C 
HETATM    9  C   UNK N   1      31.714  17.541   5.638  0.00  0.00     0.183 C 
HETATM   10  C   UNK N   1      29.539   7.943   1.407  0.00  0.00     0.183 C 
HETATM   11  C   UNK N   1      26.537  17.479   4.792  0.00  0.00     0.183 C 
HETATM   12  C   UNK N   1      24.443   9.167  -0.351  0.00  0.00     0.183 C 
HETATM   13  C   UNK N   1      21.795  18.611   2.661  0.00  0.00     0.183 C 
HETATM   14  C   UNK N   1      20.483  12.977   1.261  0.00  0.00     0.183 C 
HETATM   15  C   UNK N   1      32.226  10.902   3.989  0.00  0.00     0.204 C 
HETATM   16  C   UNK N   1      32.811  16.543   5.186  0.00  0.00     0.204 C 
HETATM   17  C   UNK N   1      28.120   7.409   1.145  0.00  0.00     0.204 C 
HETATM   18  C   UNK N   1      27.403  16.845   5.876  0.00  0.00     0.204 C 
HETATM   19  C   UNK N   1      23.120   9.939  -0.592  0.00  0.00     0.204 C 
HETATM   20  C   UNK N   1      22.782  19.521   3.438  0.00  0.00     0.204 C 
HETATM   21  C   UNK N   1      19.957  14.424   1.539  0.00  0.00     0.204 C 
HETATM   22  C   UNK N   1      31.365  13.068   4.931  0.00  0.00     0.187 C 
HETATM   23  C   UNK N   1      29.427   9.276   2.136  0.00  0.00     0.187 C 
HETATM   24  C   UNK N   1      30.331  17.116   5.133  0.00  0.00     0.187 C 
HETATM   25  C   UNK N   1      25.022   9.579   1.006  0.00  0.00     0.187 C 
HETATM   26  C   UNK N   1      25.825  18.723   5.399  0.00  0.00     0.187 C 
HETATM   27  C   UNK N   1      22.013  12.860   1.500  0.00  0.00     0.187 C 
HETATM   28  C   UNK N   1      21.408  17.345   3.467  0.00  0.00     0.187 C 
HETATM   29  C   UNK N   1      30.750  10.693   3.530  0.00  0.00     0.292 C 
HETATM   30  C   UNK N   1      32.235  15.298   4.464  0.00  0.00     0.292 C 
HETATM   31  C   UNK N   1      27.172   8.513   0.585  0.00  0.00     0.292 C 
HETATM   32  C   UNK N   1      28.447  17.862   6.354  0.00  0.00     0.292 C 
HETATM   33  C   UNK N   1      23.161  11.413  -0.069  0.00  0.00     0.292 C 
HETATM   34  C   UNK N   1      23.977  18.663   3.871  0.00  0.00     0.292 C 
HETATM   35  C   UNK N   1      21.025  15.253   2.273  0.00  0.00     0.292 C 
HETATM   36  O   UNK N   1      30.211  11.903   3.037  0.00  0.00    -0.348 OA
HETATM   37  O   UNK N   1      31.402  15.677   3.371  0.00  0.00    -0.348 OA
HETATM   38  O   UNK N   1      27.893   9.652   0.158  0.00  0.00    -0.348 OA
HETATM   39  O   UNK N   1      27.812  19.036   6.850  0.00  0.00    -0.348 OA
HETATM   40  O   UNK N   1      24.487  11.873   0.063  0.00  0.00    -0.348 OA
HETATM   41  O   UNK N   1      23.460  17.690   4.760  0.00  0.00    -0.348 OA
HETATM   42  O   UNK N   1      22.143  15.387   1.397  0.00  0.00    -0.348 OA
HETATM   43  O   UNK N   1      31.561  14.422   5.377  0.00  0.00    -0.348 OA
HETATM   44  O   UNK N   1      30.732   9.698   2.515  0.00  0.00    -0.348 OA
HETATM   45  O   UNK N   1      29.385  18.175   5.324  0.00  0.00    -0.348 OA
HETATM   46  O   UNK N   1      26.150   8.848   1.525  0.00  0.00    -0.348 OA
HETATM   47  O   UNK N   1      24.990  19.450   4.490  0.00  0.00    -0.348 OA
HETATM   48  O   UNK N   1      22.490  11.547   1.170  0.00  0.00    -0.348 OA
HETATM   49  O   UNK N   1      20.538  16.530   2.644  0.00  0.00    -0.348 OA
ENDROOT
BRANCH   1  50
HETATM   50  C   UNK N   1      28.816  12.676   4.872  0.00  0.00     0.198 C 
BRANCH  50  51
HETATM   51  O   UNK N   1      27.777  13.493   4.431  0.00  0.00    -0.398 OA
HETATM   52  H   UNK N   1      27.761  14.459   4.514  0.00  0.00     0.209 HD
ENDBRANCH  50  51
ENDBRANCH   1  50
BRANCH   8  53
HETATM   53  O   UNK N   1      33.723  12.505   4.977  0.00  0.00    -0.390 OA
HETATM   54  H   UNK N   1      33.746  13.011   5.803  0.00  0.00     0.210 HD
ENDBRANCH   8  53
BRANCH  15  55
HETATM   55  O   UNK N   1      33.135  10.405   3.049  0.00  0.00    -0.388 OA
HETATM   56  H   UNK N   1      33.152  10.354   2.080  0.00  0.00     0.210 HD
ENDBRANCH  15  55
BRANCH  16  57
HETATM   57  O   UNK N   1      33.665  17.201   4.293  0.00  0.00    -0.388 OA
HETATM   58  H   UNK N   1      33.919  17.833   3.603  0.00  0.00     0.210 HD
ENDBRANCH  16  57
BRANCH   9  59
HETATM   59  O   UNK N   1      31.697  17.658   7.029  0.00  0.00    -0.390 OA
HETATM   60  H   UNK N   1      31.895  17.271   7.897  0.00  0.00     0.210 HD
ENDBRANCH   9  59
BRANCH   3  61
HETATM   61  C   UNK N   1      29.109  16.298   3.083  0.00  0.00     0.198 C 
BRANCH  61  62
HETATM   62  O   UNK N   1      29.252  15.223   2.207  0.00  0.00    -0.398 OA
HETATM   63  H   UNK N   1      29.070  14.904   1.309  0.00  0.00     0.209 HD
ENDBRANCH  61  62
ENDBRANCH   3  61
BRANCH   2  64
HETATM   64  C   UNK N   1      29.758  11.066   0.357  0.00  0.00     0.198 C 
BRANCH  64  65
HETATM   65  O   UNK N   1      29.502  12.434   0.478  0.00  0.00    -0.398 OA
HETATM   66  H   UNK N   1      28.683  12.951   0.517  0.00  0.00     0.209 HD
ENDBRANCH  64  65
ENDBRANCH   2  64
BRANCH  10  67
HETATM   67  O   UNK N   1      30.260   7.015   2.165  0.00  0.00    -0.390 OA
HETATM   68  H   UNK N   1      30.824   6.267   1.914  0.00  0.00     0.210 HD
ENDBRANCH  10  67
BRANCH  17  69
HETATM   69  O   UNK N   1      28.206   6.327   0.263  0.00  0.00    -0.388 OA
HETATM   70  H   UNK N   1      29.048   6.040  -0.126  0.00  0.00     0.210 HD
ENDBRANCH  17  69
BRANCH  18  71
HETATM   71  O   UNK N   1      26.611  16.438   6.955  0.00  0.00    -0.388 OA
HETATM   72  H   UNK N   1      26.114  16.441   7.788  0.00  0.00     0.210 HD
ENDBRANCH  18  71
BRANCH  11  73
HETATM   73  O   UNK N   1      25.667  16.494   4.333  0.00  0.00    -0.390 OA
HETATM   74  H   UNK N   1      25.953  15.847   3.669  0.00  0.00     0.210 HD
ENDBRANCH  11  73
BRANCH   5  75
HETATM   75  C   UNK N   1      26.341  20.893   6.549  0.00  0.00     0.198 C 
BRANCH  75  76
HETATM   76  O   UNK N   1      26.312  20.744   7.937  0.00  0.00    -0.398 OA
HETATM   77  H   UNK N   1      27.121  20.556   8.438  0.00  0.00     0.209 HD
ENDBRANCH  75  76
ENDBRANCH   5  75
BRANCH   4  78
HETATM   78  C   UNK N   1      25.488  11.687   2.340  0.00  0.00     0.198 C 
BRANCH  78  79
HETATM   79  O   UNK N   1      24.667  11.051   3.274  0.00  0.00    -0.398 OA
HETATM   80  H   UNK N   1      24.645  10.388   3.982  0.00  0.00     0.209 HD
ENDBRANCH  78  79
ENDBRANCH   4  78
BRANCH  12  81
HETATM   81  O   UNK N   1      24.202   7.791  -0.413  0.00  0.00    -0.390 OA
HETATM   82  H   UNK N   1      24.735   7.108   0.024  0.00  0.00     0.210 HD
ENDBRANCH  12  81
BRANCH  19  83
HETATM   83  O   UNK N   1      22.846   9.909  -1.963  0.00  0.00    -0.388 OA
HETATM   84  H   UNK N   1      23.242   9.865  -2.848  0.00  0.00     0.210 HD
ENDBRANCH  19  83
BRANCH  20  85
HETATM   85  O   UNK N   1      23.202  20.572   2.621  0.00  0.00    -0.388 OA
HETATM   86  H   UNK N   1      23.562  20.949   1.803  0.00  0.00     0.210 HD
ENDBRANCH  20  85
BRANCH  13  87
HETATM   87  O   UNK N   1      20.646  19.334   2.328  0.00  0.00    -0.390 OA
HETATM   88  H   UNK N   1      19.850  19.289   2.879  0.00  0.00     0.210 HD
ENDBRANCH  13  87
BRANCH   7  89
HETATM   89  C   UNK N   1      22.517  15.547   5.010  0.00  0.00     0.198 C 
BRANCH  89  90
HETATM   90  O   UNK N   1      23.424  14.518   4.765  0.00  0.00    -0.398 OA
HETATM   91  H   UNK N   1      23.449  13.565   4.579  0.00  0.00     0.209 HD
ENDBRANCH  89  90
ENDBRANCH   7  89
BRANCH   6  92
HETATM   92  C   UNK N   1      24.198  14.250   1.199  0.00  0.00     0.198 C 
BRANCH  92  93
HETATM   93  O   UNK N   1      24.493  15.312   2.050  0.00  0.00    -0.398 OA
HETATM   94  H   UNK N   1      24.775  16.241   2.077  0.00  0.00     0.209 HD
ENDBRANCH  92  93
ENDBRANCH   6  92
BRANCH  14  95
HETATM   95  O   UNK N   1      19.843  12.047   2.087  0.00  0.00    -0.390 OA
HETATM   96  H   UNK N   1      19.478  11.180   2.326  0.00  0.00     0.210 HD
ENDBRANCH  14  95
BRANCH  21  97
HETATM   97  O   UNK N   1      18.758  14.395   2.262  0.00  0.00    -0.388 OA
HETATM   98  H   UNK N   1      18.251  13.768   2.802  0.00  0.00     0.210 HD
ENDBRANCH  21  97
TORSDOF 28
ENDMDL
MODEL 2
REMARK VINA RESULT:      -6.4      1.349      8.277
REMARK  28 active torsions:
REMARK  status: ('A' for Active; 'I' for Inactive)
REMARK    1  A    between atoms: C_8  and  C_1 
REMARK    2  A    between atoms: O_43  and  C_1 
REMARK    3  A    between atoms: C_9  and  C_2 
REMARK    4  A    between atoms: O_44  and  C_2 
REMARK    5  A    between atoms: C_10  and  C_3 
REMARK    6  A    between atoms: O_45  and  C_3 
REMARK    7  A    between atoms: C_11  and  C_4 
REMARK    8  A    between atoms: O_46  and  C_4 
REMARK    9  A    between atoms: C_12  and  C_5 
REMARK   10  A    between atoms: O_47  and  C_5 
REMARK   11  A    between atoms: C_13  and  C_6 
REMARK   12  A    between atoms: O_48  and  C_6 
REMARK   13  A    between atoms: C_14  and  C_7 
REMARK   14  A    between atoms: O_49  and  C_7 
REMARK   15  A    between atoms: C_15  and  O_50 
REMARK   16  A    between atoms: C_16  and  O_51 
REMARK   17  A    between atoms: C_17  and  O_52 
REMARK   18  A    between atoms: C_18  and  O_53 
REMARK   19  A    between atoms: C_19  and  O_54 
REMARK   20  A    between atoms: C_20  and  O_55 
REMARK   21  A    between atoms: C_21  and  O_56 
REMARK   22  A    between atoms: C_22  and  O_57 
REMARK   23  A    between atoms: C_23  and  O_58 
REMARK   24  A    between atoms: C_24  and  O_59 
REMARK   25  A    between atoms: C_25  and  O_60 
REMARK   26  A    between atoms: C_26  and  O_61 
REMARK   27  A    between atoms: C_27  and  O_62 
REMARK   28  A    between atoms: C_28  and  O_63 
ROOT
HETATM    1  C   UNK N   1      23.084  14.146   1.955  0.00  0.00     0.180 C 
HETATM    2  C   UNK N   1      24.586  10.297   1.594  0.00  0.00     0.180 C 
HETATM    3  C   UNK N   1      22.691  16.124   5.253  0.00  0.00     0.180 C 
HETATM    4  C   UNK N   1      27.988  10.760   2.325  0.00  0.00     0.180 C 
HETATM    5  C   UNK N   1      26.071  19.830   6.156  0.00  0.00     0.180 C 
HETATM    6  C   UNK N   1      30.576  12.705   4.722  0.00  0.00     0.180 C 
HETATM    7  C   UNK N   1      30.404  16.731   4.857  0.00  0.00     0.180 C 
HETATM    8  C   UNK N   1      20.620  13.883   1.484  0.00  0.00     0.183 C 
HETATM    9  C   UNK N   1      21.352  18.160   4.707  0.00  0.00     0.183 C 
HETATM   10  C   UNK N   1      23.781   9.062  -0.397  0.00  0.00     0.183 C 
HETATM   11  C   UNK N   1      26.559  17.646   5.080  0.00  0.00     0.183 C 
HETATM   12  C   UNK N   1      28.934   8.599   1.552  0.00  0.00     0.183 C 
HETATM   13  C   UNK N   1      31.374  16.819   7.188  0.00  0.00     0.183 C 
HETATM   14  C   UNK N   1      32.791  12.339   3.534  0.00  0.00     0.183 C 
HETATM   15  C   UNK N   1      20.965  12.805   0.437  0.00  0.00     0.204 C 
HETATM   16  C   UNK N   1      20.283  17.155   4.207  0.00  0.00     0.204 C 
HETATM   17  C   UNK N   1      25.215   8.583  -0.687  0.00  0.00     0.204 C 
HETATM   18  C   UNK N   1      25.656  18.089   3.934  0.00  0.00     0.204 C 
HETATM   19  C   UNK N   1      30.258   8.926   2.289  0.00  0.00     0.204 C 
HETATM   20  C   UNK N   1      30.348  17.950   7.458  0.00  0.00     0.204 C 
HETATM   21  C   UNK N   1      33.293  13.457   4.507  0.00  0.00     0.204 C 
HETATM   22  C   UNK N   1      21.768  14.900   1.574  0.00  0.00     0.187 C 
HETATM   23  C   UNK N   1      23.852  10.453   0.219  0.00  0.00     0.187 C 
HETATM   24  C   UNK N   1      22.757  17.554   4.652  0.00  0.00     0.187 C 
HETATM   25  C   UNK N   1      28.297   9.905   1.067  0.00  0.00     0.187 C 
HETATM   26  C   UNK N   1      27.235  18.909   5.688  0.00  0.00     0.187 C 
HETATM   27  C   UNK N   1      31.253  12.401   3.324  0.00  0.00     0.187 C 
HETATM   28  C   UNK N   1      31.739  16.706   5.687  0.00  0.00     0.187 C 
HETATM   29  C   UNK N   1      22.461  12.370   0.524  0.00  0.00     0.292 C 
HETATM   30  C   UNK N   1      20.899  15.848   3.645  0.00  0.00     0.292 C 
HETATM   31  C   UNK N   1      26.175   8.843   0.513  0.00  0.00     0.292 C 
HETATM   32  C   UNK N   1      24.584  19.047   4.471  0.00  0.00     0.292 C 
HETATM   33  C   UNK N   1      30.183  10.233   3.144  0.00  0.00     0.292 C 
HETATM   34  C   UNK N   1      29.144  17.729   6.534  0.00  0.00     0.292 C 
HETATM   35  C   UNK N   1      32.188  14.503   4.740  0.00  0.00     0.292 C 
HETATM   36  O   UNK N   1      23.009  12.732   1.775  0.00  0.00    -0.348 OA
HETATM   37  O   UNK N   1      21.772  15.242   4.594  0.00  0.00    -0.348 OA
HETATM   38  O   UNK N   1      25.462   9.168   1.691  0.00  0.00    -0.348 OA
HETATM   39  O   UNK N   1      25.187  20.177   5.093  0.00  0.00    -0.348 OA
HETATM   40  O   UNK N   1      28.849  10.567   3.454  0.00  0.00    -0.348 OA
HETATM   41  O   UNK N   1      29.633  17.864   5.213  0.00  0.00    -0.348 OA
HETATM   42  O   UNK N   1      31.106  13.847   5.398  0.00  0.00    -0.348 OA
HETATM   43  O   UNK N   1      21.543  16.067   2.383  0.00  0.00    -0.348 OA
HETATM   44  O   UNK N   1      22.529  10.961   0.348  0.00  0.00    -0.348 OA
HETATM   45  O   UNK N   1      23.685  18.383   5.361  0.00  0.00    -0.348 OA
HETATM   46  O   UNK N   1      27.155   9.831   0.191  0.00  0.00    -0.348 OA
HETATM   47  O   UNK N   1      28.099  18.660   6.803  0.00  0.00    -0.348 OA
HETATM   48  O   UNK N   1      30.802  11.324   2.488  0.00  0.00    -0.348 OA
HETATM   49  O   UNK N   1      32.649  15.590   5.522  0.00  0.00    -0.348 OA
ENDROOT
BRANCH   1  50
HETATM   50  C   UNK N   1      24.322  14.711   1.253  0.00  0.00     0.198 C 
BRANCH  50  51
HETATM   51  O   UNK N   1      25.380  14.868   2.146  0.00  0.00    -0.398 OA
HETATM   52  H   UNK N   1      25.940  14.146   2.470  0.00  0.00     0.209 HD
ENDBRANCH  50  51
ENDBRANCH   1  50
BRANCH   8  53
HETATM   53  O   UNK N   1      19.416  14.505   1.139  0.00  0.00    -0.390 OA
HETATM   54  H   UNK N   1      18.620  13.988   0.939  0.00  0.00     0.210 HD
ENDBRANCH   8  53
BRANCH  15  55
HETATM   55  O   UNK N   1      20.101  11.723   0.628  0.00  0.00    -0.388 OA
HETATM   56  H   UNK N   1      20.040  11.007   1.280  0.00  0.00     0.210 HD
ENDBRANCH  15  55
BRANCH  16  57
HETATM   57  O   UNK N   1      19.460  16.812   5.286  0.00  0.00    -0.388 OA
HETATM   58  H   UNK N   1      18.806  16.294   5.779  0.00  0.00     0.210 HD
ENDBRANCH  16  57
BRANCH   9  59
HETATM   59  O   UNK N   1      21.311  19.337   3.957  0.00  0.00    -0.390 OA
HETATM   60  H   UNK N   1      21.779  20.104   3.590  0.00  0.00     0.210 HD
ENDBRANCH   9  59
BRANCH   3  61
HETATM   61  C   UNK N   1      24.070  15.476   5.222  0.00  0.00     0.198 C 
BRANCH  61  62
HETATM   62  O   UNK N   1      24.674  15.539   6.478  0.00  0.00    -0.398 OA
HETATM   63  H   UNK N   1      25.498  15.734   6.950  0.00  0.00     0.209 HD
ENDBRANCH  61  62
ENDBRANCH   3  61
BRANCH   2  64
HETATM   64  C   UNK N   1      23.578  10.113   2.727  0.00  0.00     0.198 C 
BRANCH  64  65
HETATM   65  O   UNK N   1      23.902  10.951   3.797  0.00  0.00    -0.398 OA
HETATM   66  H   UNK N   1      24.704  11.058   4.332  0.00  0.00     0.209 HD
ENDBRANCH  64  65
ENDBRANCH   2  64
BRANCH  10  67
HETATM   67  O   UNK N   1      23.038   9.073  -1.581  0.00  0.00    -0.390 OA
HETATM   68  H   UNK N   1      23.183   9.505  -2.437  0.00  0.00     0.210 HD
ENDBRANCH  10  67
BRANCH  17  69
HETATM   69  O   UNK N   1      25.174   7.223  -1.011  0.00  0.00    -0.388 OA
HETATM   70  H   UNK N   1      24.340   6.749  -1.160  0.00  0.00     0.210 HD
ENDBRANCH  17  69
BRANCH  18  71
HETATM   71  O   UNK N   1      26.407  18.730   2.941  0.00  0.00    -0.388 OA
HETATM   72  H   UNK N   1      27.019  19.334   2.493  0.00  0.00     0.210 HD
ENDBRANCH  18  71
BRANCH  11  73
HETATM   73  O   UNK N   1      27.456  16.717   4.560  0.00  0.00    -0.390 OA
HETATM   74  H   UNK N   1      27.498  15.813   4.913  0.00  0.00     0.210 HD
ENDBRANCH  11  73
BRANCH   5  75
HETATM   75  C   UNK N   1      26.653  21.120   6.725  0.00  0.00     0.198 C 
BRANCH  75  76
HETATM   76  O   UNK N   1      27.835  21.455   6.062  0.00  0.00    -0.398 OA
HETATM   77  H   UNK N   1      28.278  22.302   6.226  0.00  0.00     0.209 HD
ENDBRANCH  75  76
ENDBRANCH   5  75
BRANCH   4  78
HETATM   78  C   UNK N   1      27.759  12.226   1.943  0.00  0.00     0.198 C 
BRANCH  78  79
HETATM   79  O   UNK N   1      28.637  12.649   0.944  0.00  0.00    -0.398 OA
HETATM   80  H   UNK N   1      29.552  12.598   0.624  0.00  0.00     0.209 HD
ENDBRANCH  78  79
ENDBRANCH   4  78
BRANCH  12  81
HETATM   81  O   UNK N   1      29.190   7.725   0.492  0.00  0.00    -0.390 OA
HETATM   82  H   UNK N   1      30.025   7.254   0.343  0.00  0.00     0.210 HD
ENDBRANCH  12  81
BRANCH  19  83
HETATM   83  O   UNK N   1      30.588   7.829   3.092  0.00  0.00    -0.388 OA
HETATM   84  H   UNK N   1      31.043   7.551   3.903  0.00  0.00     0.210 HD
ENDBRANCH  19  83
BRANCH  20  85
HETATM   85  O   UNK N   1      29.952  17.923   8.797  0.00  0.00    -0.388 OA
HETATM   86  H   UNK N   1      29.902  18.280   9.697  0.00  0.00     0.210 HD
ENDBRANCH  20  85
BRANCH  13  87
HETATM   87  O   UNK N   1      32.529  17.036   7.945  0.00  0.00    -0.390 OA
HETATM   88  H   UNK N   1      33.375  16.635   7.692  0.00  0.00     0.210 HD
ENDBRANCH  13  87
BRANCH   7  89
HETATM   89  C   UNK N   1      30.584  16.799   3.341  0.00  0.00     0.198 C 
BRANCH  89  90
HETATM   90  O   UNK N   1      29.684  15.961   2.686  0.00  0.00    -0.398 OA
HETATM   91  H   UNK N   1      29.503  15.018   2.538  0.00  0.00     0.209 HD
ENDBRANCH  89  90
ENDBRANCH   7  89
BRANCH   6  92
HETATM   92  C   UNK N   1      29.070  12.922   4.649  0.00  0.00     0.198 C 
BRANCH  92  93
HETATM   93  O   UNK N   1      28.719  14.187   5.114  0.00  0.00    -0.398 OA
HETATM   94  H   UNK N   1      29.063  15.072   5.317  0.00  0.00     0.209 HD
ENDBRANCH  92  93
ENDBRANCH   6  92
BRANCH  14  95
HETATM   95  O   UNK N   1      33.405  12.455   2.283  0.00  0.00    -0.390 OA
HETATM   96  H   UNK N   1      33.931  12.155   1.525  0.00  0.00     0.210 HD
ENDBRANCH  14  95
BRANCH  21  97
HETATM   97  O   UNK N   1      34.462  14.059   4.025  0.00  0.00    -0.388 OA
HETATM   98  H   UNK N   1      34.731  14.900   3.622  0.00  0.00     0.210 HD
ENDBRANCH  21  97
TORSDOF 28
ENDMDL
MODEL 3
REMARK VINA RESULT:      -6.4      4.481     11.033
REMARK  28 active torsions:
REMARK  status: ('A' for Active; 'I' for Inactive)
REMARK    1  A    between atoms: C_8  and  C_1 
REMARK    2  A    between atoms: O_43  and  C_1 
REMARK    3  A    between atoms: C_9  and  C_2 
REMARK    4  A    between atoms: O_44  and  C_2 
REMARK    5  A    between atoms: C_10  and  C_3 
REMARK    6  A    between atoms: O_45  and  C_3 
REMARK    7  A    between atoms: C_11  and  C_4 
REMARK    8  A    between atoms: O_46  and  C_4 
REMARK    9  A    between atoms: C_12  and  C_5 
REMARK   10  A    between atoms: O_47  and  C_5 
REMARK   11  A    between atoms: C_13  and  C_6 
REMARK   12  A    between atoms: O_48  and  C_6 
REMARK   13  A    between atoms: C_14  and  C_7 
REMARK   14  A    between atoms: O_49  and  C_7 
REMARK   15  A    between atoms: C_15  and  O_50 
REMARK   16  A    between atoms: C_16  and  O_51 
REMARK   17  A    between atoms: C_17  and  O_52 
REMARK   18  A    between atoms: C_18  and  O_53 
REMARK   19  A    between atoms: C_19  and  O_54 
REMARK   20  A    between atoms: C_20  and  O_55 
REMARK   21  A    between atoms: C_21  and  O_56 
REMARK   22  A    between atoms: C_22  and  O_57 
REMARK   23  A    between atoms: C_23  and  O_58 
REMARK   24  A    between atoms: C_24  and  O_59 
REMARK   25  A    between atoms: C_25  and  O_60 
REMARK   26  A    between atoms: C_26  and  O_61 
REMARK   27  A    between atoms: C_27  and  O_62 
REMARK   28  A    between atoms: C_28  and  O_63 
ROOT
HETATM    1  C   UNK N   1      32.964   8.766   3.610  0.00  0.00     0.180 C 
HETATM    2  C   UNK N   1      35.117   7.386   6.874  0.00  0.00     0.180 C 
HETATM    3  C   UNK N   1      29.345  10.123   3.692  0.00  0.00     0.180 C 
HETATM    4  C   UNK N   1      35.717  10.344   8.667  0.00  0.00     0.180 C 
HETATM    5  C   UNK N   1      28.746  15.169   3.306  0.00  0.00     0.180 C 
HETATM    6  C   UNK N   1      34.085  13.831   9.851  0.00  0.00     0.180 C 
HETATM    7  C   UNK N   1      32.606  16.305   7.031  0.00  0.00     0.180 C 
HETATM    8  C   UNK N   1      32.456   6.678   2.290  0.00  0.00     0.183 C 
HETATM    9  C   UNK N   1      28.617  10.355   1.315  0.00  0.00     0.183 C 
HETATM   10  C   UNK N   1      36.894   5.751   6.318  0.00  0.00     0.183 C 
HETATM   11  C   UNK N   1      30.567  14.010   4.534  0.00  0.00     0.183 C 
HETATM   12  C   UNK N   1      37.455   9.580  10.266  0.00  0.00     0.183 C 
HETATM   13  C   UNK N   1      30.974  17.366   8.642  0.00  0.00     0.183 C 
HETATM   14  C   UNK N   1      36.115  15.135  10.644  0.00  0.00     0.183 C 
HETATM   15  C   UNK N   1      33.838   6.124   2.690  0.00  0.00     0.204 C 
HETATM   16  C   UNK N   1      28.936   8.842   1.213  0.00  0.00     0.204 C 
HETATM   17  C   UNK N   1      37.876   6.495   7.241  0.00  0.00     0.204 C 
HETATM   18  C   UNK N   1      31.041  13.478   3.185  0.00  0.00     0.204 C 
HETATM   19  C   UNK N   1      37.254  10.878  11.090  0.00  0.00     0.204 C 
HETATM   20  C   UNK N   1      29.964  17.349   7.465  0.00  0.00     0.204 C 
HETATM   21  C   UNK N   1      35.125  16.346  10.615  0.00  0.00     0.204 C 
HETATM   22  C   UNK N   1      32.517   8.211   2.218  0.00  0.00     0.187 C 
HETATM   23  C   UNK N   1      35.948   6.771   5.698  0.00  0.00     0.187 C 
HETATM   24  C   UNK N   1      29.427  11.023   2.430  0.00  0.00     0.187 C 
HETATM   25  C   UNK N   1      37.194   9.882   8.787  0.00  0.00     0.187 C 
HETATM   26  C   UNK N   1      29.913  15.404   4.308  0.00  0.00     0.187 C 
HETATM   27  C   UNK N   1      35.654  13.986   9.706  0.00  0.00     0.187 C 
HETATM   28  C   UNK N   1      32.443  17.396   8.152  0.00  0.00     0.187 C 
HETATM   29  C   UNK N   1      34.509   6.986   3.804  0.00  0.00     0.292 C 
HETATM   30  C   UNK N   1      30.087   8.402   2.154  0.00  0.00     0.292 C 
HETATM   31  C   UNK N   1      37.152   7.528   8.157  0.00  0.00     0.292 C 
HETATM   32  C   UNK N   1      29.840  13.344   2.239  0.00  0.00     0.292 C 
HETATM   33  C   UNK N   1      36.072  11.761  10.573  0.00  0.00     0.292 C 
HETATM   34  C   UNK N   1      30.340  16.187   6.535  0.00  0.00     0.292 C 
HETATM   35  C   UNK N   1      34.143  16.210   9.438  0.00  0.00     0.292 C 
HETATM   36  O   UNK N   1      33.542   7.779   4.463  0.00  0.00    -0.348 OA
HETATM   37  O   UNK N   1      29.821   8.783   3.502  0.00  0.00    -0.348 OA
HETATM   38  O   UNK N   1      35.751   7.334   8.158  0.00  0.00    -0.348 OA
HETATM   39  O   UNK N   1      29.189  14.600   2.076  0.00  0.00    -0.348 OA
HETATM   40  O   UNK N   1      35.160  11.002   9.812  0.00  0.00    -0.348 OA
HETATM   41  O   UNK N   1      31.626  16.492   6.027  0.00  0.00    -0.348 OA
HETATM   42  O   UNK N   1      33.353  15.045   9.669  0.00  0.00    -0.348 OA
HETATM   43  O   UNK N   1      31.357   8.885   1.698  0.00  0.00    -0.348 OA
HETATM   44  O   UNK N   1      35.139   6.111   4.729  0.00  0.00    -0.348 OA
HETATM   45  O   UNK N   1      28.929  12.341   2.687  0.00  0.00    -0.348 OA
HETATM   46  O   UNK N   1      37.506   8.868   7.812  0.00  0.00    -0.348 OA
HETATM   47  O   UNK N   1      29.388  16.027   5.487  0.00  0.00    -0.348 OA
HETATM   48  O   UNK N   1      36.533  12.855   9.802  0.00  0.00    -0.348 OA
HETATM   49  O   UNK N   1      33.311  17.348   9.312  0.00  0.00    -0.348 OA
ENDROOT
BRANCH   1  50
HETATM   50  C   UNK N   1      33.884   9.985   3.499  0.00  0.00     0.198 C 
BRANCH  50  51
HETATM   51  O   UNK N   1      33.372  10.922   2.604  0.00  0.00    -0.398 OA
HETATM   52  H   UNK N   1      33.861  11.688   2.267  0.00  0.00     0.209 HD
ENDBRANCH  50  51
ENDBRANCH   1  50
BRANCH   8  53
HETATM   53  O   UNK N   1      32.064   6.126   1.065  0.00  0.00    -0.390 OA
HETATM   54  H   UNK N   1      31.139   6.148   0.775  0.00  0.00     0.210 HD
ENDBRANCH   8  53
BRANCH  15  55
HETATM   55  O   UNK N   1      33.673   4.796   3.094  0.00  0.00    -0.388 OA
HETATM   56  H   UNK N   1      32.906   4.224   3.258  0.00  0.00     0.210 HD
ENDBRANCH  15  55
BRANCH  16  57
HETATM   57  O   UNK N   1      27.789   8.123   1.571  0.00  0.00    -0.388 OA
HETATM   58  H   UNK N   1      27.258   7.482   2.066  0.00  0.00     0.210 HD
ENDBRANCH  16  57
BRANCH   9  59
HETATM   59  O   UNK N   1      28.865  10.994   0.098  0.00  0.00    -0.390 OA
HETATM   60  H   UNK N   1      28.531  11.304  -0.760  0.00  0.00     0.210 HD
ENDBRANCH   9  59
BRANCH   3  61
HETATM   61  C   UNK N   1      30.137  10.746   4.835  0.00  0.00     0.198 C 
BRANCH  61  62
HETATM   62  O   UNK N   1      30.277   9.843   5.889  0.00  0.00    -0.398 OA
HETATM   63  H   UNK N   1      30.877   9.211   6.315  0.00  0.00     0.209 HD
ENDBRANCH  61  62
ENDBRANCH   3  61
BRANCH   2  64
HETATM   64  C   UNK N   1      33.799   6.635   7.055  0.00  0.00     0.198 C 
BRANCH  64  65
HETATM   65  O   UNK N   1      32.746   7.544   7.195  0.00  0.00    -0.398 OA
HETATM   66  H   UNK N   1      32.473   8.321   6.683  0.00  0.00     0.209 HD
ENDBRANCH  64  65
ENDBRANCH   2  64
BRANCH  10  67
HETATM   67  O   UNK N   1      37.604   5.059   5.333  0.00  0.00    -0.390 OA
HETATM   68  H   UNK N   1      38.177   5.359   4.610  0.00  0.00     0.210 HD
ENDBRANCH  10  67
BRANCH  17  69
HETATM   69  O   UNK N   1      38.573   5.552   8.002  0.00  0.00    -0.388 OA
HETATM   70  H   UNK N   1      39.387   5.128   7.686  0.00  0.00     0.210 HD
ENDBRANCH  17  69
BRANCH  18  71
HETATM   71  O   UNK N   1      31.989  14.343   2.626  0.00  0.00    -0.388 OA
HETATM   72  H   UNK N   1      32.761  14.680   2.144  0.00  0.00     0.210 HD
ENDBRANCH  18  71
BRANCH  11  73
HETATM   73  O   UNK N   1      31.674  14.031   5.378  0.00  0.00    -0.390 OA
HETATM   74  H   UNK N   1      31.724  14.659   6.117  0.00  0.00     0.210 HD
ENDBRANCH  11  73
BRANCH   5  75
HETATM   75  C   UNK N   1      28.080  16.505   2.995  0.00  0.00     0.198 C 
BRANCH  75  76
HETATM   76  O   UNK N   1      28.937  17.562   3.306  0.00  0.00    -0.398 OA
HETATM   77  H   UNK N   1      28.732  18.470   3.035  0.00  0.00     0.209 HD
ENDBRANCH  75  76
ENDBRANCH   5  75
BRANCH   4  78
HETATM   78  C   UNK N   1      35.480  11.068   7.339  0.00  0.00     0.198 C 
BRANCH  78  79
HETATM   79  O   UNK N   1      36.607  11.780   6.923  0.00  0.00    -0.398 OA
HETATM   80  H   UNK N   1      37.501  12.059   7.177  0.00  0.00     0.209 HD
ENDBRANCH  78  79
ENDBRANCH   4  78
BRANCH  12  81
HETATM   81  O   UNK N   1      38.748   9.089  10.472  0.00  0.00    -0.390 OA
HETATM   82  H   UNK N   1      39.282   8.622   9.810  0.00  0.00     0.210 HD
ENDBRANCH  12  81
BRANCH  19  83
HETATM   83  O   UNK N   1      37.053  10.516  12.426  0.00  0.00    -0.388 OA
HETATM   84  H   UNK N   1      36.482  10.639  13.201  0.00  0.00     0.210 HD
ENDBRANCH  19  83
BRANCH  20  85
HETATM   85  O   UNK N   1      28.666  17.186   7.953  0.00  0.00    -0.388 OA
HETATM   86  H   UNK N   1      27.906  16.661   8.248  0.00  0.00     0.210 HD
ENDBRANCH  20  85
BRANCH  13  87
HETATM   87  O   UNK N   1      30.723  18.468   9.465  0.00  0.00    -0.390 OA
HETATM   88  H   UNK N   1      31.109  18.527  10.352  0.00  0.00     0.210 HD
ENDBRANCH  13  87
BRANCH   7  89
HETATM   89  C   UNK N   1      33.956  16.310   6.314  0.00  0.00     0.198 C 
BRANCH  89  90
HETATM   90  O   UNK N   1      34.562  17.563   6.387  0.00  0.00    -0.398 OA
HETATM   91  H   UNK N   1      34.343  18.499   6.519  0.00  0.00     0.209 HD
ENDBRANCH  89  90
ENDBRANCH   7  89
BRANCH   6  92
HETATM   92  C   UNK N   1      33.469  12.822   8.890  0.00  0.00     0.198 C 
BRANCH  92  93
HETATM   93  O   UNK N   1      32.333  12.230   9.438  0.00  0.00    -0.398 OA
HETATM   94  H   UNK N   1      31.924  11.940  10.268  0.00  0.00     0.209 HD
ENDBRANCH  92  93
ENDBRANCH   6  92
BRANCH  14  95
HETATM   95  O   UNK N   1      37.398  15.529  10.249  0.00  0.00    -0.390 OA
HETATM   96  H   UNK N   1      38.365  15.472  10.202  0.00  0.00     0.210 HD
ENDBRANCH  14  95
BRANCH  21  97
HETATM   97  O   UNK N   1      35.817  17.563  10.554  0.00  0.00    -0.388 OA
HETATM   98  H   UNK N   1      36.658  17.902  10.210  0.00  0.00     0.210 HD
ENDBRANCH  21  97
TORSDOF 28
ENDMDL
MODEL 4
REMARK VINA RESULT:      -6.1      6.683     13.118
REMARK  28 active torsions:
REMARK  status: ('A' for Active; 'I' for Inactive)
REMARK    1  A    between atoms: C_8  and  C_1 
REMARK    2  A    between atoms: O_43  and  C_1 
REMARK    3  A    between atoms: C_9  and  C_2 
REMARK    4  A    between atoms: O_44  and  C_2 
REMARK    5  A    between atoms: C_10  and  C_3 
REMARK    6  A    between atoms: O_45  and  C_3 
REMARK    7  A    between atoms: C_11  and  C_4 
REMARK    8  A    between atoms: O_46  and  C_4 
REMARK    9  A    between atoms: C_12  and  C_5 
REMARK   10  A    between atoms: O_47  and  C_5 
REMARK   11  A    between atoms: C_13  and  C_6 
REMARK   12  A    between atoms: O_48  and  C_6 
REMARK   13  A    between atoms: C_14  and  C_7 
REMARK   14  A    between atoms: O_49  and  C_7 
REMARK   15  A    between atoms: C_15  and  O_50 
REMARK   16  A    between atoms: C_16  and  O_51 
REMARK   17  A    between atoms: C_17  and  O_52 
REMARK   18  A    between atoms: C_18  and  O_53 
REMARK   19  A    between atoms: C_19  and  O_54 
REMARK   20  A    between atoms: C_20  and  O_55 
REMARK   21  A    between atoms: C_21  and  O_56 
REMARK   22  A    between atoms: C_22  and  O_57 
REMARK   23  A    between atoms: C_23  and  O_58 
REMARK   24  A    between atoms: C_24  and  O_59 
REMARK   25  A    between atoms: C_25  and  O_60 
REMARK   26  A    between atoms: C_26  and  O_61 
REMARK   27  A    between atoms: C_27  and  O_62 
REMARK   28  A    between atoms: C_28  and  O_63 
ROOT
HETATM    1  C   UNK N   1      35.452  13.088  10.494  0.00  0.00     0.180 C 
HETATM    2  C   UNK N   1      33.018  14.669   7.532  0.00  0.00     0.180 C 
HETATM    3  C   UNK N   1      34.364  10.563  13.212  0.00  0.00     0.180 C 
HETATM    4  C   UNK N   1      32.471  11.888   5.462  0.00  0.00     0.180 C 
HETATM    5  C   UNK N   1      35.851   5.726  12.619  0.00  0.00     0.180 C 
HETATM    6  C   UNK N   1      31.752   7.925   5.443  0.00  0.00     0.180 C 
HETATM    7  C   UNK N   1      34.349   5.500   7.350  0.00  0.00     0.180 C 
HETATM    8  C   UNK N   1      35.853  15.030  12.052  0.00  0.00     0.183 C 
HETATM    9  C   UNK N   1      36.248  10.420  14.846  0.00  0.00     0.183 C 
HETATM   10  C   UNK N   1      33.743  16.878   6.675  0.00  0.00     0.183 C 
HETATM   11  C   UNK N   1      35.148   7.265  10.802  0.00  0.00     0.183 C 
HETATM   12  C   UNK N   1      31.516  12.981   3.448  0.00  0.00     0.183 C 
HETATM   13  C   UNK N   1      32.592   3.730   7.755  0.00  0.00     0.183 C 
HETATM   14  C   UNK N   1      32.184   7.309   3.017  0.00  0.00     0.183 C 
HETATM   15  C   UNK N   1      35.878  15.968  10.829  0.00  0.00     0.204 C 
HETATM   16  C   UNK N   1      36.047  11.949  15.002  0.00  0.00     0.204 C 
HETATM   17  C   UNK N   1      33.508  16.402   5.231  0.00  0.00     0.204 C 
HETATM   18  C   UNK N   1      36.376   8.106  11.137  0.00  0.00     0.204 C 
HETATM   19  C   UNK N   1      31.066  11.594   2.920  0.00  0.00     0.204 C 
HETATM   20  C   UNK N   1      33.240   3.557   9.153  0.00  0.00     0.204 C 
HETATM   21  C   UNK N   1      32.161   5.846   3.571  0.00  0.00     0.204 C 
HETATM   22  C   UNK N   1      36.358  13.638  11.644  0.00  0.00     0.187 C 
HETATM   23  C   UNK N   1      34.207  15.688   7.506  0.00  0.00     0.187 C 
HETATM   24  C   UNK N   1      35.755   9.929  13.481  0.00  0.00     0.187 C 
HETATM   25  C   UNK N   1      32.804  12.812   4.261  0.00  0.00     0.187 C 
HETATM   26  C   UNK N   1      35.477   5.775  11.109  0.00  0.00     0.187 C 
HETATM   27  C   UNK N   1      32.522   8.344   4.125  0.00  0.00     0.187 C 
HETATM   28  C   UNK N   1      33.595   4.279   6.709  0.00  0.00     0.187 C 
HETATM   29  C   UNK N   1      35.387  15.249   9.535  0.00  0.00     0.292 C 
HETATM   30  C   UNK N   1      35.536  12.627  13.705  0.00  0.00     0.292 C 
HETATM   31  C   UNK N   1      32.703  15.068   5.177  0.00  0.00     0.292 C 
HETATM   32  C   UNK N   1      36.714   7.943  12.624  0.00  0.00     0.292 C 
HETATM   33  C   UNK N   1      31.310  10.435   3.942  0.00  0.00     0.292 C 
HETATM   34  C   UNK N   1      33.888   4.892   9.544  0.00  0.00     0.292 C 
HETATM   35  C   UNK N   1      32.787   5.793   4.976  0.00  0.00     0.292 C 
HETATM   36  O   UNK N   1      34.651  14.088   9.866  0.00  0.00    -0.348 OA
HETATM   37  O   UNK N   1      34.349  11.998  13.230  0.00  0.00    -0.348 OA
HETATM   38  O   UNK N   1      32.113  14.763   6.426  0.00  0.00    -0.348 OA
HETATM   39  O   UNK N   1      36.951   6.574  12.937  0.00  0.00    -0.348 OA
HETATM   40  O   UNK N   1      31.427  10.928   5.258  0.00  0.00    -0.348 OA
HETATM   41  O   UNK N   1      34.911   5.124   8.593  0.00  0.00    -0.348 OA
HETATM   42  O   UNK N   1      31.963   6.569   5.844  0.00  0.00    -0.348 OA
HETATM   43  O   UNK N   1      36.557  12.682  12.699  0.00  0.00    -0.348 OA
HETATM   44  O   UNK N   1      34.573  16.153   8.801  0.00  0.00    -0.348 OA
HETATM   45  O   UNK N   1      35.697   8.498  13.458  0.00  0.00    -0.348 OA
HETATM   46  O   UNK N   1      33.509  13.994   4.689  0.00  0.00    -0.348 OA
HETATM   47  O   UNK N   1      34.406   4.854  10.871  0.00  0.00    -0.348 OA
HETATM   48  O   UNK N   1      32.466   9.685   3.616  0.00  0.00    -0.348 OA
HETATM   49  O   UNK N   1      32.890   4.465   5.457  0.00  0.00    -0.348 OA
ENDROOT
BRANCH   1  50
HETATM   50  C   UNK N   1      36.234  12.290   9.447  0.00  0.00     0.198 C 
BRANCH  50  51
HETATM   51  O   UNK N   1      37.088  11.369  10.050  0.00  0.00    -0.398 OA
HETATM   52  H   UNK N   1      38.048  11.475  10.126  0.00  0.00     0.209 HD
ENDBRANCH  50  51
ENDBRANCH   1  50
BRANCH   8  53
HETATM   53  O   UNK N   1      36.634  15.574  13.078  0.00  0.00    -0.390 OA
HETATM   54  H   UNK N   1      36.424  15.413  14.011  0.00  0.00     0.210 HD
ENDBRANCH   8  53
BRANCH  15  55
HETATM   55  O   UNK N   1      35.096  17.089  11.125  0.00  0.00    -0.388 OA
HETATM   56  H   UNK N   1      34.761  17.487  11.944  0.00  0.00     0.210 HD
ENDBRANCH  15  55
BRANCH  16  57
HETATM   57  O   UNK N   1      35.096  12.170  16.005  0.00  0.00    -0.388 OA
HETATM   58  H   UNK N   1      34.770  12.362  16.898  0.00  0.00     0.210 HD
ENDBRANCH  16  57
BRANCH   9  59
HETATM   59  O   UNK N   1      37.590  10.079  15.019  0.00  0.00    -0.390 OA
HETATM   60  H   UNK N   1      38.252   9.412  15.262  0.00  0.00     0.210 HD
ENDBRANCH   9  59
BRANCH   3  61
HETATM   61  C   UNK N   1      33.828  10.104  11.863  0.00  0.00     0.198 C 
BRANCH  61  62
HETATM   62  O   UNK N   1      33.487  11.198  11.068  0.00  0.00    -0.398 OA
HETATM   63  H   UNK N   1      33.724  11.705  10.275  0.00  0.00     0.209 HD
ENDBRANCH  61  62
ENDBRANCH   3  61
BRANCH   2  64
HETATM   64  C   UNK N   1      32.150  14.885   8.771  0.00  0.00     0.198 C 
BRANCH  64  65
HETATM   65  O   UNK N   1      32.004  13.683   9.468  0.00  0.00    -0.398 OA
HETATM   66  H   UNK N   1      31.948  13.470  10.412  0.00  0.00     0.209 HD
ENDBRANCH  64  65
ENDBRANCH   2  64
BRANCH  10  67
HETATM   67  O   UNK N   1      34.696  17.901   6.686  0.00  0.00    -0.390 OA
HETATM   68  H   UNK N   1      34.632  18.849   6.877  0.00  0.00     0.210 HD
ENDBRANCH  10  67
BRANCH  17  69
HETATM   69  O   UNK N   1      32.845  17.415   4.530  0.00  0.00    -0.388 OA
HETATM   70  H   UNK N   1      32.066  17.242   3.978  0.00  0.00     0.210 HD
ENDBRANCH  17  69
BRANCH  18  71
HETATM   71  O   UNK N   1      37.467   7.708  10.357  0.00  0.00    -0.388 OA
HETATM   72  H   UNK N   1      38.299   7.721   9.858  0.00  0.00     0.210 HD
ENDBRANCH  18  71
BRANCH  11  73
HETATM   73  O   UNK N   1      34.832   7.513   9.469  0.00  0.00    -0.390 OA
HETATM   74  H   UNK N   1      34.620   8.411   9.166  0.00  0.00     0.210 HD
ENDBRANCH  11  73
BRANCH   5  75
HETATM   75  C   UNK N   1      36.235   4.297  12.990  0.00  0.00     0.198 C 
BRANCH  75  76
HETATM   76  O   UNK N   1      36.810   3.646  11.897  0.00  0.00    -0.398 OA
HETATM   77  H   UNK N   1      37.769   3.656  11.756  0.00  0.00     0.209 HD
ENDBRANCH  75  76
ENDBRANCH   5  75
BRANCH   4  78
HETATM   78  C   UNK N   1      33.751  11.315   6.078  0.00  0.00     0.198 C 
BRANCH  78  79
HETATM   79  O   UNK N   1      34.744  11.105   5.120  0.00  0.00    -0.398 OA
HETATM   80  H   UNK N   1      35.610  11.407   4.803  0.00  0.00     0.209 HD
ENDBRANCH  78  79
ENDBRANCH   4  78
BRANCH  12  81
HETATM   81  O   UNK N   1      31.696  13.857   2.373  0.00  0.00    -0.390 OA
HETATM   82  H   UNK N   1      31.041  14.034   1.680  0.00  0.00     0.210 HD
ENDBRANCH  12  81
BRANCH  19  83
HETATM   83  O   UNK N   1      29.711  11.678   2.585  0.00  0.00    -0.388 OA
HETATM   84  H   UNK N   1      29.039  12.217   2.137  0.00  0.00     0.210 HD
ENDBRANCH  19  83
BRANCH  20  85
HETATM   85  O   UNK N   1      32.268   3.192  10.087  0.00  0.00    -0.388 OA
HETATM   86  H   UNK N   1      31.590   3.376  10.755  0.00  0.00     0.210 HD
ENDBRANCH  20  85
BRANCH  13  87
HETATM   87  O   UNK N   1      32.070   2.509   7.321  0.00  0.00    -0.390 OA
HETATM   88  H   UNK N   1      31.477   2.463   6.555  0.00  0.00     0.210 HD
ENDBRANCH  13  87
BRANCH   7  89
HETATM   89  C   UNK N   1      35.500   6.061   6.515  0.00  0.00     0.198 C 
BRANCH  89  90
HETATM   90  O   UNK N   1      35.511   7.454   6.540  0.00  0.00    -0.398 OA
HETATM   91  H   UNK N   1      35.022   8.204   6.915  0.00  0.00     0.209 HD
ENDBRANCH  89  90
ENDBRANCH   7  89
BRANCH   6  92
HETATM   92  C   UNK N   1      32.090   8.778   6.659  0.00  0.00     0.198 C 
BRANCH  92  93
HETATM   93  O   UNK N   1      30.941   9.132   7.364  0.00  0.00    -0.398 OA
HETATM   94  H   UNK N   1      30.611   9.646   8.117  0.00  0.00     0.209 HD
ENDBRANCH  92  93
ENDBRANCH   6  92
BRANCH  14  95
HETATM   95  O   UNK N   1      33.131   7.441   1.996  0.00  0.00    -0.390 OA
HETATM   96  H   UNK N   1      33.870   7.856   1.524  0.00  0.00     0.210 HD
ENDBRANCH  14  95
BRANCH  21  97
HETATM   97  O   UNK N   1      32.811   4.965   2.697  0.00  0.00    -0.388 OA
HETATM   98  H   UNK N   1      33.602   4.953   2.136  0.00  0.00     0.210 HD
ENDBRANCH  21  97
TORSDOF 28
ENDMDL
MODEL 5
REMARK VINA RESULT:      -6.1      2.128      8.872
REMARK  28 active torsions:
REMARK  status: ('A' for Active; 'I' for Inactive)
REMARK    1  A    between atoms: C_8  and  C_1 
REMARK    2  A    between atoms: O_43  and  C_1 
REMARK    3  A    between atoms: C_9  and  C_2 
REMARK    4  A    between atoms: O_44  and  C_2 
REMARK    5  A    between atoms: C_10  and  C_3 
REMARK    6  A    between atoms: O_45  and  C_3 
REMARK    7  A    between atoms: C_11  and  C_4 
REMARK    8  A    between atoms: O_46  and  C_4 
REMARK    9  A    between atoms: C_12  and  C_5 
REMARK   10  A    between atoms: O_47  and  C_5 
REMARK   11  A    between atoms: C_13  and  C_6 
REMARK   12  A    between atoms: O_48  and  C_6 
REMARK   13  A    between atoms: C_14  and  C_7 
REMARK   14  A    between atoms: O_49  and  C_7 
REMARK   15  A    between atoms: C_15  and  O_50 
REMARK   16  A    between atoms: C_16  and  O_51 
REMARK   17  A    between atoms: C_17  and  O_52 
REMARK   18  A    between atoms: C_18  and  O_53 
REMARK   19  A    between atoms: C_19  and  O_54 
REMARK   20  A    between atoms: C_20  and  O_55 
REMARK   21  A    between atoms: C_21  and  O_56 
REMARK   22  A    between atoms: C_22  and  O_57 
REMARK   23  A    between atoms: C_23  and  O_58 
REMARK   24  A    between atoms: C_24  and  O_59 
REMARK   25  A    between atoms: C_25  and  O_60 
REMARK   26  A    between atoms: C_26  and  O_61 
REMARK   27  A    between atoms: C_27  and  O_62 
REMARK   28  A    between atoms: C_28  and  O_63 
ROOT
HETATM    1  C   UNK N   1      26.548  12.071   2.106  0.00  0.00     0.180 C 
HETATM    2  C   UNK N   1      29.046   8.761   2.159  0.00  0.00     0.180 C 
HETATM    3  C   UNK N   1      25.247  13.978   5.207  0.00  0.00     0.180 C 
HETATM    4  C   UNK N   1      32.089  10.150   3.222  0.00  0.00     0.180 C 
HETATM    5  C   UNK N   1      27.391  18.487   6.229  0.00  0.00     0.180 C 
HETATM    6  C   UNK N   1      33.760  12.800   5.754  0.00  0.00     0.180 C 
HETATM    7  C   UNK N   1      32.514  16.633   5.609  0.00  0.00     0.180 C 
HETATM    8  C   UNK N   1      24.317  11.137   1.389  0.00  0.00     0.183 C 
HETATM    9  C   UNK N   1      23.494  15.557   4.389  0.00  0.00     0.183 C 
HETATM   10  C   UNK N   1      28.845   7.289   0.177  0.00  0.00     0.183 C 
HETATM   11  C   UNK N   1      28.567  16.482   5.355  0.00  0.00     0.183 C 
HETATM   12  C   UNK N   1      33.659   8.300   2.698  0.00  0.00     0.183 C 
HETATM   13  C   UNK N   1      33.136  17.057   8.020  0.00  0.00     0.183 C 
HETATM   14  C   UNK N   1      36.120  13.008   4.839  0.00  0.00     0.183 C 
HETATM   15  C   UNK N   1      25.060  10.157   0.458  0.00  0.00     0.204 C 
HETATM   16  C   UNK N   1      22.798  14.284   3.842  0.00  0.00     0.204 C 
HETATM   17  C   UNK N   1      30.378   7.206   0.075  0.00  0.00     0.204 C 
HETATM   18  C   UNK N   1      27.725  16.626   4.092  0.00  0.00     0.204 C 
HETATM   19  C   UNK N   1      34.751   8.997   3.551  0.00  0.00     0.204 C 
HETATM   20  C   UNK N   1      31.822  17.877   8.105  0.00  0.00     0.204 C 
HETATM   21  C   UNK N   1      36.186  14.251   5.786  0.00  0.00     0.204 C 
HETATM   22  C   UNK N   1      25.136  12.428   1.536  0.00  0.00     0.187 C 
HETATM   23  C   UNK N   1      28.470   8.667   0.706  0.00  0.00     0.187 C 
HETATM   24  C   UNK N   1      25.006  15.352   4.525  0.00  0.00     0.187 C 
HETATM   25  C   UNK N   1      32.764   9.369   2.063  0.00  0.00     0.187 C 
HETATM   26  C   UNK N   1      28.805  17.900   5.950  0.00  0.00     0.187 C 
HETATM   27  C   UNK N   1      34.658  12.644   4.460  0.00  0.00     0.187 C 
HETATM   28  C   UNK N   1      33.697  16.996   6.578  0.00  0.00     0.187 C 
HETATM   29  C   UNK N   1      26.595  10.146   0.733  0.00  0.00     0.292 C 
HETATM   30  C   UNK N   1      23.801  13.174   3.435  0.00  0.00     0.292 C 
HETATM   31  C   UNK N   1      31.082   7.755   1.353  0.00  0.00     0.292 C 
HETATM   32  C   UNK N   1      26.380  17.276   4.446  0.00  0.00     0.292 C 
HETATM   33  C   UNK N   1      34.229  10.263   4.307  0.00  0.00     0.292 C 
HETATM   34  C   UNK N   1      30.841  17.308   7.072  0.00  0.00     0.292 C 
HETATM   35  C   UNK N   1      34.824  14.967   5.830  0.00  0.00     0.292 C 
HETATM   36  O   UNK N   1      26.871  10.685   2.011  0.00  0.00    -0.348 OA
HETATM   37  O   UNK N   1      24.681  12.859   4.511  0.00  0.00    -0.348 OA
HETATM   38  O   UNK N   1      30.170   7.914   2.423  0.00  0.00    -0.348 OA
HETATM   39  O   UNK N   1      26.584  18.547   5.055  0.00  0.00    -0.348 OA
HETATM   40  O   UNK N   1      32.827  10.235   4.448  0.00  0.00    -0.348 OA
HETATM   41  O   UNK N   1      31.434  17.526   5.805  0.00  0.00    -0.348 OA
HETATM   42  O   UNK N   1      33.883  14.065   6.408  0.00  0.00    -0.348 OA
HETATM   43  O   UNK N   1      24.513  13.518   2.239  0.00  0.00    -0.348 OA
HETATM   44  O   UNK N   1      27.054   8.803   0.657  0.00  0.00    -0.348 OA
HETATM   45  O   UNK N   1      25.588  16.424   5.275  0.00  0.00    -0.348 OA
HETATM   46  O   UNK N   1      31.797   8.960   1.076  0.00  0.00    -0.348 OA
HETATM   47  O   UNK N   1      29.563  17.931   7.165  0.00  0.00    -0.348 OA
HETATM   48  O   UNK N   1      34.613  11.459   3.652  0.00  0.00    -0.348 OA
HETATM   49  O   UNK N   1      34.883  16.164   6.585  0.00  0.00    -0.348 OA
ENDROOT
BRANCH   1  50
HETATM   50  C   UNK N   1      27.667  12.926   1.506  0.00  0.00     0.198 C 
BRANCH  50  51
HETATM   51  O   UNK N   1      27.461  14.279   1.766  0.00  0.00    -0.398 OA
HETATM   52  H   UNK N   1      26.693  14.641   2.232  0.00  0.00     0.209 HD
ENDBRANCH  50  51
ENDBRANCH   1  50
BRANCH   8  53
HETATM   53  O   UNK N   1      23.042  11.398   0.876  0.00  0.00    -0.390 OA
HETATM   54  H   UNK N   1      22.907  12.041   0.162  0.00  0.00     0.210 HD
ENDBRANCH   8  53
BRANCH  15  55
HETATM   55  O   UNK N   1      24.495   8.889   0.623  0.00  0.00    -0.388 OA
HETATM   56  H   UNK N   1      23.612   8.562   0.856  0.00  0.00     0.210 HD
ENDBRANCH  15  55
BRANCH  16  57
HETATM   57  O   UNK N   1      21.970  13.769   4.846  0.00  0.00    -0.388 OA
HETATM   58  H   UNK N   1      21.340  13.155   5.254  0.00  0.00     0.210 HD
ENDBRANCH  16  57
BRANCH   9  59
HETATM   59  O   UNK N   1      23.235  16.654   3.564  0.00  0.00    -0.390 OA
HETATM   60  H   UNK N   1      23.515  17.226   2.831  0.00  0.00     0.210 HD
ENDBRANCH   9  59
BRANCH   3  61
HETATM   61  C   UNK N   1      26.741  13.726   5.367  0.00  0.00     0.198 C 
BRANCH  61  62
HETATM   62  O   UNK N   1      27.024  12.362   5.284  0.00  0.00    -0.398 OA
HETATM   63  H   UNK N   1      27.733  11.702   5.256  0.00  0.00     0.209 HD
ENDBRANCH  61  62
ENDBRANCH   3  61
BRANCH   2  64
HETATM   64  C   UNK N   1      27.992   8.349   3.185  0.00  0.00     0.198 C 
BRANCH  64  65
HETATM   65  O   UNK N   1      27.856   9.344   4.157  0.00  0.00    -0.398 OA
HETATM   66  H   UNK N   1      28.340  10.166   4.332  0.00  0.00     0.209 HD
ENDBRANCH  64  65
ENDBRANCH   2  64
BRANCH  10  67
HETATM   67  O   UNK N   1      28.275   7.060  -1.079  0.00  0.00    -0.390 OA
HETATM   68  H   UNK N   1      27.677   7.589  -1.630  0.00  0.00     0.210 HD
ENDBRANCH  10  67
BRANCH  17  69
HETATM   69  O   UNK N   1      30.738   5.875  -0.163  0.00  0.00    -0.388 OA
HETATM   70  H   UNK N   1      31.650   5.559  -0.068  0.00  0.00     0.210 HD
ENDBRANCH  17  69
BRANCH  18  71
HETATM   71  O   UNK N   1      28.394  17.412   3.147  0.00  0.00    -0.388 OA
HETATM   72  H   UNK N   1      28.597  17.920   2.345  0.00  0.00     0.210 HD
ENDBRANCH  18  71
BRANCH  11  73
HETATM   73  O   UNK N   1      29.734  15.813   4.996  0.00  0.00    -0.390 OA
HETATM   74  H   UNK N   1      30.124  15.931   4.115  0.00  0.00     0.210 HD
ENDBRANCH  11  73
BRANCH   5  75
HETATM   75  C   UNK N   1      27.538  19.904   6.773  0.00  0.00     0.198 C 
BRANCH  75  76
HETATM   76  O   UNK N   1      27.219  19.941   8.132  0.00  0.00    -0.398 OA
HETATM   77  H   UNK N   1      26.611  19.294   8.521  0.00  0.00     0.209 HD
ENDBRANCH  75  76
ENDBRANCH   5  75
BRANCH   4  78
HETATM   78  C   UNK N   1      31.529  11.486   2.723  0.00  0.00     0.198 C 
BRANCH  78  79
HETATM   79  O   UNK N   1      32.301  12.025   1.693  0.00  0.00    -0.398 OA
HETATM   80  H   UNK N   1      32.543  12.846   1.235  0.00  0.00     0.209 HD
ENDBRANCH  78  79
ENDBRANCH   4  78
BRANCH  12  81
HETATM   81  O   UNK N   1      34.264   7.493   1.730  0.00  0.00    -0.390 OA
HETATM   82  H   UNK N   1      35.109   7.028   1.836  0.00  0.00     0.210 HD
ENDBRANCH  12  81
BRANCH  19  83
HETATM   83  O   UNK N   1      35.259   8.058   4.454  0.00  0.00    -0.388 OA
HETATM   84  H   UNK N   1      35.798   7.939   5.252  0.00  0.00     0.210 HD
ENDBRANCH  19  83
BRANCH  20  85
HETATM   85  O   UNK N   1      31.287  17.789   9.391  0.00  0.00    -0.388 OA
HETATM   86  H   UNK N   1      30.720  18.084  10.121  0.00  0.00     0.210 HD
ENDBRANCH  20  85
BRANCH  13  87
HETATM   87  O   UNK N   1      34.091  17.603   8.882  0.00  0.00    -0.390 OA
HETATM   88  H   UNK N   1      33.854  18.296   9.516  0.00  0.00     0.210 HD
ENDBRANCH  13  87
BRANCH   7  89
HETATM   89  C   UNK N   1      32.853  16.696   4.120  0.00  0.00     0.198 C 
BRANCH  89  90
HETATM   90  O   UNK N   1      31.887  17.409   3.411  0.00  0.00    -0.398 OA
HETATM   91  H   UNK N   1      31.784  18.218   2.886  0.00  0.00     0.209 HD
ENDBRANCH  89  90
ENDBRANCH   7  89
BRANCH   6  92
HETATM   92  C   UNK N   1      32.270  12.600   5.505  0.00  0.00     0.198 C 
BRANCH  92  93
HETATM   93  O   UNK N   1      31.514  13.576   6.151  0.00  0.00    -0.398 OA
HETATM   94  H   UNK N   1      31.302  13.957   7.017  0.00  0.00     0.209 HD
ENDBRANCH  92  93
ENDBRANCH   6  92
BRANCH  14  95
HETATM   95  O   UNK N   1      36.829  13.244   3.656  0.00  0.00    -0.390 OA
HETATM   96  H   UNK N   1      37.557  13.588   3.116  0.00  0.00     0.210 HD
ENDBRANCH  14  95
BRANCH  21  97
HETATM   97  O   UNK N   1      37.204  15.130   5.395  0.00  0.00    -0.388 OA
HETATM   98  H   UNK N   1      37.290  15.983   4.942  0.00  0.00     0.210 HD
ENDBRANCH  21  97
TORSDOF 28
ENDMDL
MODEL 6
REMARK VINA RESULT:      -5.9      6.107     12.554
REMARK  28 active torsions:
REMARK  status: ('A' for Active; 'I' for Inactive)
REMARK    1  A    between atoms: C_8  and  C_1 
REMARK    2  A    between atoms: O_43  and  C_1 
REMARK    3  A    between atoms: C_9  and  C_2 
REMARK    4  A    between atoms: O_44  and  C_2 
REMARK    5  A    between atoms: C_10  and  C_3 
REMARK    6  A    between atoms: O_45  and  C_3 
REMARK    7  A    between atoms: C_11  and  C_4 
REMARK    8  A    between atoms: O_46  and  C_4 
REMARK    9  A    between atoms: C_12  and  C_5 
REMARK   10  A    between atoms: O_47  and  C_5 
REMARK   11  A    between atoms: C_13  and  C_6 
REMARK   12  A    between atoms: O_48  and  C_6 
REMARK   13  A    between atoms: C_14  and  C_7 
REMARK   14  A    between atoms: O_49  and  C_7 
REMARK   15  A    between atoms: C_15  and  O_50 
REMARK   16  A    between atoms: C_16  and  O_51 
REMARK   17  A    between atoms: C_17  and  O_52 
REMARK   18  A    between atoms: C_18  and  O_53 
REMARK   19  A    between atoms: C_19  and  O_54 
REMARK   20  A    between atoms: C_20  and  O_55 
REMARK   21  A    between atoms: C_21  and  O_56 
REMARK   22  A    between atoms: C_22  and  O_57 
REMARK   23  A    between atoms: C_23  and  O_58 
REMARK   24  A    between atoms: C_24  and  O_59 
REMARK   25  A    between atoms: C_25  and  O_60 
REMARK   26  A    between atoms: C_26  and  O_61 
REMARK   27  A    between atoms: C_27  and  O_62 
REMARK   28  A    between atoms: C_28  and  O_63 
ROOT
HETATM    1  C   UNK N   1      34.088   6.822   6.964  0.00  0.00     0.180 C 
HETATM    2  C   UNK N   1      35.513   7.111  10.847  0.00  0.00     0.180 C 
HETATM    3  C   UNK N   1      30.552   7.830   5.767  0.00  0.00     0.180 C 
HETATM    4  C   UNK N   1      35.796  10.584  11.274  0.00  0.00     0.180 C 
HETATM    5  C   UNK N   1      30.140  12.180   3.145  0.00  0.00     0.180 C 
HETATM    6  C   UNK N   1      34.026  14.121  10.511  0.00  0.00     0.180 C 
HETATM    7  C   UNK N   1      33.192  15.056   6.678  0.00  0.00     0.180 C 
HETATM    8  C   UNK N   1      33.816   4.341   6.599  0.00  0.00     0.183 C 
HETATM    9  C   UNK N   1      30.323   6.980   3.429  0.00  0.00     0.183 C 
HETATM   10  C   UNK N   1      37.334   5.523  11.396  0.00  0.00     0.183 C 
HETATM   11  C   UNK N   1      31.654  11.781   5.072  0.00  0.00     0.183 C 
HETATM   12  C   UNK N   1      37.162  10.694  13.344  0.00  0.00     0.183 C 
HETATM   13  C   UNK N   1      31.290  16.583   7.334  0.00  0.00     0.183 C 
HETATM   14  C   UNK N   1      35.879  15.776  11.037  0.00  0.00     0.183 C 
HETATM   15  C   UNK N   1      35.079   4.107   7.453  0.00  0.00     0.204 C 
HETATM   16  C   UNK N   1      30.627   5.593   4.051  0.00  0.00     0.204 C 
HETATM   17  C   UNK N   1      38.124   6.654  12.077  0.00  0.00     0.204 C 
HETATM   18  C   UNK N   1      32.380  10.762   4.200  0.00  0.00     0.204 C 
HETATM   19  C   UNK N   1      36.824  12.201  13.475  0.00  0.00     0.204 C 
HETATM   20  C   UNK N   1      30.538  15.997   6.111  0.00  0.00     0.204 C 
HETATM   21  C   UNK N   1      34.939  16.788  10.302  0.00  0.00     0.204 C 
HETATM   22  C   UNK N   1      33.919   5.699   5.889  0.00  0.00     0.187 C 
HETATM   23  C   UNK N   1      36.551   6.114  10.231  0.00  0.00     0.187 C 
HETATM   24  C   UNK N   1      30.905   8.112   4.281  0.00  0.00     0.187 C 
HETATM   25  C   UNK N   1      37.209  10.320  11.858  0.00  0.00     0.187 C 
HETATM   26  C   UNK N   1      31.086  12.899   4.151  0.00  0.00     0.187 C 
HETATM   27  C   UNK N   1      35.594  14.309  10.615  0.00  0.00     0.187 C 
HETATM   28  C   UNK N   1      32.828  16.504   7.169  0.00  0.00     0.187 C 
HETATM   29  C   UNK N   1      35.527   5.404   8.193  0.00  0.00     0.292 C 
HETATM   30  C   UNK N   1      31.556   5.675   5.289  0.00  0.00     0.292 C 
HETATM   31  C   UNK N   1      37.250   7.925  12.305  0.00  0.00     0.292 C 
HETATM   32  C   UNK N   1      31.392  10.156   3.194  0.00  0.00     0.292 C 
HETATM   33  C   UNK N   1      35.787  12.697  12.415  0.00  0.00     0.292 C 
HETATM   34  C   UNK N   1      31.070  14.581   5.861  0.00  0.00     0.292 C 
HETATM   35  C   UNK N   1      34.212  16.097   9.135  0.00  0.00     0.292 C 
HETATM   36  O   UNK N   1      34.463   6.333   8.250  0.00  0.00    -0.348 OA
HETATM   37  O   UNK N   1      31.032   6.573   6.264  0.00  0.00    -0.348 OA
HETATM   38  O   UNK N   1      35.874   7.652  12.123  0.00  0.00    -0.348 OA
HETATM   39  O   UNK N   1      30.810  11.176   2.387  0.00  0.00    -0.348 OA
HETATM   40  O   UNK N   1      35.032  11.625  11.896  0.00  0.00    -0.348 OA
HETATM   41  O   UNK N   1      32.438  14.730   5.526  0.00  0.00    -0.348 OA
HETATM   42  O   UNK N   1      33.369  15.089   9.690  0.00  0.00    -0.348 OA
HETATM   43  O   UNK N   1      32.901   6.006   4.920  0.00  0.00    -0.348 OA
HETATM   44  O   UNK N   1      35.942   5.052   9.505  0.00  0.00    -0.348 OA
HETATM   45  O   UNK N   1      30.390   9.377   3.847  0.00  0.00    -0.348 OA
HETATM   46  O   UNK N   1      37.692   9.013  11.492  0.00  0.00    -0.348 OA
HETATM   47  O   UNK N   1      30.347  13.925   4.823  0.00  0.00    -0.348 OA
HETATM   48  O   UNK N   1      36.415  13.390  11.352  0.00  0.00    -0.348 OA
HETATM   49  O   UNK N   1      33.443  17.014   8.377  0.00  0.00    -0.348 OA
ENDROOT
BRANCH   1  50
HETATM   50  C   UNK N   1      35.034   7.939   6.517  0.00  0.00     0.198 C 
BRANCH  50  51
HETATM   51  O   UNK N   1      34.730   8.371   5.227  0.00  0.00    -0.398 OA
HETATM   52  H   UNK N   1      34.376   7.805   4.525  0.00  0.00     0.209 HD
ENDBRANCH  50  51
ENDBRANCH   1  50
BRANCH   8  53
HETATM   53  O   UNK N   1      33.668   3.296   5.681  0.00  0.00    -0.390 OA
HETATM   54  H   UNK N   1      34.350   2.614   5.580  0.00  0.00     0.210 HD
ENDBRANCH   8  53
BRANCH  15  55
HETATM   55  O   UNK N   1      34.810   3.068   8.349  0.00  0.00    -0.388 OA
HETATM   56  H   UNK N   1      34.975   2.112   8.351  0.00  0.00     0.210 HD
ENDBRANCH  15  55
BRANCH  16  57
HETATM   57  O   UNK N   1      29.418   5.016   4.458  0.00  0.00    -0.388 OA
HETATM   58  H   UNK N   1      28.806   4.554   5.050  0.00  0.00     0.210 HD
ENDBRANCH  16  57
BRANCH   9  59
HETATM   59  O   UNK N   1      30.822   7.058   2.128  0.00  0.00    -0.390 OA
HETATM   60  H   UNK N   1      31.393   7.507   1.484  0.00  0.00     0.210 HD
ENDBRANCH   9  59
BRANCH   3  61
HETATM   61  C   UNK N   1      31.110   8.932   6.658  0.00  0.00     0.198 C 
BRANCH  61  62
HETATM   62  O   UNK N   1      30.510   8.900   7.917  0.00  0.00    -0.398 OA
HETATM   63  H   UNK N   1      30.047   8.340   8.559  0.00  0.00     0.209 HD
ENDBRANCH  61  62
ENDBRANCH   3  61
BRANCH   2  64
HETATM   64  C   UNK N   1      34.171   6.418  11.079  0.00  0.00     0.198 C 
BRANCH  64  65
HETATM   65  O   UNK N   1      33.132   7.209  10.581  0.00  0.00    -0.398 OA
HETATM   66  H   UNK N   1      32.569   7.888  10.984  0.00  0.00     0.209 HD
ENDBRANCH  64  65
ENDBRANCH   2  64
BRANCH  10  67
HETATM   67  O   UNK N   1      38.214   4.529  10.958  0.00  0.00    -0.390 OA
HETATM   68  H   UNK N   1      38.198   3.936  10.191  0.00  0.00     0.210 HD
ENDBRANCH  10  67
BRANCH  17  69
HETATM   69  O   UNK N   1      38.636   6.174  13.287  0.00  0.00    -0.388 OA
HETATM   70  H   UNK N   1      38.575   6.679  14.114  0.00  0.00     0.210 HD
ENDBRANCH  17  69
BRANCH  18  71
HETATM   71  O   UNK N   1      33.437  11.372   3.514  0.00  0.00    -0.388 OA
HETATM   72  H   UNK N   1      34.198  11.514   2.930  0.00  0.00     0.210 HD
ENDBRANCH  18  71
BRANCH  11  73
HETATM   73  O   UNK N   1      32.569  12.236   6.019  0.00  0.00    -0.390 OA
HETATM   74  H   UNK N   1      33.154  11.616   6.483  0.00  0.00     0.210 HD
ENDBRANCH  11  73
BRANCH   5  75
HETATM   75  C   UNK N   1      29.576  13.208   2.170  0.00  0.00     0.198 C 
BRANCH  75  76
HETATM   76  O   UNK N   1      28.396  13.761   2.672  0.00  0.00    -0.398 OA
HETATM   77  H   UNK N   1      28.385  14.235   3.518  0.00  0.00     0.209 HD
ENDBRANCH  75  76
ENDBRANCH   5  75
BRANCH   4  78
HETATM   78  C   UNK N   1      35.846  10.657   9.745  0.00  0.00     0.198 C 
BRANCH  78  79
HETATM   79  O   UNK N   1      37.045  11.205   9.286  0.00  0.00    -0.398 OA
HETATM   80  H   UNK N   1      37.434  11.905   8.737  0.00  0.00     0.209 HD
ENDBRANCH  78  79
ENDBRANCH   4  78
BRANCH  12  81
HETATM   81  O   UNK N   1      38.377  10.427  13.981  0.00  0.00    -0.390 OA
HETATM   82  H   UNK N   1      38.699  10.871  14.781  0.00  0.00     0.210 HD
ENDBRANCH  12  81
BRANCH  19  83
HETATM   83  O   UNK N   1      36.351  12.427  14.772  0.00  0.00    -0.388 OA
HETATM   84  H   UNK N   1      36.279  13.081  15.485  0.00  0.00     0.210 HD
ENDBRANCH  19  83
BRANCH  20  85
HETATM   85  O   UNK N   1      29.165  15.968   6.366  0.00  0.00    -0.388 OA
HETATM   86  H   UNK N   1      28.386  15.969   6.944  0.00  0.00     0.210 HD
ENDBRANCH  20  85
BRANCH  13  87
HETATM   87  O   UNK N   1      30.899  17.909   7.540  0.00  0.00    -0.390 OA
HETATM   88  H   UNK N   1      30.588  18.459   6.804  0.00  0.00     0.210 HD
ENDBRANCH  13  87
BRANCH   7  89
HETATM   89  C   UNK N   1      34.658  14.850   6.299  0.00  0.00     0.198 C 
BRANCH  89  90
HETATM   90  O   UNK N   1      35.267  16.056   5.958  0.00  0.00    -0.398 OA
HETATM   91  H   UNK N   1      35.259  16.997   6.196  0.00  0.00     0.209 HD
ENDBRANCH  89  90
ENDBRANCH   7  89
BRANCH   6  92
HETATM   92  C   UNK N   1      33.597  12.760   9.979  0.00  0.00     0.198 C 
BRANCH  92  93
HETATM   93  O   UNK N   1      32.498  12.872   9.130  0.00  0.00    -0.398 OA
HETATM   94  H   UNK N   1      31.774  12.377   8.715  0.00  0.00     0.209 HD
ENDBRANCH  92  93
ENDBRANCH   6  92
BRANCH  14  95
HETATM   95  O   UNK N   1      37.222  16.054  10.762  0.00  0.00    -0.390 OA
HETATM   96  H   UNK N   1      38.182  15.977  10.877  0.00  0.00     0.210 HD
ENDBRANCH  14  95
BRANCH  21  97
HETATM   97  O   UNK N   1      35.652  17.909   9.857  0.00  0.00    -0.388 OA
HETATM   98  H   UNK N   1      35.696  18.475   9.071  0.00  0.00     0.210 HD
ENDBRANCH  21  97
TORSDOF 28
ENDMDL
MODEL 7
REMARK VINA RESULT:      -5.9      1.868      8.519
REMARK  28 active torsions:
REMARK  status: ('A' for Active; 'I' for Inactive)
REMARK    1  A    between atoms: C_8  and  C_1 
REMARK    2  A    between atoms: O_43  and  C_1 
REMARK    3  A    between atoms: C_9  and  C_2 
REMARK    4  A    between atoms: O_44  and  C_2 
REMARK    5  A    between atoms: C_10  and  C_3 
REMARK    6  A    between atoms: O_45  and  C_3 
REMARK    7  A    between atoms: C_11  and  C_4 
REMARK    8  A    between atoms: O_46  and  C_4 
REMARK    9  A    between atoms: C_12  and  C_5 
REMARK   10  A    between atoms: O_47  and  C_5 
REMARK   11  A    between atoms: C_13  and  C_6 
REMARK   12  A    between atoms: O_48  and  C_6 
REMARK   13  A    between atoms: C_14  and  C_7 
REMARK   14  A    between atoms: O_49  and  C_7 
REMARK   15  A    between atoms: C_15  and  O_50 
REMARK   16  A    between atoms: C_16  and  O_51 
REMARK   17  A    between atoms: C_17  and  O_52 
REMARK   18  A    between atoms: C_18  and  O_53 
REMARK   19  A    between atoms: C_19  and  O_54 
REMARK   20  A    between atoms: C_20  and  O_55 
REMARK   21  A    between atoms: C_21  and  O_56 
REMARK   22  A    between atoms: C_22  and  O_57 
REMARK   23  A    between atoms: C_23  and  O_58 
REMARK   24  A    between atoms: C_24  and  O_59 
REMARK   25  A    between atoms: C_25  and  O_60 
REMARK   26  A    between atoms: C_26  and  O_61 
REMARK   27  A    between atoms: C_27  and  O_62 
REMARK   28  A    between atoms: C_28  and  O_63 
ROOT
HETATM    1  C   UNK N   1      26.434  17.505   4.153  0.00  0.00     0.180 C 
HETATM    2  C   UNK N   1      22.296  17.349   3.925  0.00  0.00     0.180 C 
HETATM    3  C   UNK N   1      28.640  15.562   6.663  0.00  0.00     0.180 C 
HETATM    4  C   UNK N   1      21.746  14.108   2.693  0.00  0.00     0.180 C 
HETATM    5  C   UNK N   1      31.189  11.527   4.878  0.00  0.00     0.180 C 
HETATM    6  C   UNK N   1      22.956  10.274   2.938  0.00  0.00     0.180 C 
HETATM    7  C   UNK N   1      26.844   9.448   2.259  0.00  0.00     0.180 C 
HETATM    8  C   UNK N   1      26.905  19.804   5.078  0.00  0.00     0.183 C 
HETATM    9  C   UNK N   1      30.949  16.490   6.449  0.00  0.00     0.183 C 
HETATM   10  C   UNK N   1      21.242  19.369   2.951  0.00  0.00     0.183 C 
HETATM   11  C   UNK N   1      28.898  12.212   4.210  0.00  0.00     0.183 C 
HETATM   12  C   UNK N   1      19.355  14.253   2.039  0.00  0.00     0.183 C 
HETATM   13  C   UNK N   1      26.777   7.361   3.682  0.00  0.00     0.183 C 
HETATM   14  C   UNK N   1      21.860   9.231   0.898  0.00  0.00     0.183 C 
HETATM   15  C   UNK N   1      25.710  20.343   4.267  0.00  0.00     0.204 C 
HETATM   16  C   UNK N   1      30.287  17.847   6.800  0.00  0.00     0.204 C 
HETATM   17  C   UNK N   1      20.333  18.483   2.081  0.00  0.00     0.204 C 
HETATM   18  C   UNK N   1      29.523  13.473   3.622  0.00  0.00     0.204 C 
HETATM   19  C   UNK N   1      19.309  12.709   1.903  0.00  0.00     0.204 C 
HETATM   20  C   UNK N   1      28.181   7.786   4.184  0.00  0.00     0.204 C 
HETATM   21  C   UNK N   1      22.831   8.043   1.206  0.00  0.00     0.204 C 
HETATM   22  C   UNK N   1      27.527  18.607   4.343  0.00  0.00     0.187 C 
HETATM   23  C   UNK N   1      22.581  18.663   3.123  0.00  0.00     0.187 C 
HETATM   24  C   UNK N   1      29.941  15.525   5.817  0.00  0.00     0.187 C 
HETATM   25  C   UNK N   1      20.761  14.744   1.676  0.00  0.00     0.187 C 
HETATM   26  C   UNK N   1      29.931  11.054   4.094  0.00  0.00     0.187 C 
HETATM   27  C   UNK N   1      22.373  10.569   1.496  0.00  0.00     0.187 C 
HETATM   28  C   UNK N   1      26.465   7.922   2.272  0.00  0.00     0.187 C 
HETATM   29  C   UNK N   1      24.846  19.190   3.669  0.00  0.00     0.292 C 
HETATM   30  C   UNK N   1      28.823  17.952   6.303  0.00  0.00     0.292 C 
HETATM   31  C   UNK N   1      20.363  16.990   2.532  0.00  0.00     0.292 C 
HETATM   32  C   UNK N   1      30.793  13.827   4.408  0.00  0.00     0.292 C 
HETATM   33  C   UNK N   1      20.628  12.008   2.367  0.00  0.00     0.292 C 
HETATM   34  C   UNK N   1      28.280   9.313   4.080  0.00  0.00     0.292 C 
HETATM   35  C   UNK N   1      24.175   8.571   1.736  0.00  0.00     0.292 C 
HETATM   36  O   UNK N   1      25.102  17.978   4.350  0.00  0.00    -0.348 OA
HETATM   37  O   UNK N   1      28.040  16.860   6.778  0.00  0.00    -0.348 OA
HETATM   38  O   UNK N   1      20.962  16.841   3.805  0.00  0.00    -0.348 OA
HETATM   39  O   UNK N   1      31.722  12.748   4.369  0.00  0.00    -0.348 OA
HETATM   40  O   UNK N   1      21.371  12.835   3.234  0.00  0.00    -0.348 OA
HETATM   41  O   UNK N   1      28.177   9.620   2.701  0.00  0.00    -0.348 OA
HETATM   42  O   UNK N   1      23.922   9.222   2.979  0.00  0.00    -0.348 OA
HETATM   43  O   UNK N   1      28.756  18.083   4.876  0.00  0.00    -0.348 OA
HETATM   44  O   UNK N   1      23.476  19.544   3.796  0.00  0.00    -0.348 OA
HETATM   45  O   UNK N   1      30.491  14.204   5.751  0.00  0.00    -0.348 OA
HETATM   46  O   UNK N   1      20.984  16.162   1.548  0.00  0.00    -0.348 OA
HETATM   47  O   UNK N   1      29.500   9.798   4.634  0.00  0.00    -0.348 OA
HETATM   48  O   UNK N   1      21.435  11.632   1.267  0.00  0.00    -0.348 OA
HETATM   49  O   UNK N   1      25.117   7.528   1.913  0.00  0.00    -0.348 OA
ENDROOT
BRANCH   1  50
HETATM   50  C   UNK N   1      26.550  16.773   2.813  0.00  0.00     0.198 C 
BRANCH  50  51
HETATM   51  O   UNK N   1      27.756  16.080   2.721  0.00  0.00    -0.398 OA
HETATM   52  H   UNK N   1      27.967  15.429   2.035  0.00  0.00     0.209 HD
ENDBRANCH  50  51
ENDBRANCH   1  50
BRANCH   8  53
HETATM   53  O   UNK N   1      27.842  20.825   5.271  0.00  0.00    -0.390 OA
HETATM   54  H   UNK N   1      28.683  20.659   5.723  0.00  0.00     0.210 HD
ENDBRANCH   8  53
BRANCH  15  55
HETATM   55  O   UNK N   1      24.956  21.172   5.104  0.00  0.00    -0.388 OA
HETATM   56  H   UNK N   1      24.471  22.003   4.981  0.00  0.00     0.210 HD
ENDBRANCH  15  55
BRANCH  16  57
HETATM   57  O   UNK N   1      30.280  17.989   8.192  0.00  0.00    -0.388 OA
HETATM   58  H   UNK N   1      30.505  17.777   9.111  0.00  0.00     0.210 HD
ENDBRANCH  16  57
BRANCH   9  59
HETATM   59  O   UNK N   1      32.033  16.677   5.590  0.00  0.00    -0.390 OA
HETATM   60  H   UNK N   1      32.836  16.320   5.177  0.00  0.00     0.210 HD
ENDBRANCH   9  59
BRANCH   3  61
HETATM   61  C   UNK N   1      27.602  14.615   6.074  0.00  0.00     0.198 C 
BRANCH  61  62
HETATM   62  O   UNK N   1      26.329  14.914   6.559  0.00  0.00    -0.398 OA
HETATM   63  H   UNK N   1      25.382  14.915   6.348  0.00  0.00     0.209 HD
ENDBRANCH  61  62
ENDBRANCH   3  61
BRANCH   2  64
HETATM   64  C   UNK N   1      22.499  17.574   5.422  0.00  0.00     0.198 C 
BRANCH  64  65
HETATM   65  O   UNK N   1      23.334  16.585   5.947  0.00  0.00    -0.398 OA
HETATM   66  H   UNK N   1      23.785  15.824   5.550  0.00  0.00     0.209 HD
ENDBRANCH  64  65
ENDBRANCH   2  64
BRANCH  10  67
HETATM   67  O   UNK N   1      21.406  20.617   2.344  0.00  0.00    -0.390 OA
HETATM   68  H   UNK N   1      20.778  21.324   2.128  0.00  0.00     0.210 HD
ENDBRANCH  10  67
BRANCH  17  69
HETATM   69  O   UNK N   1      19.032  18.995   2.130  0.00  0.00    -0.388 OA
HETATM   70  H   UNK N   1      18.467  19.055   1.344  0.00  0.00     0.210 HD
ENDBRANCH  17  69
BRANCH  18  71
HETATM   71  O   UNK N   1      29.841  13.276   2.273  0.00  0.00    -0.388 OA
HETATM   72  H   UNK N   1      30.291  12.988   1.464  0.00  0.00     0.210 HD
ENDBRANCH  18  71
BRANCH  11  73
HETATM   73  O   UNK N   1      27.709  11.984   3.522  0.00  0.00    -0.390 OA
HETATM   74  H   UNK N   1      26.881  12.402   3.807  0.00  0.00     0.210 HD
ENDBRANCH  11  73
BRANCH   5  75
HETATM   75  C   UNK N   1      32.274  10.460   4.771  0.00  0.00     0.198 C 
BRANCH  75  76
HETATM   76  O   UNK N   1      32.168   9.550   5.825  0.00  0.00    -0.398 OA
HETATM   77  H   UNK N   1      32.773   8.796   5.899  0.00  0.00     0.209 HD
ENDBRANCH  75  76
ENDBRANCH   5  75
BRANCH   4  78
HETATM   78  C   UNK N   1      23.185  14.180   2.172  0.00  0.00     0.198 C 
BRANCH  78  79
HETATM   79  O   UNK N   1      23.240  14.125   0.778  0.00  0.00    -0.398 OA
HETATM   80  H   UNK N   1      23.247  13.530   0.012  0.00  0.00     0.209 HD
ENDBRANCH  78  79
ENDBRANCH   4  78
BRANCH  12  81
HETATM   81  O   UNK N   1      18.380  14.827   1.217  0.00  0.00    -0.390 OA
HETATM   82  H   UNK N   1      18.538  15.193   0.333  0.00  0.00     0.210 HD
ENDBRANCH  12  81
BRANCH  19  83
HETATM   83  O   UNK N   1      18.216  12.243   2.641  0.00  0.00    -0.388 OA
HETATM   84  H   UNK N   1      17.483  11.608   2.653  0.00  0.00     0.210 HD
ENDBRANCH  19  83
BRANCH  20  85
HETATM   85  O   UNK N   1      28.360   7.371   5.505  0.00  0.00    -0.388 OA
HETATM   86  H   UNK N   1      28.531   7.519   6.448  0.00  0.00     0.210 HD
ENDBRANCH  20  85
BRANCH  13  87
HETATM   87  O   UNK N   1      26.679   5.967   3.673  0.00  0.00    -0.390 OA
HETATM   88  H   UNK N   1      26.612   5.465   4.500  0.00  0.00     0.210 HD
ENDBRANCH  13  87
BRANCH   7  89
HETATM   89  C   UNK N   1      26.759  10.125   0.891  0.00  0.00     0.198 C 
BRANCH  89  90
HETATM   90  O   UNK N   1      26.177  11.387   0.987  0.00  0.00    -0.398 OA
HETATM   91  H   UNK N   1      26.309  12.247   1.419  0.00  0.00     0.209 HD
ENDBRANCH  89  90
ENDBRANCH   7  89
BRANCH   6  92
HETATM   92  C   UNK N   1      23.617  11.477   3.600  0.00  0.00     0.198 C 
BRANCH  92  93
HETATM   93  O   UNK N   1      23.283  11.558   4.950  0.00  0.00    -0.398 OA
HETATM   94  H   UNK N   1      23.571  11.318   5.844  0.00  0.00     0.209 HD
ENDBRANCH  92  93
ENDBRANCH   6  92
BRANCH  14  95
HETATM   95  O   UNK N   1      21.705   9.403  -0.482  0.00  0.00    -0.390 OA
HETATM   96  H   UNK N   1      21.219   9.425  -1.320  0.00  0.00     0.210 HD
ENDBRANCH  14  95
BRANCH  21  97
HETATM   97  O   UNK N   1      23.017   7.237   0.076  0.00  0.00    -0.388 OA
HETATM   98  H   UNK N   1      23.444   7.293  -0.792  0.00  0.00     0.210 HD
ENDBRANCH  21  97
TORSDOF 28
ENDMDL
MODEL 8
REMARK VINA RESULT:      -5.9      3.700     12.891
REMARK  28 active torsions:
REMARK  status: ('A' for Active; 'I' for Inactive)
REMARK    1  A    between atoms: C_8  and  C_1 
REMARK    2  A    between atoms: O_43  and  C_1 
REMARK    3  A    between atoms: C_9  and  C_2 
REMARK    4  A    between atoms: O_44  and  C_2 
REMARK    5  A    between atoms: C_10  and  C_3 
REMARK    6  A    between atoms: O_45  and  C_3 
REMARK    7  A    between atoms: C_11  and  C_4 
REMARK    8  A    between atoms: O_46  and  C_4 
REMARK    9  A    between atoms: C_12  and  C_5 
REMARK   10  A    between atoms: O_47  and  C_5 
REMARK   11  A    between atoms: C_13  and  C_6 
REMARK   12  A    between atoms: O_48  and  C_6 
REMARK   13  A    between atoms: C_14  and  C_7 
REMARK   14  A    between atoms: O_49  and  C_7 
REMARK   15  A    between atoms: C_15  and  O_50 
REMARK   16  A    between atoms: C_16  and  O_51 
REMARK   17  A    between atoms: C_17  and  O_52 
REMARK   18  A    between atoms: C_18  and  O_53 
REMARK   19  A    between atoms: C_19  and  O_54 
REMARK   20  A    between atoms: C_20  and  O_55 
REMARK   21  A    between atoms: C_21  and  O_56 
REMARK   22  A    between atoms: C_22  and  O_57 
REMARK   23  A    between atoms: C_23  and  O_58 
REMARK   24  A    between atoms: C_24  and  O_59 
REMARK   25  A    between atoms: C_25  and  O_60 
REMARK   26  A    between atoms: C_26  and  O_61 
REMARK   27  A    between atoms: C_27  and  O_62 
REMARK   28  A    between atoms: C_28  and  O_63 
ROOT
HETATM    1  C   UNK N   1      29.364  12.249   3.214  0.00  0.00     0.180 C 
HETATM    2  C   UNK N   1      29.647  16.074   4.788  0.00  0.00     0.180 C 
HETATM    3  C   UNK N   1      31.728  10.705   0.572  0.00  0.00     0.180 C 
HETATM    4  C   UNK N   1      32.544  15.850   6.758  0.00  0.00     0.180 C 
HETATM    5  C   UNK N   1      35.134   7.290   2.215  0.00  0.00     0.180 C 
HETATM    6  C   UNK N   1      36.277  14.343   6.914  0.00  0.00     0.180 C 
HETATM    7  C   UNK N   1      36.755  10.365   6.456  0.00  0.00     0.180 C 
HETATM    8  C   UNK N   1      27.318  12.347   1.743  0.00  0.00     0.183 C 
HETATM    9  C   UNK N   1      30.675   8.562  -0.161  0.00  0.00     0.183 C 
HETATM   10  C   UNK N   1      27.508  17.004   5.622  0.00  0.00     0.183 C 
HETATM   11  C   UNK N   1      34.418   9.332   3.433  0.00  0.00     0.183 C 
HETATM   12  C   UNK N   1      32.360  17.928   8.104  0.00  0.00     0.183 C 
HETATM   13  C   UNK N   1      39.111  10.624   5.582  0.00  0.00     0.183 C 
HETATM   14  C   UNK N   1      36.877  14.639   9.364  0.00  0.00     0.183 C 
HETATM   15  C   UNK N   1      26.661  13.292   2.770  0.00  0.00     0.204 C 
HETATM   16  C   UNK N   1      29.463   9.449  -0.545  0.00  0.00     0.204 C 
HETATM   17  C   UNK N   1      28.212  17.498   6.898  0.00  0.00     0.204 C 
HETATM   18  C   UNK N   1      33.030   8.706   3.522  0.00  0.00     0.204 C 
HETATM   19  C   UNK N   1      33.834  17.755   8.555  0.00  0.00     0.204 C 
HETATM   20  C   UNK N   1      38.750   9.497   4.579  0.00  0.00     0.204 C 
HETATM   21  C   UNK N   1      38.059  13.680   9.005  0.00  0.00     0.204 C 
HETATM   22  C   UNK N   1      28.288  11.398   2.463  0.00  0.00     0.187 C 
HETATM   23  C   UNK N   1      28.174  15.710   5.173  0.00  0.00     0.187 C 
HETATM   24  C   UNK N   1      31.514   9.213   0.943  0.00  0.00     0.187 C 
HETATM   25  C   UNK N   1      31.738  16.544   7.888  0.00  0.00     0.187 C 
HETATM   26  C   UNK N   1      35.473   8.188   3.440  0.00  0.00     0.187 C 
HETATM   27  C   UNK N   1      35.688  14.488   8.376  0.00  0.00     0.187 C 
HETATM   28  C   UNK N   1      38.259  10.554   6.873  0.00  0.00     0.187 C 
HETATM   29  C   UNK N   1      27.686  13.795   3.833  0.00  0.00     0.292 C 
HETATM   30  C   UNK N   1      29.312  10.695   0.365  0.00  0.00     0.292 C 
HETATM   31  C   UNK N   1      29.765  17.438   6.772  0.00  0.00     0.292 C 
HETATM   32  C   UNK N   1      32.809   7.784   2.315  0.00  0.00     0.292 C 
HETATM   33  C   UNK N   1      34.563  16.568   7.843  0.00  0.00     0.292 C 
HETATM   34  C   UNK N   1      37.236   9.546   4.336  0.00  0.00     0.292 C 
HETATM   35  C   UNK N   1      37.607  12.630   7.976  0.00  0.00     0.292 C 
HETATM   36  O   UNK N   1      29.008  13.622   3.364  0.00  0.00    -0.348 OA
HETATM   37  O   UNK N   1      30.517  11.455   0.397  0.00  0.00    -0.348 OA
HETATM   38  O   UNK N   1      30.173  17.241   5.432  0.00  0.00    -0.348 OA
HETATM   39  O   UNK N   1      33.808   6.771   2.268  0.00  0.00    -0.348 OA
HETATM   40  O   UNK N   1      33.922  16.224   6.635  0.00  0.00    -0.348 OA
HETATM   41  O   UNK N   1      36.629   9.259   5.583  0.00  0.00    -0.348 OA
HETATM   42  O   UNK N   1      37.267  13.322   6.776  0.00  0.00    -0.348 OA
HETATM   43  O   UNK N   1      28.864  10.339   1.680  0.00  0.00    -0.348 OA
HETATM   44  O   UNK N   1      27.431  15.170   4.086  0.00  0.00    -0.348 OA
HETATM   45  O   UNK N   1      32.760   8.522   1.093  0.00  0.00    -0.348 OA
HETATM   46  O   UNK N   1      30.320  16.456   7.649  0.00  0.00    -0.348 OA
HETATM   47  O   UNK N   1      36.836   8.617   3.333  0.00  0.00    -0.348 OA
HETATM   48  O   UNK N   1      34.643  15.427   8.676  0.00  0.00    -0.348 OA
HETATM   49  O   UNK N   1      38.620  11.674   7.719  0.00  0.00    -0.348 OA
ENDROOT
BRANCH   1  50
HETATM   50  C   UNK N   1      29.767  11.647   4.562  0.00  0.00     0.198 C 
BRANCH  50  51
HETATM   51  O   UNK N   1      28.965  10.554   4.886  0.00  0.00    -0.398 OA
HETATM   52  H   UNK N   1      29.202   9.628   4.725  0.00  0.00     0.209 HD
ENDBRANCH  50  51
ENDBRANCH   1  50
BRANCH   8  53
HETATM   53  O   UNK N   1      26.327  11.636   1.057  0.00  0.00    -0.390 OA
HETATM   54  H   UNK N   1      26.528  10.807   0.596  0.00  0.00     0.210 HD
ENDBRANCH   8  53
BRANCH  15  55
HETATM   55  O   UNK N   1      26.078  14.353   2.071  0.00  0.00    -0.388 OA
HETATM   56  H   UNK N   1      25.967  14.571   1.132  0.00  0.00     0.210 HD
ENDBRANCH  15  55
BRANCH  16  57
HETATM   57  O   UNK N   1      29.642   9.896  -1.859  0.00  0.00    -0.388 OA
HETATM   58  H   UNK N   1      29.417  10.037  -2.792  0.00  0.00     0.210 HD
ENDBRANCH  16  57
BRANCH   9  59
HETATM   59  O   UNK N   1      30.250   7.297   0.247  0.00  0.00    -0.390 OA
HETATM   60  H   UNK N   1      30.220   6.613   0.936  0.00  0.00     0.210 HD
ENDBRANCH   9  59
BRANCH   3  61
HETATM   61  C   UNK N   1      32.561  11.399   1.642  0.00  0.00     0.198 C 
BRANCH  61  62
HETATM   62  O   UNK N   1      32.454  12.785   1.529  0.00  0.00    -0.398 OA
HETATM   63  H   UNK N   1      32.953  13.614   1.458  0.00  0.00     0.209 HD
ENDBRANCH  61  62
ENDBRANCH   3  61
BRANCH   2  64
HETATM   64  C   UNK N   1      29.759  16.364   3.293  0.00  0.00     0.198 C 
BRANCH  64  65
HETATM   65  O   UNK N   1      30.861  17.187   3.046  0.00  0.00    -0.398 OA
HETATM   66  H   UNK N   1      30.983  18.149   3.064  0.00  0.00     0.209 HD
ENDBRANCH  64  65
ENDBRANCH   2  64
BRANCH  10  67
HETATM   67  O   UNK N   1      26.148  16.808   5.879  0.00  0.00    -0.390 OA
HETATM   68  H   UNK N   1      25.630  16.011   6.075  0.00  0.00     0.210 HD
ENDBRANCH  10  67
BRANCH  17  69
HETATM   69  O   UNK N   1      27.782  18.802   7.168  0.00  0.00    -0.388 OA
HETATM   70  H   UNK N   1      26.859  19.010   7.383  0.00  0.00     0.210 HD
ENDBRANCH  17  69
BRANCH  18  71
HETATM   71  O   UNK N   1      32.901   7.972   4.706  0.00  0.00    -0.388 OA
HETATM   72  H   UNK N   1      32.662   7.712   5.610  0.00  0.00     0.210 HD
ENDBRANCH  18  71
BRANCH  11  73
HETATM   73  O   UNK N   1      34.536  10.220   4.498  0.00  0.00    -0.390 OA
HETATM   74  H   UNK N   1      34.998  11.068   4.391  0.00  0.00     0.210 HD
ENDBRANCH  11  73
BRANCH   5  75
HETATM   75  C   UNK N   1      36.101   6.111   2.179  0.00  0.00     0.198 C 
BRANCH  75  76
HETATM   76  O   UNK N   1      37.249   6.442   1.456  0.00  0.00    -0.398 OA
HETATM   77  H   UNK N   1      37.284   7.243   0.911  0.00  0.00     0.209 HD
ENDBRANCH  75  76
ENDBRANCH   5  75
BRANCH   4  78
HETATM   78  C   UNK N   1      32.293  14.339   6.762  0.00  0.00     0.198 C 
BRANCH  78  79
HETATM   79  O   UNK N   1      32.232  13.821   8.057  0.00  0.00    -0.398 OA
HETATM   80  H   UNK N   1      32.492  13.076   8.621  0.00  0.00     0.209 HD
ENDBRANCH  78  79
ENDBRANCH   4  78
BRANCH  12  81
HETATM   81  O   UNK N   1      31.659  18.665   9.063  0.00  0.00    -0.390 OA
HETATM   82  H   UNK N   1      32.032  19.006   9.891  0.00  0.00     0.210 HD
ENDBRANCH  12  81
BRANCH  19  83
HETATM   83  O   UNK N   1      34.503  18.959   8.318  0.00  0.00    -0.388 OA
HETATM   84  H   UNK N   1      35.316  19.460   8.492  0.00  0.00     0.210 HD
ENDBRANCH  19  83
BRANCH  20  85
HETATM   85  O   UNK N   1      39.445   9.683   3.383  0.00  0.00    -0.388 OA
HETATM   86  H   UNK N   1      39.976  10.197   2.755  0.00  0.00     0.210 HD
ENDBRANCH  20  85
BRANCH  13  87
HETATM   87  O   UNK N   1      40.470  10.555   5.902  0.00  0.00    -0.390 OA
HETATM   88  H   UNK N   1      41.022  11.351   5.910  0.00  0.00     0.210 HD
ENDBRANCH  13  87
BRANCH   7  89
HETATM   89  C   UNK N   1      35.789  10.107   7.612  0.00  0.00     0.198 C 
BRANCH  89  90
HETATM   90  O   UNK N   1      34.622  10.856   7.474  0.00  0.00    -0.398 OA
HETATM   91  H   UNK N   1      34.297  11.674   7.064  0.00  0.00     0.209 HD
ENDBRANCH  89  90
ENDBRANCH   7  89
BRANCH   6  92
HETATM   92  C   UNK N   1      35.228  14.057   5.847  0.00  0.00     0.198 C 
BRANCH  92  93
HETATM   93  O   UNK N   1      35.504  12.869   5.173  0.00  0.00    -0.398 OA
HETATM   94  H   UNK N   1      35.535  11.904   5.266  0.00  0.00     0.209 HD
ENDBRANCH  92  93
ENDBRANCH   6  92
BRANCH  14  95
HETATM   95  O   UNK N   1      36.403  14.385  10.655  0.00  0.00    -0.390 OA
HETATM   96  H   UNK N   1      36.141  14.612  11.561  0.00  0.00     0.210 HD
ENDBRANCH  14  95
BRANCH  21  97
HETATM   97  O   UNK N   1      38.579  13.068  10.153  0.00  0.00    -0.388 OA
HETATM   98  H   UNK N   1      38.392  12.297  10.711  0.00  0.00     0.210 HD
ENDBRANCH  21  97
TORSDOF 28
ENDMDL
MODEL 9
REMARK VINA RESULT:      -5.9      2.109      8.750
REMARK  28 active torsions:
REMARK  status: ('A' for Active; 'I' for Inactive)
REMARK    1  A    between atoms: C_8  and  C_1 
REMARK    2  A    between atoms: O_43  and  C_1 
REMARK    3  A    between atoms: C_9  and  C_2 
REMARK    4  A    between atoms: O_44  and  C_2 
REMARK    5  A    between atoms: C_10  and  C_3 
REMARK    6  A    between atoms: O_45  and  C_3 
REMARK    7  A    between atoms: C_11  and  C_4 
REMARK    8  A    between atoms: O_46  and  C_4 
REMARK    9  A    between atoms: C_12  and  C_5 
REMARK   10  A    between atoms: O_47  and  C_5 
REMARK   11  A    between atoms: C_13  and  C_6 
REMARK   12  A    between atoms: O_48  and  C_6 
REMARK   13  A    between atoms: C_14  and  C_7 
REMARK   14  A    between atoms: O_49  and  C_7 
REMARK   15  A    between atoms: C_15  and  O_50 
REMARK   16  A    between atoms: C_16  and  O_51 
REMARK   17  A    between atoms: C_17  and  O_52 
REMARK   18  A    between atoms: C_18  and  O_53 
REMARK   19  A    between atoms: C_19  and  O_54 
REMARK   20  A    between atoms: C_20  and  O_55 
REMARK   21  A    between atoms: C_21  and  O_56 
REMARK   22  A    between atoms: C_22  and  O_57 
REMARK   23  A    between atoms: C_23  and  O_58 
REMARK   24  A    between atoms: C_24  and  O_59 
REMARK   25  A    between atoms: C_25  and  O_60 
REMARK   26  A    between atoms: C_26  and  O_61 
REMARK   27  A    between atoms: C_27  and  O_62 
REMARK   28  A    between atoms: C_28  and  O_63 
ROOT
HETATM    1  C   UNK N   1      26.618  16.308   3.491  0.00  0.00     0.180 C 
HETATM    2  C   UNK N   1      22.659  15.870   4.645  0.00  0.00     0.180 C 
HETATM    3  C   UNK N   1      29.668  14.643   5.184  0.00  0.00     0.180 C 
HETATM    4  C   UNK N   1      21.992  12.542   3.749  0.00  0.00     0.180 C 
HETATM    5  C   UNK N   1      31.802  10.698   2.766  0.00  0.00     0.180 C 
HETATM    6  C   UNK N   1      23.512   8.812   3.683  0.00  0.00     0.180 C 
HETATM    7  C   UNK N   1      27.017   8.208   1.783  0.00  0.00     0.180 C 
HETATM    8  C   UNK N   1      27.184  18.676   4.148  0.00  0.00     0.183 C 
HETATM    9  C   UNK N   1      31.700  15.707   4.197  0.00  0.00     0.183 C 
HETATM   10  C   UNK N   1      21.189  17.764   4.019  0.00  0.00     0.183 C 
HETATM   11  C   UNK N   1      29.372  11.196   2.873  0.00  0.00     0.183 C 
HETATM   12  C   UNK N   1      19.515  12.497   3.916  0.00  0.00     0.183 C 
HETATM   13  C   UNK N   1      27.583   6.197   3.203  0.00  0.00     0.183 C 
HETATM   14  C   UNK N   1      21.895   7.597   2.147  0.00  0.00     0.183 C 
HETATM   15  C   UNK N   1      25.750  19.094   3.762  0.00  0.00     0.204 C 
HETATM   16  C   UNK N   1      31.085  17.035   4.709  0.00  0.00     0.204 C 
HETATM   17  C   UNK N   1      20.118  16.777   3.522  0.00  0.00     0.204 C 
HETATM   18  C   UNK N   1      29.670  12.464   2.079  0.00  0.00     0.204 C 
HETATM   19  C   UNK N   1      19.548  10.948   3.845  0.00  0.00     0.204 C 
HETATM   20  C   UNK N   1      29.036   6.737   3.202  0.00  0.00     0.204 C 
HETATM   21  C   UNK N   1      23.003   6.493   2.150  0.00  0.00     0.204 C 
HETATM   22  C   UNK N   1      27.624  17.487   3.281  0.00  0.00     0.187 C 
HETATM   23  C   UNK N   1      22.562  17.158   3.759  0.00  0.00     0.187 C 
HETATM   24  C   UNK N   1      30.620  14.648   3.958  0.00  0.00     0.187 C 
HETATM   25  C   UNK N   1      20.682  13.059   3.097  0.00  0.00     0.187 C 
HETATM   26  C   UNK N   1      30.398  10.104   2.454  0.00  0.00     0.187 C 
HETATM   27  C   UNK N   1      22.469   8.995   2.507  0.00  0.00     0.187 C 
HETATM   28  C   UNK N   1      26.784   6.664   1.960  0.00  0.00     0.187 C 
HETATM   29  C   UNK N   1      24.832  17.858   3.513  0.00  0.00     0.292 C 
HETATM   30  C   UNK N   1      29.535  17.018   4.721  0.00  0.00     0.292 C 
HETATM   31  C   UNK N   1      20.410  15.315   3.977  0.00  0.00     0.292 C 
HETATM   32  C   UNK N   1      31.095  12.939   2.392  0.00  0.00     0.292 C 
HETATM   33  C   UNK N   1      20.997  10.359   3.866  0.00  0.00     0.292 C 
HETATM   34  C   UNK N   1      28.975   8.261   3.031  0.00  0.00     0.292 C 
HETATM   35  C   UNK N   1      24.402   7.134   2.192  0.00  0.00     0.292 C 
HETATM   36  O   UNK N   1      25.391  16.701   4.104  0.00  0.00    -0.348 OA
HETATM   37  O   UNK N   1      29.039  15.903   5.456  0.00  0.00    -0.348 OA
HETATM   38  O   UNK N   1      21.403  15.271   4.984  0.00  0.00    -0.348 OA
HETATM   39  O   UNK N   1      32.042  11.923   2.078  0.00  0.00    -0.348 OA
HETATM   40  O   UNK N   1      21.915  11.276   4.417  0.00  0.00    -0.348 OA
HETATM   41  O   UNK N   1      28.404   8.489   1.756  0.00  0.00    -0.348 OA
HETATM   42  O   UNK N   1      24.518   7.829   3.432  0.00  0.00    -0.348 OA
HETATM   43  O   UNK N   1      28.996  17.072   3.393  0.00  0.00    -0.348 OA
HETATM   44  O   UNK N   1      23.555  18.128   4.075  0.00  0.00    -0.348 OA
HETATM   45  O   UNK N   1      31.220  13.364   3.749  0.00  0.00    -0.348 OA
HETATM   46  O   UNK N   1      20.739  14.480   2.865  0.00  0.00    -0.348 OA
HETATM   47  O   UNK N   1      30.267   8.852   3.138  0.00  0.00    -0.348 OA
HETATM   48  O   UNK N   1      21.428   9.981   2.572  0.00  0.00    -0.348 OA
HETATM   49  O   UNK N   1      25.428   6.165   2.076  0.00  0.00    -0.348 OA
ENDROOT
BRANCH   1  50
HETATM   50  C   UNK N   1      26.347  15.518   2.208  0.00  0.00     0.198 C 
BRANCH  50  51
HETATM   51  O   UNK N   1      27.527  15.000   1.677  0.00  0.00    -0.398 OA
HETATM   52  H   UNK N   1      28.397  15.067   2.097  0.00  0.00     0.209 HD
ENDBRANCH  50  51
ENDBRANCH   1  50
BRANCH   8  53
HETATM   53  O   UNK N   1      28.049  19.765   3.994  0.00  0.00    -0.390 OA
HETATM   54  H   UNK N   1      28.216  20.157   3.123  0.00  0.00     0.210 HD
ENDBRANCH   8  53
BRANCH  15  55
HETATM   55  O   UNK N   1      25.249  19.914   4.778  0.00  0.00    -0.388 OA
HETATM   56  H   UNK N   1      25.379  19.964   5.738  0.00  0.00     0.210 HD
ENDBRANCH  15  55
BRANCH  16  57
HETATM   57  O   UNK N   1      31.523  17.246   6.022  0.00  0.00    -0.388 OA
HETATM   58  H   UNK N   1      31.442  17.448   6.967  0.00  0.00     0.210 HD
ENDBRANCH  16  57
BRANCH   9  59
HETATM   59  O   UNK N   1      32.426  15.921   3.023  0.00  0.00    -0.390 OA
HETATM   60  H   UNK N   1      32.429  16.146   2.079  0.00  0.00     0.210 HD
ENDBRANCH   9  59
BRANCH   3  61
HETATM   61  C   UNK N   1      28.573  13.601   4.996  0.00  0.00     0.198 C 
BRANCH  61  62
HETATM   62  O   UNK N   1      27.379  14.030   5.575  0.00  0.00    -0.398 OA
HETATM   63  H   UNK N   1      26.480  13.763   5.825  0.00  0.00     0.209 HD
ENDBRANCH  61  62
ENDBRANCH   3  61
BRANCH   2  64
HETATM   64  C   UNK N   1      23.321  16.184   5.985  0.00  0.00     0.198 C 
BRANCH  64  65
HETATM   65  O   UNK N   1      24.392  15.313   6.205  0.00  0.00    -0.398 OA
HETATM   66  H   UNK N   1      24.501  14.358   6.083  0.00  0.00     0.209 HD
ENDBRANCH  64  65
ENDBRANCH   2  64
BRANCH  10  67
HETATM   67  O   UNK N   1      21.047  18.988   3.359  0.00  0.00    -0.390 OA
HETATM   68  H   UNK N   1      20.483  19.759   3.530  0.00  0.00     0.210 HD
ENDBRANCH  10  67
BRANCH  17  69
HETATM   69  O   UNK N   1      18.869  17.206   3.983  0.00  0.00    -0.388 OA
HETATM   70  H   UNK N   1      18.703  18.121   4.258  0.00  0.00     0.210 HD
ENDBRANCH  17  69
BRANCH  18  71
HETATM   71  O   UNK N   1      29.544  12.220   0.706  0.00  0.00    -0.388 OA
HETATM   72  H   UNK N   1      29.749  11.983  -0.212  0.00  0.00     0.210 HD
ENDBRANCH  18  71
BRANCH  11  73
HETATM   73  O   UNK N   1      28.046  10.856   2.622  0.00  0.00    -0.390 OA
HETATM   74  H   UNK N   1      27.325  11.244   3.143  0.00  0.00     0.210 HD
ENDBRANCH  11  73
BRANCH   5  75
HETATM   75  C   UNK N   1      32.872   9.699   2.336  0.00  0.00     0.198 C 
BRANCH  75  76
HETATM   76  O   UNK N   1      32.445   8.974   1.222  0.00  0.00    -0.398 OA
HETATM   77  H   UNK N   1      32.071   8.085   1.316  0.00  0.00     0.209 HD
ENDBRANCH  75  76
ENDBRANCH   5  75
BRANCH   4  78
HETATM   78  C   UNK N   1      23.171  12.680   2.782  0.00  0.00     0.198 C 
BRANCH  78  79
HETATM   79  O   UNK N   1      22.781  12.508   1.452  0.00  0.00    -0.398 OA
HETATM   80  H   UNK N   1      22.825  11.912   0.688  0.00  0.00     0.209 HD
ENDBRANCH  78  79
ENDBRANCH   4  78
BRANCH  12  81
HETATM   81  O   UNK N   1      18.284  12.962   3.447  0.00  0.00    -0.390 OA
HETATM   82  H   UNK N   1      17.690  13.559   3.929  0.00  0.00     0.210 HD
ENDBRANCH  12  81
BRANCH  19  83
HETATM   83  O   UNK N   1      18.797  10.450   4.914  0.00  0.00    -0.388 OA
HETATM   84  H   UNK N   1      17.912  10.416   5.311  0.00  0.00     0.210 HD
ENDBRANCH  19  83
BRANCH  20  85
HETATM   85  O   UNK N   1      29.669   6.403   4.401  0.00  0.00    -0.388 OA
HETATM   86  H   UNK N   1      29.704   6.011   5.287  0.00  0.00     0.210 HD
ENDBRANCH  20  85
BRANCH  13  87
HETATM   87  O   UNK N   1      27.597   4.800   3.264  0.00  0.00    -0.390 OA
HETATM   88  H   UNK N   1      27.883   4.338   4.066  0.00  0.00     0.210 HD
ENDBRANCH  13  87
BRANCH   7  89
HETATM   89  C   UNK N   1      26.437   8.808   0.502  0.00  0.00     0.198 C 
BRANCH  89  90
HETATM   90  O   UNK N   1      25.839  10.043   0.747  0.00  0.00    -0.398 OA
HETATM   91  H   UNK N   1      25.047  10.428   1.154  0.00  0.00     0.209 HD
ENDBRANCH  89  90
ENDBRANCH   7  89
BRANCH   6  92
HETATM   92  C   UNK N   1      24.257  10.087   4.058  0.00  0.00     0.198 C 
BRANCH  92  93
HETATM   93  O   UNK N   1      24.386  10.210   5.439  0.00  0.00    -0.398 OA
HETATM   94  H   UNK N   1      24.924  10.603   6.145  0.00  0.00     0.209 HD
ENDBRANCH  92  93
ENDBRANCH   6  92
BRANCH  14  95
HETATM   95  O   UNK N   1      21.285   7.688   0.892  0.00  0.00    -0.390 OA
HETATM   96  H   UNK N   1      20.583   7.546   0.238  0.00  0.00     0.210 HD
ENDBRANCH  14  95
BRANCH  21  97
HETATM   97  O   UNK N   1      22.873   5.644   1.043  0.00  0.00    -0.388 OA
HETATM   98  H   UNK N   1      23.414   5.330   0.303  0.00  0.00     0.210 HD
ENDBRANCH  21  97
TORSDOF 28
ENDMDL
