REMARK  15 active torsions:
REMARK  status: ('A' for Active; 'I' for Inactive)
REMARK    1  A    between atoms: C_3  and  C_2 
REMARK    2  A    between atoms: C_4  and  C_2 
REMARK    3  A    between atoms: C_5  and  C_3 
REMARK    4  A    between atoms: C_8  and  C_4 
REMARK    5  A    between atoms: C_9  and  C_5 
REMARK    6  A    between atoms: C_10  and  C_6 
REMARK    7  A    between atoms: N_13  and  C_6 
REMARK    8  A    between atoms: C_11  and  C_7 
REMARK    9  A    between atoms: N_14  and  C_7 
REMARK   10  A    between atoms: C_12  and  C_8 
REMARK   11  A    between atoms: C_8  and  N_16 
REMARK   12  A    between atoms: C_9  and  O_18 
REMARK   13  A    between atoms: C_10  and  O_19 
REMARK   14  A    between atoms: O_21  and  C_11 
REMARK   15  A    between atoms: O_23  and  C_12 
ROOT
HETATM    1  C   UNK N   1       3.622  -2.714   1.450  0.00  0.00     0.036 C 
ENDROOT
BRANCH   1   2
HETATM    2  C   UNK N   1       2.142  -2.400   1.276  0.00  0.00     0.003 C 
BRANCH   2   3
HETATM    3  C   UNK N   1       1.940  -1.070   0.569  0.00  0.00     0.008 C 
BRANCH   3   4
HETATM    4  C   UNK N   1       1.218  -1.323  -0.741  0.00  0.00     0.083 C 
BRANCH   4   5
HETATM    5  C   UNK N   1      -0.252  -1.438  -0.509  0.00  0.00     0.111 C 
HETATM    6  N   UNK N   1      -0.943  -0.374  -0.280  0.00  0.00    -0.360 N 
ATOM      7  HN  UNK N   1      -0.455   0.521  -0.251  1.00  0.00     0.162 HD
BRANCH   6   8
HETATM    8  C   UNK N   1      -2.378  -0.380  -0.061  0.00  0.00     0.177 C 
HETATM    9  C   UNK N   1      -2.718  -1.147   1.210  0.00  0.00     0.043 C 
BRANCH   8  10
HETATM   10  C   UNK N   1      -2.879   1.032   0.063  0.00  0.00     0.163 C 
HETATM   11  O   UNK N   1      -4.074   1.243   0.215  0.00  0.00    -0.648 OA
BRANCH  10  12
HETATM   12  O   UNK N   1      -2.026   2.073  -0.001  0.00  0.00    -0.775 OA
HETATM   13  H   UNK N   1      -1.102   1.921  -0.046  0.00  0.00     0.167 HD
ENDBRANCH  10  12
ENDBRANCH   8  10
ENDBRANCH   6   8
BRANCH   5  14
HETATM   14  O   UNK N   1      -0.836  -2.653  -0.561  0.00  0.00    -0.350 OA
HETATM   15  H   UNK N   1      -1.770  -2.723  -0.596  0.00  0.00     0.219 HD
ENDBRANCH   5  14
ENDBRANCH   4   5
ENDBRANCH   3   4
ENDBRANCH   2   3
ENDBRANCH   1   2
BRANCH   1  16
HETATM   16  C   UNK N   1       4.382  -2.881   0.124  0.00  0.00     0.181 C 
BRANCH  16  17
HETATM   17  C   UNK N   1       5.441  -1.814   0.058  0.00  0.00     0.163 C 
HETATM   18  O   UNK N   1       5.117  -0.637   0.038  0.00  0.00    -0.648 OA
BRANCH  17  19
HETATM   19  O   UNK N   1       6.747  -2.143   0.020  0.00  0.00    -0.775 OA
HETATM   20  H   UNK N   1       7.004  -3.044  -0.007  0.00  0.00     0.167 HD
ENDBRANCH  17  19
ENDBRANCH  16  17
BRANCH  16  21
HETATM   21  N   UNK N   1       4.985  -4.199   0.062  0.00  0.00    -0.359 N 
HETATM   22  C   UNK N   1       4.293  -5.286  -0.024  0.00  0.00     0.129 C 
ATOM     23  HN  UNK N   1       6.002  -4.270   0.086  1.00  0.00     0.162 HD
BRANCH  22  24
HETATM   24  C   UNK N   1       5.005  -6.602  -0.081  0.00  0.00     0.195 C 
BRANCH  24  25
HETATM   25  N   UNK N   1       4.060  -7.701  -0.185  0.00  0.00    -0.423 N 
HETATM   26  H   UNK N   1       3.060  -7.513  -0.258  0.00  0.00     0.150 HD
HETATM   27  H   UNK N   1       4.397  -8.664  -0.185  0.00  0.00     0.150 HD
ENDBRANCH  24  25
ENDBRANCH  22  24
BRANCH  22  28
HETATM   28  O   UNK N   1       2.943  -5.242  -0.074  0.00  0.00    -0.348 OA
HETATM   29  H   UNK N   1       2.502  -4.416  -0.109  0.00  0.00     0.219 HD
ENDBRANCH  22  28
ENDBRANCH  16  21
ENDBRANCH   1  16
TORSDOF 15
