REMARK  13 active torsions:
REMARK  status: ('A' for Active; 'I' for Inactive)
REMARK    1  A    between atoms: C_5  and  C_1 
REMARK    2  A    between atoms: O_25  and  C_1 
REMARK    3  A    between atoms: C_6  and  C_2 
REMARK    4  A    between atoms: O_31  and  C_2 
REMARK    5  A    between atoms: C_12  and  C_5 
REMARK    6  A    between atoms: C_5  and  N_14 
REMARK    7  A    between atoms: C_8  and  O_26 
REMARK    8  A    between atoms: C_9  and  O_27 
REMARK    9  A    between atoms: N_15  and  C_10 
REMARK   10  A    between atoms: O_28  and  C_12 
REMARK   11  A    between atoms: C_13  and  N_24 
REMARK   12  A    between atoms: N_22  and  S_33 
REMARK   13  A    between atoms: S_33  and  O_31 
ROOT
HETATM    1  C   UNK N   1       0.257  -1.861  -0.264  0.00  0.00     0.180 C 
HETATM    2  C   UNK N   1       1.712  -2.310  -0.207  0.00  0.00     0.182 C 
HETATM    3  C   UNK N   1       2.350  -0.991  -0.509  0.00  0.00     0.198 C 
HETATM    4  C   UNK N   1       1.521  -0.106   0.422  0.00  0.00     0.262 C 
HETATM    5  O   UNK N   1       0.181  -0.563   0.313  0.00  0.00    -0.353 OA
ENDROOT
BRANCH   1   6
HETATM    6  C   UNK N   1      -0.619  -2.873   0.457  0.00  0.00     0.226 C 
BRANCH   6   7
HETATM    7  O   UNK N   1      -1.955  -2.430   0.541  0.00  0.00    -0.257 OA
BRANCH   7   8
HETATM    8  S   UNK N   1      -3.150  -3.447  -0.266  0.00  0.00     0.363 S 
HETATM    9  O   UNK N   1      -2.462  -2.803  -1.481  0.00  0.00    -0.175 OA
HETATM   10  O   UNK N   1      -2.384  -4.638   0.341  0.00  0.00    -0.175 OA
BRANCH   8  11
HETATM   11  N   UNK N   1      -3.991  -2.445   0.904  0.00  0.00    -0.243 N 
HETATM   12  C   UNK N   1      -5.115  -1.852   0.699  0.00  0.00     0.151 C 
ATOM     13  HN  UNK N   1      -3.555  -2.324   1.818  1.00  0.00     0.182 HD
BRANCH  12  14
HETATM   14  C   UNK N   1      -5.852  -1.951  -0.623  0.00  0.00     0.174 C 
BRANCH  14  15
HETATM   15  C   UNK N   1      -7.167  -1.176  -0.596  0.00  0.00     0.197 C 
BRANCH  15  16
HETATM   16  O   UNK N   1      -8.042  -1.725   0.347  0.00  0.00    -0.398 OA
HETATM   17  H   UNK N   1      -8.675  -1.390   1.001  0.00  0.00     0.209 HD
ENDBRANCH  15  16
ENDBRANCH  14  15
BRANCH  14  18
HETATM   18  N   UNK N   1      -6.137  -3.341  -0.946  0.00  0.00    -0.418 N 
HETATM   19  H   UNK N   1      -7.081  -3.655  -1.172  0.00  0.00     0.150 HD
HETATM   20  H   UNK N   1      -5.374  -4.018  -0.946  0.00  0.00     0.150 HD
ENDBRANCH  14  18
ENDBRANCH  12  14
BRANCH  12  21
HETATM   21  O   UNK N   1      -5.635  -1.111   1.698  0.00  0.00    -0.347 OA
HETATM   22  H   UNK N   1      -5.369  -0.541   2.392  0.00  0.00     0.219 HD
ENDBRANCH  12  21
ENDBRANCH   8  11
ENDBRANCH   7   8
ENDBRANCH   6   7
ENDBRANCH   1   6
BRANCH   2  23
HETATM   23  O   UNK N   1       2.055  -2.718   1.093  0.00  0.00    -0.390 OA
HETATM   24  H   UNK N   1       1.929  -3.063   1.991  0.00  0.00     0.210 HD
ENDBRANCH   2  23
BRANCH   3  25
HETATM   25  O   UNK N   1       3.717  -0.982  -0.226  0.00  0.00    -0.388 OA
HETATM   26  H   UNK N   1       4.197  -1.801  -0.030  0.00  0.00     0.210 HD
ENDBRANCH   3  25
BRANCH   4  27
HETATM   27  N   UNK N   1       1.652   1.319   0.103  0.00  0.00    -0.297 N 
HETATM   28  C   UNK N   1       0.679   2.179  -0.296  0.00  0.00     0.188 A 
HETATM   29  N   UNK N   1       1.166   3.445  -0.448  0.00  0.00    -0.346 N 
HETATM   30  C   UNK N   1       2.469   3.342  -0.125  0.00  0.00     0.122 A 
ATOM     31  HN  UNK N   1       0.659   4.280  -0.740  1.00  0.00     0.167 HD
HETATM   32  C   UNK N   1       3.458   4.313  -0.072  0.00  0.00     0.131 A 
HETATM   33  C   UNK N   1       2.759   2.068   0.200  0.00  0.00     0.142 A 
HETATM   34  N   UNK N   1       4.714   3.929   0.308  0.00  0.00    -0.337 N 
HETATM   35  C   UNK N   1       4.986   2.622   0.631  0.00  0.00     0.183 A 
ATOM     36  HN  UNK N   1       5.460   4.624   0.351  1.00  0.00     0.168 HD
HETATM   37  N   UNK N   1       3.997   1.677   0.585  0.00  0.00    -0.336 N 
ATOM     38  HN  UNK N   1       4.187   0.706   0.833  1.00  0.00     0.168 HD
BRANCH  32  39
HETATM   39  N   UNK N   1       3.183   5.659  -0.385  0.00  0.00    -0.383 N 
HETATM   40  H   UNK N   1       3.902   6.296  -0.604  0.00  0.00     0.157 HD
HETATM   41  H   UNK N   1       2.249   5.971  -0.385  0.00  0.00     0.157 HD
ENDBRANCH  32  39
ENDBRANCH   4  27
TORSDOF 13
