MODEL 1
REMARK VINA RESULT:      -4.7      0.000      0.000
REMARK  1 active torsions:
REMARK  status: ('A' for Active; 'I' for Inactive)
REMARK    1  A    between atoms: C_8  and  N_9 
ROOT
HETATM    1  C   UNK N   1      24.650  13.426   8.180  0.00  0.00     0.046 C 
HETATM    2  C   UNK N   1      23.593  13.038   9.157  0.00  0.00    -0.057 A 
HETATM    3  C   UNK N   1      22.301  13.069   8.788  0.00  0.00     0.005 A 
HETATM    4  C   UNK N   1      21.207  12.691   9.727  0.00  0.00     0.001 A 
HETATM    5  C   UNK N   1      21.455  12.299  10.989  0.00  0.00     0.009 A 
HETATM    6  C   UNK N   1      22.840  12.229  11.494  0.00  0.00    -0.041 A 
HETATM    7  C   UNK N   1      23.081  11.841  12.744  0.00  0.00     0.021 C 
HETATM    8  C   UNK N   1      23.946  12.609  10.554  0.00  0.00     0.136 A 
ENDROOT
BRANCH   8   9
HETATM    9  N   UNK N   1      25.336  12.564  10.983  0.00  0.00    -0.419 N 
HETATM   10  H   UNK N   1      25.924  13.393  10.894  0.00  0.00     0.150 HD
HETATM   11  H   UNK N   1      25.723  11.704  11.373  0.00  0.00     0.150 HD
ENDBRANCH   8   9
TORSDOF 1
ENDMDL
MODEL 2
REMARK VINA RESULT:      -4.6      0.192      2.935
REMARK  1 active torsions:
REMARK  status: ('A' for Active; 'I' for Inactive)
REMARK    1  A    between atoms: C_8  and  N_9 
ROOT
HETATM    1  C   UNK N   1      23.016  11.852  12.750  0.00  0.00     0.046 C 
HETATM    2  C   UNK N   1      22.827  12.262  11.329  0.00  0.00    -0.057 A 
HETATM    3  C   UNK N   1      21.590  12.301  10.806  0.00  0.00     0.005 A 
HETATM    4  C   UNK N   1      21.348  12.703   9.392  0.00  0.00     0.001 A 
HETATM    5  C   UNK N   1      22.353  13.048   8.567  0.00  0.00     0.009 A 
HETATM    6  C   UNK N   1      23.749  13.039   9.043  0.00  0.00    -0.041 A 
HETATM    7  C   UNK N   1      24.741  13.381   8.224  0.00  0.00     0.021 C 
HETATM    8  C   UNK N   1      24.000  12.635  10.466  0.00  0.00     0.136 A 
ENDROOT
BRANCH   8   9
HETATM    9  N   UNK N   1      25.352  12.603  11.004  0.00  0.00    -0.419 N 
HETATM   10  H   UNK N   1      25.518  12.843  11.981  0.00  0.00     0.150 HD
HETATM   11  H   UNK N   1      26.134  12.339  10.404  0.00  0.00     0.150 HD
ENDBRANCH   8   9
TORSDOF 1
ENDMDL
MODEL 3
REMARK VINA RESULT:      -4.3     13.628     14.654
REMARK  1 active torsions:
REMARK  status: ('A' for Active; 'I' for Inactive)
REMARK    1  A    between atoms: C_8  and  N_9 
ROOT
HETATM    1  C   UNK N   1      35.288   9.870  19.357  0.00  0.00     0.046 C 
HETATM    2  C   UNK N   1      35.219  11.009  18.397  0.00  0.00    -0.057 A 
HETATM    3  C   UNK N   1      35.063  10.766  17.085  0.00  0.00     0.005 A 
HETATM    4  C   UNK N   1      34.988  11.868  16.086  0.00  0.00     0.001 A 
HETATM    5  C   UNK N   1      35.074  13.162  16.443  0.00  0.00     0.009 A 
HETATM    6  C   UNK N   1      35.247  13.538  17.860  0.00  0.00    -0.041 A 
HETATM    7  C   UNK N   1      35.332  14.819  18.211  0.00  0.00     0.021 C 
HETATM    8  C   UNK N   1      35.323  12.432  18.872  0.00  0.00     0.136 A 
ENDROOT
BRANCH   8   9
HETATM    9  N   UNK N   1      35.493  12.728  20.287  0.00  0.00    -0.419 N 
HETATM   10  H   UNK N   1      35.557  11.966  20.963  0.00  0.00     0.150 HD
HETATM   11  H   UNK N   1      35.549  13.696  20.603  0.00  0.00     0.150 HD
ENDBRANCH   8   9
TORSDOF 1
ENDMDL
MODEL 4
REMARK VINA RESULT:      -4.3      1.695      3.554
REMARK  1 active torsions:
REMARK  status: ('A' for Active; 'I' for Inactive)
REMARK    1  A    between atoms: C_8  and  N_9 
ROOT
HETATM    1  C   UNK N   1      20.421  13.067  10.482  0.00  0.00     0.046 C 
HETATM    2  C   UNK N   1      21.893  12.830  10.478  0.00  0.00    -0.057 A 
HETATM    3  C   UNK N   1      22.461  12.145  11.485  0.00  0.00     0.005 A 
HETATM    4  C   UNK N   1      23.926  11.882  11.527  0.00  0.00     0.001 A 
HETATM    5  C   UNK N   1      24.757  12.314  10.562  0.00  0.00     0.009 A 
HETATM    6  C   UNK N   1      24.235  13.076   9.411  0.00  0.00    -0.041 A 
HETATM    7  C   UNK N   1      25.059  13.503   8.457  0.00  0.00     0.021 C 
HETATM    8  C   UNK N   1      22.759  13.345   9.362  0.00  0.00     0.136 A 
ENDROOT
BRANCH   8   9
HETATM    9  N   UNK N   1      22.174  14.090   8.257  0.00  0.00    -0.419 N 
HETATM   10  H   UNK N   1      21.174  14.023   8.070  0.00  0.00     0.150 HD
HETATM   11  H   UNK N   1      22.764  14.680   7.670  0.00  0.00     0.150 HD
ENDBRANCH   8   9
TORSDOF 1
ENDMDL
MODEL 5
REMARK VINA RESULT:      -4.3     13.997     14.645
REMARK  1 active torsions:
REMARK  status: ('A' for Active; 'I' for Inactive)
REMARK    1  A    between atoms: C_8  and  N_9 
ROOT
HETATM    1  C   UNK N   1      35.317  15.099  18.249  0.00  0.00     0.046 C 
HETATM    2  C   UNK N   1      35.312  13.642  17.935  0.00  0.00    -0.057 A 
HETATM    3  C   UNK N   1      35.370  13.237  16.655  0.00  0.00     0.005 A 
HETATM    4  C   UNK N   1      35.368  11.793  16.288  0.00  0.00     0.001 A 
HETATM    5  C   UNK N   1      35.308  10.821  17.217  0.00  0.00     0.009 A 
HETATM    6  C   UNK N   1      35.241  11.159  18.651  0.00  0.00    -0.041 A 
HETATM    7  C   UNK N   1      35.182  10.196  19.568  0.00  0.00     0.021 C 
HETATM    8  C   UNK N   1      35.243  12.612  19.028  0.00  0.00     0.136 A 
ENDROOT
BRANCH   8   9
HETATM    9  N   UNK N   1      35.179  13.020  20.423  0.00  0.00    -0.419 N 
HETATM   10  H   UNK N   1      35.362  13.990  20.680  0.00  0.00     0.150 HD
HETATM   11  H   UNK N   1      34.952  12.336  21.145  0.00  0.00     0.150 HD
ENDBRANCH   8   9
TORSDOF 1
ENDMDL
MODEL 6
REMARK VINA RESULT:      -4.3     21.086     22.763
REMARK  1 active torsions:
REMARK  status: ('A' for Active; 'I' for Inactive)
REMARK    1  A    between atoms: C_8  and  N_9 
ROOT
HETATM    1  C   UNK N   1      27.691  30.582  -4.455  0.00  0.00     0.046 C 
HETATM    2  C   UNK N   1      27.368  29.394  -5.296  0.00  0.00    -0.057 A 
HETATM    3  C   UNK N   1      28.036  29.190  -6.444  0.00  0.00     0.005 A 
HETATM    4  C   UNK N   1      27.750  28.019  -7.320  0.00  0.00     0.001 A 
HETATM    5  C   UNK N   1      26.811  27.108  -7.009  0.00  0.00     0.009 A 
HETATM    6  C   UNK N   1      26.020  27.240  -5.770  0.00  0.00    -0.041 A 
HETATM    7  C   UNK N   1      25.091  26.337  -5.465  0.00  0.00     0.021 C 
HETATM    8  C   UNK N   1      26.303  28.417  -4.883  0.00  0.00     0.136 A 
ENDROOT
BRANCH   8   9
HETATM    9  N   UNK N   1      25.562  28.612  -3.646  0.00  0.00    -0.419 N 
HETATM   10  H   UNK N   1      25.219  29.540  -3.397  0.00  0.00     0.150 HD
HETATM   11  H   UNK N   1      25.386  27.821  -3.026  0.00  0.00     0.150 HD
ENDBRANCH   8   9
TORSDOF 1
ENDMDL
MODEL 7
REMARK VINA RESULT:      -4.2     13.258     14.341
REMARK  1 active torsions:
REMARK  status: ('A' for Active; 'I' for Inactive)
REMARK    1  A    between atoms: C_8  and  N_9 
ROOT
HETATM    1  C   UNK N   1      35.350  14.553  18.120  0.00  0.00     0.046 C 
HETATM    2  C   UNK N   1      35.254  13.065  18.114  0.00  0.00    -0.057 A 
HETATM    3  C   UNK N   1      35.337  12.388  19.272  0.00  0.00     0.005 A 
HETATM    4  C   UNK N   1      35.247  10.901  19.320  0.00  0.00     0.001 A 
HETATM    5  C   UNK N   1      35.077  10.161  18.210  0.00  0.00     0.009 A 
HETATM    6  C   UNK N   1      34.974  10.807  16.887  0.00  0.00    -0.041 A 
HETATM    7  C   UNK N   1      34.806  10.072  15.791  0.00  0.00     0.021 C 
HETATM    8  C   UNK N   1      35.064  12.304  16.832  0.00  0.00     0.136 A 
ENDROOT
BRANCH   8   9
HETATM    9  N   UNK N   1      34.970  13.009  15.562  0.00  0.00    -0.419 N 
HETATM   10  H   UNK N   1      35.388  12.607  14.723  0.00  0.00     0.150 HD
HETATM   11  H   UNK N   1      34.487  13.906  15.511  0.00  0.00     0.150 HD
ENDBRANCH   8   9
TORSDOF 1
ENDMDL
MODEL 8
REMARK VINA RESULT:      -4.1      8.825     11.125
REMARK  1 active torsions:
REMARK  status: ('A' for Active; 'I' for Inactive)
REMARK    1  A    between atoms: C_8  and  N_9 
ROOT
HETATM    1  C   UNK N   1      29.462  16.961   6.880  0.00  0.00     0.046 C 
HETATM    2  C   UNK N   1      30.900  17.165   6.541  0.00  0.00    -0.057 A 
HETATM    3  C   UNK N   1      31.313  17.011   5.271  0.00  0.00     0.005 A 
HETATM    4  C   UNK N   1      32.738  17.203   4.881  0.00  0.00     0.001 A 
HETATM    5  C   UNK N   1      33.684  17.540   5.777  0.00  0.00     0.009 A 
HETATM    6  C   UNK N   1      33.335  17.732   7.198  0.00  0.00    -0.041 A 
HETATM    7  C   UNK N   1      34.273  18.065   8.081  0.00  0.00     0.021 C 
HETATM    8  C   UNK N   1      31.901  17.540   7.598  0.00  0.00     0.136 A 
ENDROOT
BRANCH   8   9
HETATM    9  N   UNK N   1      31.484  17.714   8.981  0.00  0.00    -0.419 N 
HETATM   10  H   UNK N   1      31.937  17.177   9.721  0.00  0.00     0.150 HD
HETATM   11  H   UNK N   1      30.740  18.372   9.211  0.00  0.00     0.150 HD
ENDBRANCH   8   9
TORSDOF 1
ENDMDL
MODEL 9
REMARK VINA RESULT:      -4.1     12.798     13.952
REMARK  1 active torsions:
REMARK  status: ('A' for Active; 'I' for Inactive)
REMARK    1  A    between atoms: C_8  and  N_9 
ROOT
HETATM    1  C   UNK N   1      34.658  10.082  14.860  0.00  0.00     0.046 C 
HETATM    2  C   UNK N   1      34.856  10.684  16.209  0.00  0.00    -0.057 A 
HETATM    3  C   UNK N   1      34.904   9.891  17.292  0.00  0.00     0.005 A 
HETATM    4  C   UNK N   1      35.099  10.443  18.662  0.00  0.00     0.001 A 
HETATM    5  C   UNK N   1      35.238  11.762  18.886  0.00  0.00     0.009 A 
HETATM    6  C   UNK N   1      35.201  12.720  17.764  0.00  0.00    -0.041 A 
HETATM    7  C   UNK N   1      35.339  14.025  17.989  0.00  0.00     0.021 C 
HETATM    8  C   UNK N   1      35.004  12.171  16.382  0.00  0.00     0.136 A 
ENDROOT
BRANCH   8   9
HETATM    9  N   UNK N   1      34.957  13.056  15.228  0.00  0.00    -0.419 N 
HETATM   10  H   UNK N   1      35.183  14.045  15.334  0.00  0.00     0.150 HD
HETATM   11  H   UNK N   1      34.697  12.688  14.312  0.00  0.00     0.150 HD
ENDBRANCH   8   9
TORSDOF 1
ENDMDL
