MODEL 1
REMARK VINA RESULT:      -6.5      0.000      0.000
REMARK  24 active torsions:
REMARK  status: ('A' for Active; 'I' for Inactive)
REMARK    1  A    between atoms: C_21  and  C_7 
REMARK    2  A    between atoms: C_22  and  C_8 
REMARK    3  A    between atoms: C_23  and  C_19 
REMARK    4  A    between atoms: O_49  and  C_19 
REMARK    5  A    between atoms: C_24  and  C_20 
REMARK    6  A    between atoms: O_50  and  C_20 
REMARK    7  A    between atoms: C_25  and  C_21 
REMARK    8  A    between atoms: C_26  and  C_22 
REMARK    9  A    between atoms: C_31  and  C_25 
REMARK   10  A    between atoms: C_25  and  N_39 
REMARK   11  A    between atoms: C_32  and  C_26 
REMARK   12  A    between atoms: C_26  and  N_41 
REMARK   13  A    between atoms: C_28  and  C_27 
REMARK   14  A    between atoms: C_29  and  C_27 
REMARK   15  A    between atoms: C_27  and  O_43 
REMARK   16  A    between atoms: C_30  and  C_28 
REMARK   17  A    between atoms: C_28  and  O_44 
REMARK   18  A    between atoms: C_33  and  C_29 
REMARK   19  A    between atoms: C_29  and  O_49 
REMARK   20  A    between atoms: C_34  and  C_30 
REMARK   21  A    between atoms: C_30  and  O_50 
REMARK   22  A    between atoms: O_45  and  C_31 
REMARK   23  A    between atoms: O_46  and  C_32 
REMARK   24  A    between atoms: C_34  and  O_48 
ROOT
HETATM    1  C   UNK N   1      23.831  16.880   5.080  0.00  0.00     0.144 C 
HETATM    2  N   UNK N   1      24.997  17.302   5.451  0.00  0.00    -0.360 N 
ATOM      3  HN  UNK N   1      25.296  17.020   6.385  1.00  0.00     0.162 HD
HETATM    4  O   UNK N   1      23.357  17.130   3.842  0.00  0.00    -0.348 OA
HETATM    5  H   UNK N   1      22.942  17.335   3.027  0.00  0.00     0.219 HD
ENDROOT
BRANCH   1   6
HETATM    6  C   UNK N   1      22.997  16.098   6.084  0.00  0.00     0.227 C 
BRANCH   6   7
HETATM    7  C   UNK N   1      21.809  16.874   6.734  0.00  0.00     0.186 C 
BRANCH   7   8
HETATM    8  C   UNK N   1      20.519  16.010   6.950  0.00  0.00     0.186 C 
BRANCH   8   9
HETATM    9  C   UNK N   1      20.080  15.148   5.729  0.00  0.00     0.227 C 
BRANCH   9  10
HETATM   10  C   UNK N   1      18.860  15.793   5.017  0.00  0.00     0.144 C 
HETATM   11  N   UNK N   1      18.919  16.497   3.925  0.00  0.00    -0.360 N 
ATOM     12  HN  UNK N   1      18.010  16.867   3.650  1.00  0.00     0.162 HD
BRANCH  11  13
HETATM   13  C   UNK N   1      19.983  16.880   3.000  0.00  0.00     0.161 C 
BRANCH  13  14
HETATM   14  C   UNK N   1      20.125  16.002   1.715  0.00  0.00     0.012 C 
HETATM   15  C   UNK N   1      20.071  16.748   0.400  0.00  0.00     0.012 C 
BRANCH  14  16
HETATM   16  C   UNK N   1      21.452  15.234   1.706  0.00  0.00     0.002 C 
HETATM   17  C   UNK N   1      21.413  13.992   0.831  0.00  0.00     0.005 C 
ENDBRANCH  14  16
ENDBRANCH  13  14
BRANCH  13  18
HETATM   18  C   UNK N   1      20.064  18.382   2.796  0.00  0.00     0.134 C 
HETATM   19  N   UNK N   1      21.213  18.962   2.873  0.00  0.00    -0.377 N 
HETATM   20  C   UNK N   1      21.368  20.383   2.693  0.00  0.00     0.148 C 
ATOM     21  HN  UNK N   1      22.040  18.396   3.067  1.00  0.00     0.160 HD
BRANCH  18  22
HETATM   22  O   UNK N   1      18.958  19.108   2.536  0.00  0.00    -0.348 OA
HETATM   23  H   UNK N   1      18.697  20.001   2.426  0.00  0.00     0.219 HD
ENDBRANCH  18  22
ENDBRANCH  13  18
ENDBRANCH  11  13
BRANCH  10  24
HETATM   24  O   UNK N   1      17.640  15.621   5.557  0.00  0.00    -0.348 OA
HETATM   25  H   UNK N   1      17.121  15.496   6.325  0.00  0.00     0.219 HD
ENDBRANCH  10  24
ENDBRANCH   9  10
BRANCH   9  26
HETATM   26  O   UNK N   1      19.980  13.780   6.114  0.00  0.00    -0.370 OA
BRANCH  26  27
HETATM   27  C   UNK N   1      19.905  12.911   5.013  0.00  0.00     0.207 C 
BRANCH  27  28
HETATM   28  C   UNK N   1      21.071  11.990   5.017  0.00  0.00    -0.035 A 
HETATM   29  C   UNK N   1      21.218  11.066   6.054  0.00  0.00     0.009 A 
HETATM   30  C   UNK N   1      22.313  10.196   6.066  0.00  0.00     0.001 A 
HETATM   31  C   UNK N   1      23.259  10.250   5.039  0.00  0.00     0.000 A 
HETATM   32  C   UNK N   1      23.114  11.176   4.000  0.00  0.00     0.001 A 
HETATM   33  C   UNK N   1      22.021  12.048   3.990  0.00  0.00     0.009 A 
ENDBRANCH  27  28
ENDBRANCH  26  27
ENDBRANCH   9  26
ENDBRANCH   8   9
BRANCH   8  34
HETATM   34  O   UNK N   1      19.480  16.878   7.304  0.00  0.00    -0.390 OA
HETATM   35  H   UNK N   1      18.888  17.485   7.775  0.00  0.00     0.210 HD
ENDBRANCH   8  34
ENDBRANCH   7   8
BRANCH   7  36
HETATM   36  O   UNK N   1      21.547  17.990   5.941  0.00  0.00    -0.390 OA
HETATM   37  H   UNK N   1      21.642  18.430   5.082  0.00  0.00     0.210 HD
ENDBRANCH   7  36
ENDBRANCH   6   7
BRANCH   6  38
HETATM   38  O   UNK N   1      23.716  15.294   7.001  0.00  0.00    -0.370 OA
BRANCH  38  39
HETATM   39  C   UNK N   1      23.577  13.922   6.746  0.00  0.00     0.207 C 
BRANCH  39  40
HETATM   40  C   UNK N   1      23.336  13.250   8.050  0.00  0.00    -0.035 A 
HETATM   41  C   UNK N   1      22.203  13.567   8.805  0.00  0.00     0.009 A 
HETATM   42  C   UNK N   1      22.010  12.973  10.057  0.00  0.00     0.001 A 
HETATM   43  C   UNK N   1      22.950  12.065  10.554  0.00  0.00     0.000 A 
HETATM   44  C   UNK N   1      24.083  11.747   9.799  0.00  0.00     0.001 A 
HETATM   45  C   UNK N   1      24.277  12.341   8.549  0.00  0.00     0.009 A 
ENDBRANCH  39  40
ENDBRANCH  38  39
ENDBRANCH   6  38
ENDBRANCH   1   6
BRANCH   2  46
HETATM   46  C   UNK N   1      25.933  18.127   4.706  0.00  0.00     0.161 C 
BRANCH  46  47
HETATM   47  C   UNK N   1      27.366  17.529   4.782  0.00  0.00     0.012 C 
HETATM   48  C   UNK N   1      27.800  16.848   3.489  0.00  0.00     0.012 C 
BRANCH  47  49
HETATM   49  C   UNK N   1      27.488  16.548   5.949  0.00  0.00     0.002 C 
HETATM   50  C   UNK N   1      28.263  15.299   5.555  0.00  0.00     0.005 C 
ENDBRANCH  47  49
ENDBRANCH  46  47
BRANCH  46  51
HETATM   51  C   UNK N   1      25.818  19.613   5.054  0.00  0.00     0.134 C 
HETATM   52  N   UNK N   1      25.512  20.504   4.168  0.00  0.00    -0.377 N 
HETATM   53  C   UNK N   1      25.233  20.198   2.787  0.00  0.00     0.148 C 
ATOM     54  HN  UNK N   1      25.467  21.480   4.463  1.00  0.00     0.160 HD
BRANCH  51  55
HETATM   55  O   UNK N   1      26.061  20.020   6.315  0.00  0.00    -0.348 OA
HETATM   56  H   UNK N   1      26.687  20.214   6.984  0.00  0.00     0.219 HD
ENDBRANCH  51  55
ENDBRANCH  46  51
ENDBRANCH   2  46
TORSDOF 24
ENDMDL
MODEL 2
REMARK VINA RESULT:      -6.4      2.237      6.660
REMARK  24 active torsions:
REMARK  status: ('A' for Active; 'I' for Inactive)
REMARK    1  A    between atoms: C_21  and  C_7 
REMARK    2  A    between atoms: C_22  and  C_8 
REMARK    3  A    between atoms: C_23  and  C_19 
REMARK    4  A    between atoms: O_49  and  C_19 
REMARK    5  A    between atoms: C_24  and  C_20 
REMARK    6  A    between atoms: O_50  and  C_20 
REMARK    7  A    between atoms: C_25  and  C_21 
REMARK    8  A    between atoms: C_26  and  C_22 
REMARK    9  A    between atoms: C_31  and  C_25 
REMARK   10  A    between atoms: C_25  and  N_39 
REMARK   11  A    between atoms: C_32  and  C_26 
REMARK   12  A    between atoms: C_26  and  N_41 
REMARK   13  A    between atoms: C_28  and  C_27 
REMARK   14  A    between atoms: C_29  and  C_27 
REMARK   15  A    between atoms: C_27  and  O_43 
REMARK   16  A    between atoms: C_30  and  C_28 
REMARK   17  A    between atoms: C_28  and  O_44 
REMARK   18  A    between atoms: C_33  and  C_29 
REMARK   19  A    between atoms: C_29  and  O_49 
REMARK   20  A    between atoms: C_34  and  C_30 
REMARK   21  A    between atoms: C_30  and  O_50 
REMARK   22  A    between atoms: O_45  and  C_31 
REMARK   23  A    between atoms: O_46  and  C_32 
REMARK   24  A    between atoms: C_34  and  O_48 
ROOT
HETATM    1  C   UNK N   1      24.346  13.910   7.584  0.00  0.00     0.144 C 
HETATM    2  N   UNK N   1      23.131  13.595   7.268  0.00  0.00    -0.360 N 
ATOM      3  HN  UNK N   1      22.749  14.063   6.446  1.00  0.00     0.162 HD
HETATM    4  O   UNK N   1      24.982  13.307   8.610  0.00  0.00    -0.348 OA
HETATM    5  H   UNK N   1      25.450  12.981   9.354  0.00  0.00     0.219 HD
ENDROOT
BRANCH   1   6
HETATM    6  C   UNK N   1      25.043  14.992   6.771  0.00  0.00     0.227 C 
BRANCH   6   7
HETATM    7  C   UNK N   1      25.238  14.686   5.253  0.00  0.00     0.186 C 
BRANCH   7   8
HETATM    8  C   UNK N   1      24.112  15.267   4.331  0.00  0.00     0.186 C 
BRANCH   8   9
HETATM    9  C   UNK N   1      23.414  16.555   4.860  0.00  0.00     0.227 C 
BRANCH   9  10
HETATM   10  C   UNK N   1      21.908  16.285   5.131  0.00  0.00     0.144 C 
HETATM   11  N   UNK N   1      20.958  16.406   4.253  0.00  0.00    -0.360 N 
ATOM     12  HN  UNK N   1      20.035  16.226   4.649  1.00  0.00     0.162 HD
BRANCH  11  13
HETATM   13  C   UNK N   1      20.901  16.740   2.832  0.00  0.00     0.161 C 
BRANCH  13  14
HETATM   14  C   UNK N   1      20.362  15.619   1.884  0.00  0.00     0.012 C 
HETATM   15  C   UNK N   1      21.410  14.861   1.100  0.00  0.00     0.012 C 
BRANCH  14  16
HETATM   16  C   UNK N   1      19.575  14.560   2.664  0.00  0.00     0.002 C 
HETATM   17  C   UNK N   1      19.062  13.432   1.782  0.00  0.00     0.005 C 
ENDBRANCH  14  16
ENDBRANCH  13  14
BRANCH  13  18
HETATM   18  C   UNK N   1      20.369  18.139   2.583  0.00  0.00     0.134 C 
HETATM   19  N   UNK N   1      21.155  19.147   2.754  0.00  0.00    -0.377 N 
HETATM   20  C   UNK N   1      20.720  20.503   2.539  0.00  0.00     0.148 C 
ATOM     21  HN  UNK N   1      22.116  18.978   3.052  1.00  0.00     0.160 HD
BRANCH  18  22
HETATM   22  O   UNK N   1      19.096  18.336   2.184  0.00  0.00    -0.348 OA
HETATM   23  H   UNK N   1      18.229  18.350   2.539  0.00  0.00     0.219 HD
ENDBRANCH  18  22
ENDBRANCH  13  18
ENDBRANCH  11  13
BRANCH  10  24
HETATM   24  O   UNK N   1      21.542  15.894   6.365  0.00  0.00    -0.348 OA
HETATM   25  H   UNK N   1      20.989  15.359   6.899  0.00  0.00     0.219 HD
ENDBRANCH  10  24
ENDBRANCH   9  10
BRANCH   9  26
HETATM   26  O   UNK N   1      23.753  17.663   4.032  0.00  0.00    -0.370 OA
BRANCH  26  27
HETATM   27  C   UNK N   1      23.989  18.837   4.768  0.00  0.00     0.207 C 
BRANCH  27  28
HETATM   28  C   UNK N   1      25.442  19.143   4.778  0.00  0.00    -0.035 A 
HETATM   29  C   UNK N   1      26.285  18.527   3.849  0.00  0.00     0.009 A 
HETATM   30  C   UNK N   1      27.654  18.809   3.851  0.00  0.00     0.001 A 
HETATM   31  C   UNK N   1      28.180  19.708   4.783  0.00  0.00     0.000 A 
HETATM   32  C   UNK N   1      27.339  20.325   5.715  0.00  0.00     0.001 A 
HETATM   33  C   UNK N   1      25.970  20.041   5.715  0.00  0.00     0.009 A 
ENDBRANCH  27  28
ENDBRANCH  26  27
ENDBRANCH   9  26
ENDBRANCH   8   9
BRANCH   8  34
HETATM   34  O   UNK N   1      23.156  14.263   4.142  0.00  0.00    -0.390 OA
HETATM   35  H   UNK N   1      22.345  13.769   3.946  0.00  0.00     0.210 HD
ENDBRANCH   8  34
ENDBRANCH   7   8
BRANCH   7  36
HETATM   36  O   UNK N   1      25.350  13.303   5.111  0.00  0.00    -0.390 OA
HETATM   37  H   UNK N   1      25.922  12.522   5.094  0.00  0.00     0.210 HD
ENDBRANCH   7  36
ENDBRANCH   6   7
BRANCH   6  38
HETATM   38  O   UNK N   1      26.171  15.597   7.375  0.00  0.00    -0.370 OA
BRANCH  38  39
HETATM   39  C   UNK N   1      27.046  16.170   6.442  0.00  0.00     0.207 C 
BRANCH  39  40
HETATM   40  C   UNK N   1      28.086  16.910   7.203  0.00  0.00    -0.035 A 
HETATM   41  C   UNK N   1      29.427  16.840   6.810  0.00  0.00     0.009 A 
HETATM   42  C   UNK N   1      30.409  17.492   7.563  0.00  0.00     0.001 A 
HETATM   43  C   UNK N   1      30.052  18.212   8.708  0.00  0.00     0.000 A 
HETATM   44  C   UNK N   1      28.712  18.283   9.100  0.00  0.00     0.001 A 
HETATM   45  C   UNK N   1      27.730  17.630   8.350  0.00  0.00     0.009 A 
ENDBRANCH  39  40
ENDBRANCH  38  39
ENDBRANCH   6  38
ENDBRANCH   1   6
BRANCH   2  46
HETATM   46  C   UNK N   1      22.243  12.660   7.938  0.00  0.00     0.161 C 
BRANCH  46  47
HETATM   47  C   UNK N   1      21.618  11.673   6.912  0.00  0.00     0.012 C 
HETATM   48  C   UNK N   1      22.634  10.705   6.318  0.00  0.00     0.012 C 
BRANCH  47  49
HETATM   49  C   UNK N   1      20.907  12.429   5.789  0.00  0.00     0.002 C 
HETATM   50  C   UNK N   1      20.683  11.545   4.570  0.00  0.00     0.005 C 
ENDBRANCH  47  49
ENDBRANCH  46  47
BRANCH  46  51
HETATM   51  C   UNK N   1      21.250  13.355   8.874  0.00  0.00     0.134 C 
HETATM   52  N   UNK N   1      21.323  13.240  10.160  0.00  0.00    -0.377 N 
HETATM   53  C   UNK N   1      22.340  12.474  10.838  0.00  0.00     0.148 C 
ATOM     54  HN  UNK N   1      20.622  13.717  10.726  1.00  0.00     0.160 HD
BRANCH  51  55
HETATM   55  O   UNK N   1      20.254  14.096   8.353  0.00  0.00    -0.348 OA
HETATM   56  H   UNK N   1      19.656  14.245   7.647  0.00  0.00     0.219 HD
ENDBRANCH  51  55
ENDBRANCH  46  51
ENDBRANCH   2  46
TORSDOF 24
ENDMDL
MODEL 3
REMARK VINA RESULT:      -6.4      2.358      7.587
REMARK  24 active torsions:
REMARK  status: ('A' for Active; 'I' for Inactive)
REMARK    1  A    between atoms: C_21  and  C_7 
REMARK    2  A    between atoms: C_22  and  C_8 
REMARK    3  A    between atoms: C_23  and  C_19 
REMARK    4  A    between atoms: O_49  and  C_19 
REMARK    5  A    between atoms: C_24  and  C_20 
REMARK    6  A    between atoms: O_50  and  C_20 
REMARK    7  A    between atoms: C_25  and  C_21 
REMARK    8  A    between atoms: C_26  and  C_22 
REMARK    9  A    between atoms: C_31  and  C_25 
REMARK   10  A    between atoms: C_25  and  N_39 
REMARK   11  A    between atoms: C_32  and  C_26 
REMARK   12  A    between atoms: C_26  and  N_41 
REMARK   13  A    between atoms: C_28  and  C_27 
REMARK   14  A    between atoms: C_29  and  C_27 
REMARK   15  A    between atoms: C_27  and  O_43 
REMARK   16  A    between atoms: C_30  and  C_28 
REMARK   17  A    between atoms: C_28  and  O_44 
REMARK   18  A    between atoms: C_33  and  C_29 
REMARK   19  A    between atoms: C_29  and  O_49 
REMARK   20  A    between atoms: C_34  and  C_30 
REMARK   21  A    between atoms: C_30  and  O_50 
REMARK   22  A    between atoms: O_45  and  C_31 
REMARK   23  A    between atoms: O_46  and  C_32 
REMARK   24  A    between atoms: C_34  and  O_48 
ROOT
HETATM    1  C   UNK N   1      22.355  17.461   5.896  0.00  0.00     0.144 C 
HETATM    2  N   UNK N   1      22.069  16.308   6.412  0.00  0.00    -0.360 N 
ATOM      3  HN  UNK N   1      22.431  15.495   5.913  1.00  0.00     0.162 HD
HETATM    4  O   UNK N   1      21.990  18.609   6.502  0.00  0.00    -0.348 OA
HETATM    5  H   UNK N   1      21.700  19.437   6.833  0.00  0.00     0.219 HD
ENDROOT
BRANCH   1   6
HETATM    6  C   UNK N   1      23.109  17.489   4.575  0.00  0.00     0.227 C 
BRANCH   6   7
HETATM    7  C   UNK N   1      24.217  18.581   4.445  0.00  0.00     0.186 C 
BRANCH   7   8
HETATM    8  C   UNK N   1      25.472  18.128   3.625  0.00  0.00     0.186 C 
BRANCH   8   9
HETATM    9  C   UNK N   1      26.357  17.041   4.303  0.00  0.00     0.227 C 
BRANCH   9  10
HETATM   10  C   UNK N   1      27.843  17.492   4.339  0.00  0.00     0.144 C 
HETATM   11  N   UNK N   1      28.433  18.038   5.361  0.00  0.00    -0.360 N 
ATOM     12  HN  UNK N   1      29.397  18.301   5.160  1.00  0.00     0.162 HD
BRANCH  11  13
HETATM   13  C   UNK N   1      28.038  18.363   6.729  0.00  0.00     0.161 C 
BRANCH  13  14
HETATM   14  C   UNK N   1      29.064  17.990   7.848  0.00  0.00     0.012 C 
HETATM   15  C   UNK N   1      28.475  17.414   9.116  0.00  0.00     0.012 C 
BRANCH  14  16
HETATM   16  C   UNK N   1      30.081  16.956   7.350  0.00  0.00     0.002 C 
HETATM   17  C   UNK N   1      31.498  17.240   7.823  0.00  0.00     0.005 C 
ENDBRANCH  14  16
ENDBRANCH  13  14
BRANCH  13  18
HETATM   18  C   UNK N   1      27.397  19.734   6.840  0.00  0.00     0.134 C 
HETATM   19  N   UNK N   1      27.457  20.536   5.832  0.00  0.00    -0.377 N 
HETATM   20  C   UNK N   1      26.874  21.853   5.864  0.00  0.00     0.148 C 
ATOM     21  HN  UNK N   1      27.932  20.227   4.984  1.00  0.00     0.160 HD
BRANCH  18  22
HETATM   22  O   UNK N   1      26.770  20.118   7.971  0.00  0.00    -0.348 OA
HETATM   23  H   UNK N   1      26.024  20.617   8.242  0.00  0.00     0.219 HD
ENDBRANCH  18  22
ENDBRANCH  13  18
ENDBRANCH  11  13
BRANCH  10  24
HETATM   24  O   UNK N   1      28.593  17.311   3.237  0.00  0.00    -0.348 OA
HETATM   25  H   UNK N   1      29.214  17.661   2.631  0.00  0.00     0.219 HD
ENDBRANCH  10  24
ENDBRANCH   9  10
BRANCH   9  26
HETATM   26  O   UNK N   1      26.063  15.762   3.749  0.00  0.00    -0.370 OA
BRANCH  26  27
HETATM   27  C   UNK N   1      25.578  15.841   2.432  0.00  0.00     0.207 C 
BRANCH  27  28
HETATM   28  C   UNK N   1      24.585  14.762   2.195  0.00  0.00    -0.035 A 
HETATM   29  C   UNK N   1      23.964  14.143   3.283  0.00  0.00     0.009 A 
HETATM   30  C   UNK N   1      23.029  13.126   3.069  0.00  0.00     0.001 A 
HETATM   31  C   UNK N   1      22.713  12.730   1.766  0.00  0.00     0.000 A 
HETATM   32  C   UNK N   1      23.334  13.348   0.676  0.00  0.00     0.001 A 
HETATM   33  C   UNK N   1      24.272  14.363   0.890  0.00  0.00     0.009 A 
ENDBRANCH  27  28
ENDBRANCH  26  27
ENDBRANCH   9  26
ENDBRANCH   8   9
BRANCH   8  34
HETATM   34  O   UNK N   1      26.247  19.265   3.369  0.00  0.00    -0.390 OA
HETATM   35  H   UNK N   1      26.627  20.071   2.986  0.00  0.00     0.210 HD
ENDBRANCH   8  34
ENDBRANCH   7   8
BRANCH   7  36
HETATM   36  O   UNK N   1      24.568  18.982   5.734  0.00  0.00    -0.390 OA
HETATM   37  H   UNK N   1      25.190  18.919   6.474  0.00  0.00     0.210 HD
ENDBRANCH   7  36
ENDBRANCH   6   7
BRANCH   6  38
HETATM   38  O   UNK N   1      22.325  17.339   3.406  0.00  0.00    -0.370 OA
BRANCH  38  39
HETATM   39  C   UNK N   1      20.964  17.149   3.684  0.00  0.00     0.207 C 
BRANCH  39  40
HETATM   40  C   UNK N   1      20.474  16.068   2.790  0.00  0.00    -0.035 A 
HETATM   41  C   UNK N   1      20.636  16.174   1.405  0.00  0.00     0.009 A 
HETATM   42  C   UNK N   1      20.122  15.181   0.564  0.00  0.00     0.001 A 
HETATM   43  C   UNK N   1      19.446  14.084   1.107  0.00  0.00     0.000 A 
HETATM   44  C   UNK N   1      19.285  13.977   2.492  0.00  0.00     0.001 A 
HETATM   45  C   UNK N   1      19.796  14.969   3.332  0.00  0.00     0.009 A 
ENDBRANCH  39  40
ENDBRANCH  38  39
ENDBRANCH   6  38
ENDBRANCH   1   6
BRANCH   2  46
HETATM   46  C   UNK N   1      21.296  16.028   7.610  0.00  0.00     0.161 C 
BRANCH  46  47
HETATM   47  C   UNK N   1      21.777  14.704   8.270  0.00  0.00     0.012 C 
HETATM   48  C   UNK N   1      21.957  13.568   7.271  0.00  0.00     0.012 C 
BRANCH  47  49
HETATM   49  C   UNK N   1      20.820  14.268   9.381  0.00  0.00     0.002 C 
HETATM   50  C   UNK N   1      21.378  13.097  10.176  0.00  0.00     0.005 C 
ENDBRANCH  47  49
ENDBRANCH  46  47
BRANCH  46  51
HETATM   51  C   UNK N   1      19.787  16.139   7.380  0.00  0.00     0.134 C 
HETATM   52  N   UNK N   1      19.052  16.976   8.039  0.00  0.00    -0.377 N 
HETATM   53  C   UNK N   1      19.569  17.888   9.029  0.00  0.00     0.148 C 
ATOM     54  HN  UNK N   1      18.050  16.990   7.848  1.00  0.00     0.160 HD
BRANCH  51  55
HETATM   55  O   UNK N   1      19.191  15.334   6.480  0.00  0.00    -0.348 OA
HETATM   56  H   UNK N   1      18.890  15.203   5.603  0.00  0.00     0.219 HD
ENDBRANCH  51  55
ENDBRANCH  46  51
ENDBRANCH   2  46
TORSDOF 24
ENDMDL
MODEL 4
REMARK VINA RESULT:      -6.3      1.352      2.698
REMARK  24 active torsions:
REMARK  status: ('A' for Active; 'I' for Inactive)
REMARK    1  A    between atoms: C_21  and  C_7 
REMARK    2  A    between atoms: C_22  and  C_8 
REMARK    3  A    between atoms: C_23  and  C_19 
REMARK    4  A    between atoms: O_49  and  C_19 
REMARK    5  A    between atoms: C_24  and  C_20 
REMARK    6  A    between atoms: O_50  and  C_20 
REMARK    7  A    between atoms: C_25  and  C_21 
REMARK    8  A    between atoms: C_26  and  C_22 
REMARK    9  A    between atoms: C_31  and  C_25 
REMARK   10  A    between atoms: C_25  and  N_39 
REMARK   11  A    between atoms: C_32  and  C_26 
REMARK   12  A    between atoms: C_26  and  N_41 
REMARK   13  A    between atoms: C_28  and  C_27 
REMARK   14  A    between atoms: C_29  and  C_27 
REMARK   15  A    between atoms: C_27  and  O_43 
REMARK   16  A    between atoms: C_30  and  C_28 
REMARK   17  A    between atoms: C_28  and  O_44 
REMARK   18  A    between atoms: C_33  and  C_29 
REMARK   19  A    between atoms: C_29  and  O_49 
REMARK   20  A    between atoms: C_34  and  C_30 
REMARK   21  A    between atoms: C_30  and  O_50 
REMARK   22  A    between atoms: O_45  and  C_31 
REMARK   23  A    between atoms: O_46  and  C_32 
REMARK   24  A    between atoms: C_34  and  O_48 
ROOT
HETATM    1  C   UNK N   1      23.846  17.426   4.805  0.00  0.00     0.144 C 
HETATM    2  N   UNK N   1      25.102  17.439   5.119  0.00  0.00    -0.360 N 
ATOM      3  HN  UNK N   1      25.398  16.736   5.797  1.00  0.00     0.162 HD
HETATM    4  O   UNK N   1      23.349  18.261   3.870  0.00  0.00    -0.348 OA
HETATM    5  H   UNK N   1      22.931  18.864   3.286  0.00  0.00     0.219 HD
ENDROOT
BRANCH   1   6
HETATM    6  C   UNK N   1      22.934  16.446   5.529  0.00  0.00     0.227 C 
BRANCH   6   7
HETATM    7  C   UNK N   1      21.951  17.070   6.568  0.00  0.00     0.186 C 
BRANCH   7   8
HETATM    8  C   UNK N   1      20.779  16.120   6.994  0.00  0.00     0.186 C 
BRANCH   8   9
HETATM    9  C   UNK N   1      20.249  15.171   5.879  0.00  0.00     0.227 C 
BRANCH   9  10
HETATM   10  C   UNK N   1      19.058  15.825   5.126  0.00  0.00     0.144 C 
HETATM   11  N   UNK N   1      19.148  16.461   3.996  0.00  0.00    -0.360 N 
ATOM     12  HN  UNK N   1      18.255  16.854   3.698  1.00  0.00     0.162 HD
BRANCH  11  13
HETATM   13  C   UNK N   1      20.228  16.746   3.055  0.00  0.00     0.161 C 
BRANCH  13  14
HETATM   14  C   UNK N   1      20.478  15.668   1.951  0.00  0.00     0.012 C 
HETATM   15  C   UNK N   1      21.871  15.079   1.911  0.00  0.00     0.012 C 
BRANCH  14  16
HETATM   16  C   UNK N   1      19.524  14.478   2.106  0.00  0.00     0.002 C 
HETATM   17  C   UNK N   1      18.802  14.124   0.815  0.00  0.00     0.005 C 
ENDBRANCH  14  16
ENDBRANCH  13  14
BRANCH  13  18
HETATM   18  C   UNK N   1      20.230  18.191   2.590  0.00  0.00     0.134 C 
HETATM   19  N   UNK N   1      20.545  19.117   3.430  0.00  0.00    -0.377 N 
HETATM   20  C   UNK N   1      20.567  20.510   3.063  0.00  0.00     0.148 C 
ATOM     21  HN  UNK N   1      20.787  18.855   4.386  1.00  0.00     0.160 HD
BRANCH  18  22
HETATM   22  O   UNK N   1      19.910  18.512   1.320  0.00  0.00    -0.348 OA
HETATM   23  H   UNK N   1      19.265  18.999   0.845  0.00  0.00     0.219 HD
ENDBRANCH  18  22
ENDBRANCH  13  18
ENDBRANCH  11  13
BRANCH  10  24
HETATM   24  O   UNK N   1      17.832  15.735   5.671  0.00  0.00    -0.348 OA
HETATM   25  H   UNK N   1      16.907  15.838   5.570  0.00  0.00     0.219 HD
ENDBRANCH  10  24
ENDBRANCH   9  10
BRANCH   9  26
HETATM   26  O   UNK N   1      20.065  13.861   6.406  0.00  0.00    -0.370 OA
BRANCH  26  27
HETATM   27  C   UNK N   1      20.737  13.668   7.626  0.00  0.00     0.207 C 
BRANCH  27  28
HETATM   28  C   UNK N   1      21.733  12.575   7.486  0.00  0.00    -0.035 A 
HETATM   29  C   UNK N   1      21.539  11.583   6.521  0.00  0.00     0.009 A 
HETATM   30  C   UNK N   1      22.471  10.550   6.382  0.00  0.00     0.001 A 
HETATM   31  C   UNK N   1      23.597  10.510   7.210  0.00  0.00     0.000 A 
HETATM   32  C   UNK N   1      23.791  11.501   8.178  0.00  0.00     0.001 A 
HETATM   33  C   UNK N   1      22.858  12.532   8.318  0.00  0.00     0.009 A 
ENDBRANCH  27  28
ENDBRANCH  26  27
ENDBRANCH   9  26
ENDBRANCH   8   9
BRANCH   8  34
HETATM   34  O   UNK N   1      19.730  16.921   7.460  0.00  0.00    -0.390 OA
HETATM   35  H   UNK N   1      18.919  17.250   7.877  0.00  0.00     0.210 HD
ENDBRANCH   8  34
ENDBRANCH   7   8
BRANCH   7  36
HETATM   36  O   UNK N   1      21.470  18.263   6.032  0.00  0.00    -0.390 OA
HETATM   37  H   UNK N   1      20.830  18.708   5.455  0.00  0.00     0.210 HD
ENDBRANCH   7  36
ENDBRANCH   6   7
BRANCH   6  38
HETATM   38  O   UNK N   1      23.537  15.244   5.972  0.00  0.00    -0.370 OA
BRANCH  38  39
HETATM   39  C   UNK N   1      23.472  14.219   5.018  0.00  0.00     0.207 C 
BRANCH  39  40
HETATM   40  C   UNK N   1      24.867  13.885   4.630  0.00  0.00    -0.035 A 
HETATM   41  C   UNK N   1      25.721  13.262   5.546  0.00  0.00     0.009 A 
HETATM   42  C   UNK N   1      27.050  13.000   5.194  0.00  0.00     0.001 A 
HETATM   43  C   UNK N   1      27.524  13.362   3.929  0.00  0.00     0.000 A 
HETATM   44  C   UNK N   1      26.670  13.983   3.012  0.00  0.00     0.001 A 
HETATM   45  C   UNK N   1      25.344  14.246   3.364  0.00  0.00     0.009 A 
ENDBRANCH  39  40
ENDBRANCH  38  39
ENDBRANCH   6  38
ENDBRANCH   1   6
BRANCH   2  46
HETATM   46  C   UNK N   1      26.140  18.329   4.629  0.00  0.00     0.161 C 
BRANCH  46  47
HETATM   47  C   UNK N   1      27.548  17.731   4.912  0.00  0.00     0.012 C 
HETATM   48  C   UNK N   1      28.240  17.210   3.657  0.00  0.00     0.012 C 
BRANCH  47  49
HETATM   49  C   UNK N   1      27.468  16.617   5.958  0.00  0.00     0.002 C 
HETATM   50  C   UNK N   1      28.849  16.096   6.331  0.00  0.00     0.005 C 
ENDBRANCH  47  49
ENDBRANCH  46  47
BRANCH  46  51
HETATM   51  C   UNK N   1      25.938  19.778   5.077  0.00  0.00     0.134 C 
HETATM   52  N   UNK N   1      25.687  20.728   4.236  0.00  0.00    -0.377 N 
HETATM   53  C   UNK N   1      25.556  20.525   2.814  0.00  0.00     0.148 C 
ATOM     54  HN  UNK N   1      25.577  21.675   4.599  1.00  0.00     0.160 HD
BRANCH  51  55
HETATM   55  O   UNK N   1      26.040  20.090   6.383  0.00  0.00    -0.348 OA
HETATM   56  H   UNK N   1      25.869  20.699   7.074  0.00  0.00     0.219 HD
ENDBRANCH  51  55
ENDBRANCH  46  51
ENDBRANCH   2  46
TORSDOF 24
ENDMDL
MODEL 5
REMARK VINA RESULT:      -6.3     10.218     14.764
REMARK  24 active torsions:
REMARK  status: ('A' for Active; 'I' for Inactive)
REMARK    1  A    between atoms: C_21  and  C_7 
REMARK    2  A    between atoms: C_22  and  C_8 
REMARK    3  A    between atoms: C_23  and  C_19 
REMARK    4  A    between atoms: O_49  and  C_19 
REMARK    5  A    between atoms: C_24  and  C_20 
REMARK    6  A    between atoms: O_50  and  C_20 
REMARK    7  A    between atoms: C_25  and  C_21 
REMARK    8  A    between atoms: C_26  and  C_22 
REMARK    9  A    between atoms: C_31  and  C_25 
REMARK   10  A    between atoms: C_25  and  N_39 
REMARK   11  A    between atoms: C_32  and  C_26 
REMARK   12  A    between atoms: C_26  and  N_41 
REMARK   13  A    between atoms: C_28  and  C_27 
REMARK   14  A    between atoms: C_29  and  C_27 
REMARK   15  A    between atoms: C_27  and  O_43 
REMARK   16  A    between atoms: C_30  and  C_28 
REMARK   17  A    between atoms: C_28  and  O_44 
REMARK   18  A    between atoms: C_33  and  C_29 
REMARK   19  A    between atoms: C_29  and  O_49 
REMARK   20  A    between atoms: C_34  and  C_30 
REMARK   21  A    between atoms: C_30  and  O_50 
REMARK   22  A    between atoms: O_45  and  C_31 
REMARK   23  A    between atoms: O_46  and  C_32 
REMARK   24  A    between atoms: C_34  and  O_48 
ROOT
HETATM    1  C   UNK N   1      36.307  14.273  12.612  0.00  0.00     0.144 C 
HETATM    2  N   UNK N   1      36.278  13.064  13.074  0.00  0.00    -0.360 N 
ATOM      3  HN  UNK N   1      36.220  12.322  12.376  1.00  0.00     0.162 HD
HETATM    4  O   UNK N   1      36.452  15.333  13.434  0.00  0.00    -0.348 OA
HETATM    5  H   UNK N   1      36.474  16.112  13.956  0.00  0.00     0.219 HD
ENDROOT
BRANCH   1   6
HETATM    6  C   UNK N   1      36.161  14.472  11.111  0.00  0.00     0.227 C 
BRANCH   6   7
HETATM    7  C   UNK N   1      34.708  14.711  10.593  0.00  0.00     0.186 C 
BRANCH   7   8
HETATM    8  C   UNK N   1      34.438  16.168  10.085  0.00  0.00     0.186 C 
BRANCH   8   9
HETATM    9  C   UNK N   1      34.893  16.462   8.624  0.00  0.00     0.227 C 
BRANCH   9  10
HETATM   10  C   UNK N   1      34.391  17.860   8.169  0.00  0.00     0.144 C 
HETATM   11  N   UNK N   1      33.266  18.087   7.559  0.00  0.00    -0.360 N 
ATOM     12  HN  UNK N   1      33.149  19.068   7.307  1.00  0.00     0.162 HD
BRANCH  11  13
HETATM   13  C   UNK N   1      32.129  17.265   7.150  0.00  0.00     0.161 C 
BRANCH  13  14
HETATM   14  C   UNK N   1      30.715  17.814   7.525  0.00  0.00     0.012 C 
HETATM   15  C   UNK N   1      29.546  16.929   7.153  0.00  0.00     0.012 C 
BRANCH  14  16
HETATM   16  C   UNK N   1      30.592  18.057   9.034  0.00  0.00     0.002 C 
HETATM   17  C   UNK N   1      29.188  18.456   9.459  0.00  0.00     0.005 C 
ENDBRANCH  14  16
ENDBRANCH  13  14
BRANCH  13  18
HETATM   18  C   UNK N   1      32.282  16.720   5.742  0.00  0.00     0.134 C 
HETATM   19  N   UNK N   1      32.328  17.546   4.752  0.00  0.00    -0.377 N 
HETATM   20  C   UNK N   1      32.470  17.102   3.389  0.00  0.00     0.148 C 
ATOM     21  HN  UNK N   1      32.262  18.546   4.941  1.00  0.00     0.160 HD
BRANCH  18  22
HETATM   22  O   UNK N   1      32.372  15.393   5.518  0.00  0.00    -0.348 OA
HETATM   23  H   UNK N   1      32.540  14.795   4.816  0.00  0.00     0.219 HD
ENDBRANCH  18  22
ENDBRANCH  13  18
ENDBRANCH  11  13
BRANCH  10  24
HETATM   24  O   UNK N   1      35.167  18.930   8.418  0.00  0.00    -0.348 OA
HETATM   25  H   UNK N   1      35.370  19.826   8.237  0.00  0.00     0.219 HD
ENDBRANCH  10  24
ENDBRANCH   9  10
BRANCH   9  26
HETATM   26  O   UNK N   1      34.598  15.345   7.792  0.00  0.00    -0.370 OA
BRANCH  26  27
HETATM   27  C   UNK N   1      35.552  15.158   6.777  0.00  0.00     0.207 C 
BRANCH  27  28
HETATM   28  C   UNK N   1      35.773  13.707   6.553  0.00  0.00    -0.035 A 
HETATM   29  C   UNK N   1      36.537  13.284   5.461  0.00  0.00     0.009 A 
HETATM   30  C   UNK N   1      36.749  11.920   5.242  0.00  0.00     0.001 A 
HETATM   31  C   UNK N   1      36.198  10.978   6.116  0.00  0.00     0.000 A 
HETATM   32  C   UNK N   1      35.433  11.399   7.208  0.00  0.00     0.001 A 
HETATM   33  C   UNK N   1      35.218  12.763   7.425  0.00  0.00     0.009 A 
ENDBRANCH  27  28
ENDBRANCH  26  27
ENDBRANCH   9  26
ENDBRANCH   8   9
BRANCH   8  34
HETATM   34  O   UNK N   1      35.082  17.050  10.960  0.00  0.00    -0.390 OA
HETATM   35  H   UNK N   1      35.431  17.501  11.744  0.00  0.00     0.210 HD
ENDBRANCH   8  34
ENDBRANCH   7   8
BRANCH   7  36
HETATM   36  O   UNK N   1      33.830  14.357  11.617  0.00  0.00    -0.390 OA
HETATM   37  H   UNK N   1      33.107  13.788  11.920  0.00  0.00     0.210 HD
ENDBRANCH   7  36
ENDBRANCH   6   7
BRANCH   6  38
HETATM   38  O   UNK N   1      36.918  13.603  10.289  0.00  0.00    -0.370 OA
BRANCH  38  39
HETATM   39  C   UNK N   1      38.048  14.223   9.737  0.00  0.00     0.207 C 
BRANCH  39  40
HETATM   40  C   UNK N   1      38.679  13.249   8.808  0.00  0.00    -0.035 A 
HETATM   41  C   UNK N   1      38.622  11.879   9.081  0.00  0.00     0.009 A 
HETATM   42  C   UNK N   1      39.266  10.971   8.233  0.00  0.00     0.001 A 
HETATM   43  C   UNK N   1      39.967  11.433   7.115  0.00  0.00     0.000 A 
HETATM   44  C   UNK N   1      40.023  12.804   6.840  0.00  0.00     0.001 A 
HETATM   45  C   UNK N   1      39.382  13.711   7.688  0.00  0.00     0.009 A 
ENDBRANCH  39  40
ENDBRANCH  38  39
ENDBRANCH   6  38
ENDBRANCH   1   6
BRANCH   2  46
HETATM   46  C   UNK N   1      36.318  12.632  14.461  0.00  0.00     0.161 C 
BRANCH  46  47
HETATM   47  C   UNK N   1      37.227  11.379  14.615  0.00  0.00     0.012 C 
HETATM   48  C   UNK N   1      37.273  10.516  13.360  0.00  0.00     0.012 C 
BRANCH  47  49
HETATM   49  C   UNK N   1      36.792  10.531  15.811  0.00  0.00     0.002 C 
HETATM   50  C   UNK N   1      37.470   9.169  15.810  0.00  0.00     0.005 C 
ENDBRANCH  47  49
ENDBRANCH  46  47
BRANCH  46  51
HETATM   51  C   UNK N   1      34.925  12.516  15.084  0.00  0.00     0.134 C 
HETATM   52  N   UNK N   1      34.642  13.036  16.234  0.00  0.00    -0.377 N 
HETATM   53  C   UNK N   1      35.585  13.783  17.029  0.00  0.00     0.148 C 
ATOM     54  HN  UNK N   1      33.698  12.910  16.600  1.00  0.00     0.160 HD
BRANCH  51  55
HETATM   55  O   UNK N   1      33.961  11.837  14.434  0.00  0.00    -0.348 OA
HETATM   56  H   UNK N   1      33.207  11.857  13.877  0.00  0.00     0.219 HD
ENDBRANCH  51  55
ENDBRANCH  46  51
ENDBRANCH   2  46
TORSDOF 24
ENDMDL
MODEL 6
REMARK VINA RESULT:      -6.2      2.618      7.103
REMARK  24 active torsions:
REMARK  status: ('A' for Active; 'I' for Inactive)
REMARK    1  A    between atoms: C_21  and  C_7 
REMARK    2  A    between atoms: C_22  and  C_8 
REMARK    3  A    between atoms: C_23  and  C_19 
REMARK    4  A    between atoms: O_49  and  C_19 
REMARK    5  A    between atoms: C_24  and  C_20 
REMARK    6  A    between atoms: O_50  and  C_20 
REMARK    7  A    between atoms: C_25  and  C_21 
REMARK    8  A    between atoms: C_26  and  C_22 
REMARK    9  A    between atoms: C_31  and  C_25 
REMARK   10  A    between atoms: C_25  and  N_39 
REMARK   11  A    between atoms: C_32  and  C_26 
REMARK   12  A    between atoms: C_26  and  N_41 
REMARK   13  A    between atoms: C_28  and  C_27 
REMARK   14  A    between atoms: C_29  and  C_27 
REMARK   15  A    between atoms: C_27  and  O_43 
REMARK   16  A    between atoms: C_30  and  C_28 
REMARK   17  A    between atoms: C_28  and  O_44 
REMARK   18  A    between atoms: C_33  and  C_29 
REMARK   19  A    between atoms: C_29  and  O_49 
REMARK   20  A    between atoms: C_34  and  C_30 
REMARK   21  A    between atoms: C_30  and  O_50 
REMARK   22  A    between atoms: O_45  and  C_31 
REMARK   23  A    between atoms: O_46  and  C_32 
REMARK   24  A    between atoms: C_34  and  O_48 
ROOT
HETATM    1  C   UNK N   1      23.027  15.488   3.982  0.00  0.00     0.144 C 
HETATM    2  N   UNK N   1      22.771  15.594   2.718  0.00  0.00    -0.360 N 
ATOM      3  HN  UNK N   1      22.876  16.527   2.319  1.00  0.00     0.162 HD
HETATM    4  O   UNK N   1      22.988  14.293   4.607  0.00  0.00    -0.348 OA
HETATM    5  H   UNK N   1      22.905  13.507   5.112  0.00  0.00     0.219 HD
ENDROOT
BRANCH   1   6
HETATM    6  C   UNK N   1      23.363  16.754   4.756  0.00  0.00     0.227 C 
BRANCH   6   7
HETATM    7  C   UNK N   1      24.787  17.345   4.511  0.00  0.00     0.186 C 
BRANCH   7   8
HETATM    8  C   UNK N   1      25.931  16.275   4.490  0.00  0.00     0.186 C 
BRANCH   8   9
HETATM    9  C   UNK N   1      26.463  15.837   5.887  0.00  0.00     0.227 C 
BRANCH   9  10
HETATM   10  C   UNK N   1      28.015  15.783   5.887  0.00  0.00     0.144 C 
HETATM   11  N   UNK N   1      28.792  16.639   6.481  0.00  0.00    -0.360 N 
ATOM     12  HN  UNK N   1      29.780  16.448   6.319  1.00  0.00     0.162 HD
BRANCH  11  13
HETATM   13  C   UNK N   1      28.580  17.811   7.328  0.00  0.00     0.161 C 
BRANCH  13  14
HETATM   14  C   UNK N   1      29.746  18.173   8.304  0.00  0.00     0.012 C 
HETATM   15  C   UNK N   1      29.353  18.375   9.751  0.00  0.00     0.012 C 
BRANCH  14  16
HETATM   16  C   UNK N   1      30.826  17.085   8.312  0.00  0.00     0.002 C 
HETATM   17  C   UNK N   1      32.209  17.618   7.972  0.00  0.00     0.005 C 
ENDBRANCH  14  16
ENDBRANCH  13  14
BRANCH  13  18
HETATM   18  C   UNK N   1      27.958  18.971   6.572  0.00  0.00     0.134 C 
HETATM   19  N   UNK N   1      28.234  19.122   5.321  0.00  0.00    -0.377 N 
HETATM   20  C   UNK N   1      27.683  20.199   4.539  0.00  0.00     0.148 C 
ATOM     21  HN  UNK N   1      28.863  18.458   4.871  1.00  0.00     0.160 HD
BRANCH  18  22
HETATM   22  O   UNK N   1      27.124  19.834   7.188  0.00  0.00    -0.348 OA
HETATM   23  H   UNK N   1      27.069  20.335   7.978  0.00  0.00     0.219 HD
ENDBRANCH  18  22
ENDBRANCH  13  18
ENDBRANCH  11  13
BRANCH  10  24
HETATM   24  O   UNK N   1      28.619  14.779   5.227  0.00  0.00    -0.348 OA
HETATM   25  H   UNK N   1      28.957  13.906   5.242  0.00  0.00     0.219 HD
ENDBRANCH  10  24
ENDBRANCH   9  10
BRANCH   9  26
HETATM   26  O   UNK N   1      25.756  14.683   6.333  0.00  0.00    -0.370 OA
BRANCH  26  27
HETATM   27  C   UNK N   1      25.622  14.636   7.731  0.00  0.00     0.207 C 
BRANCH  27  28
HETATM   28  C   UNK N   1      24.892  13.404   8.126  0.00  0.00    -0.035 A 
HETATM   29  C   UNK N   1      24.699  13.120   9.481  0.00  0.00     0.009 A 
HETATM   30  C   UNK N   1      24.013  11.963   9.862  0.00  0.00     0.001 A 
HETATM   31  C   UNK N   1      23.521  11.090   8.888  0.00  0.00     0.000 A 
HETATM   32  C   UNK N   1      23.715  11.372   7.532  0.00  0.00     0.001 A 
HETATM   33  C   UNK N   1      24.403  12.527   7.150  0.00  0.00     0.009 A 
ENDBRANCH  27  28
ENDBRANCH  26  27
ENDBRANCH   9  26
ENDBRANCH   8   9
BRANCH   8  34
HETATM   34  O   UNK N   1      26.987  16.796   3.733  0.00  0.00    -0.390 OA
HETATM   35  H   UNK N   1      27.528  17.204   3.039  0.00  0.00     0.210 HD
ENDBRANCH   8  34
ENDBRANCH   7   8
BRANCH   7  36
HETATM   36  O   UNK N   1      25.016  18.316   5.485  0.00  0.00    -0.390 OA
HETATM   37  H   UNK N   1      25.021  19.255   5.727  0.00  0.00     0.210 HD
ENDBRANCH   7  36
ENDBRANCH   6   7
BRANCH   6  38
HETATM   38  O   UNK N   1      22.968  16.779   6.115  0.00  0.00    -0.370 OA
BRANCH  38  39
HETATM   39  C   UNK N   1      21.606  17.070   6.280  0.00  0.00     0.207 C 
BRANCH  39  40
HETATM   40  C   UNK N   1      21.106  16.235   7.404  0.00  0.00    -0.035 A 
HETATM   41  C   UNK N   1      21.735  15.025   7.715  0.00  0.00     0.009 A 
HETATM   42  C   UNK N   1      21.227  14.217   8.737  0.00  0.00     0.001 A 
HETATM   43  C   UNK N   1      20.090  14.617   9.447  0.00  0.00     0.000 A 
HETATM   44  C   UNK N   1      19.462  15.828   9.137  0.00  0.00     0.001 A 
HETATM   45  C   UNK N   1      19.968  16.634   8.115  0.00  0.00     0.009 A 
ENDBRANCH  39  40
ENDBRANCH  38  39
ENDBRANCH   6  38
ENDBRANCH   1   6
BRANCH   2  46
HETATM   46  C   UNK N   1      22.351  14.552   1.796  0.00  0.00     0.161 C 
BRANCH  46  47
HETATM   47  C   UNK N   1      23.493  14.221   0.793  0.00  0.00     0.012 C 
HETATM   48  C   UNK N   1      23.251  12.933   0.014  0.00  0.00     0.012 C 
BRANCH  47  49
HETATM   49  C   UNK N   1      24.844  14.147   1.507  0.00  0.00     0.002 C 
HETATM   50  C   UNK N   1      25.357  12.717   1.592  0.00  0.00     0.005 C 
ENDBRANCH  47  49
ENDBRANCH  46  47
BRANCH  46  51
HETATM   51  C   UNK N   1      20.983  14.831   1.169  0.00  0.00     0.134 C 
HETATM   52  N   UNK N   1      19.990  14.012   1.295  0.00  0.00    -0.377 N 
HETATM   53  C   UNK N   1      20.058  12.780   2.041  0.00  0.00     0.148 C 
ATOM     54  HN  UNK N   1      19.109  14.251   0.840  1.00  0.00     0.160 HD
BRANCH  51  55
HETATM   55  O   UNK N   1      20.801  15.953   0.445  0.00  0.00    -0.348 OA
HETATM   56  H   UNK N   1      20.757  16.359  -0.397  0.00  0.00     0.219 HD
ENDBRANCH  51  55
ENDBRANCH  46  51
ENDBRANCH   2  46
TORSDOF 24
ENDMDL
MODEL 7
REMARK VINA RESULT:      -6.2     11.462     15.567
REMARK  24 active torsions:
REMARK  status: ('A' for Active; 'I' for Inactive)
REMARK    1  A    between atoms: C_21  and  C_7 
REMARK    2  A    between atoms: C_22  and  C_8 
REMARK    3  A    between atoms: C_23  and  C_19 
REMARK    4  A    between atoms: O_49  and  C_19 
REMARK    5  A    between atoms: C_24  and  C_20 
REMARK    6  A    between atoms: O_50  and  C_20 
REMARK    7  A    between atoms: C_25  and  C_21 
REMARK    8  A    between atoms: C_26  and  C_22 
REMARK    9  A    between atoms: C_31  and  C_25 
REMARK   10  A    between atoms: C_25  and  N_39 
REMARK   11  A    between atoms: C_32  and  C_26 
REMARK   12  A    between atoms: C_26  and  N_41 
REMARK   13  A    between atoms: C_28  and  C_27 
REMARK   14  A    between atoms: C_29  and  C_27 
REMARK   15  A    between atoms: C_27  and  O_43 
REMARK   16  A    between atoms: C_30  and  C_28 
REMARK   17  A    between atoms: C_28  and  O_44 
REMARK   18  A    between atoms: C_33  and  C_29 
REMARK   19  A    between atoms: C_29  and  O_49 
REMARK   20  A    between atoms: C_34  and  C_30 
REMARK   21  A    between atoms: C_30  and  O_50 
REMARK   22  A    between atoms: O_45  and  C_31 
REMARK   23  A    between atoms: O_46  and  C_32 
REMARK   24  A    between atoms: C_34  and  O_48 
ROOT
HETATM    1  C   UNK N   1      36.532  12.020  13.144  0.00  0.00     0.144 C 
HETATM    2  N   UNK N   1      36.478  10.936  12.437  0.00  0.00    -0.360 N 
ATOM      3  HN  UNK N   1      35.615  10.787  11.915  1.00  0.00     0.162 HD
HETATM    4  O   UNK N   1      37.647  12.359  13.823  0.00  0.00    -0.348 OA
HETATM    5  H   UNK N   1      38.362  12.610  14.376  0.00  0.00     0.219 HD
ENDROOT
BRANCH   1   6
HETATM    6  C   UNK N   1      35.294  12.903  13.199  0.00  0.00     0.227 C 
BRANCH   6   7
HETATM    7  C   UNK N   1      35.407  14.282  12.477  0.00  0.00     0.186 C 
BRANCH   7   8
HETATM    8  C   UNK N   1      34.695  14.336  11.082  0.00  0.00     0.186 C 
BRANCH   8   9
HETATM    9  C   UNK N   1      35.452  15.130   9.976  0.00  0.00     0.227 C 
BRANCH   9  10
HETATM   10  C   UNK N   1      34.933  16.592   9.902  0.00  0.00     0.144 C 
HETATM   11  N   UNK N   1      34.010  17.016   9.090  0.00  0.00    -0.360 N 
ATOM     12  HN  UNK N   1      33.850  18.020   9.172  1.00  0.00     0.162 HD
BRANCH  11  13
HETATM   13  C   UNK N   1      33.150  16.392   8.089  0.00  0.00     0.161 C 
BRANCH  13  14
HETATM   14  C   UNK N   1      31.641  16.801   8.128  0.00  0.00     0.012 C 
HETATM   15  C   UNK N   1      31.352  18.196   8.636  0.00  0.00     0.012 C 
BRANCH  14  16
HETATM   16  C   UNK N   1      31.005  16.723   6.735  0.00  0.00     0.002 C 
HETATM   17  C   UNK N   1      29.486  16.792   6.772  0.00  0.00     0.005 C 
ENDBRANCH  14  16
ENDBRANCH  13  14
BRANCH  13  18
HETATM   18  C   UNK N   1      33.794  16.344   6.715  0.00  0.00     0.134 C 
HETATM   19  N   UNK N   1      33.947  15.202   6.136  0.00  0.00    -0.377 N 
HETATM   20  C   UNK N   1      34.551  15.078   4.834  0.00  0.00     0.148 C 
ATOM     21  HN  UNK N   1      33.630  14.360   6.615  1.00  0.00     0.160 HD
BRANCH  18  22
HETATM   22  O   UNK N   1      34.201  17.473   6.100  0.00  0.00    -0.348 OA
HETATM   23  H   UNK N   1      33.881  18.114   5.496  0.00  0.00     0.219 HD
ENDBRANCH  18  22
ENDBRANCH  13  18
ENDBRANCH  11  13
BRANCH  10  24
HETATM   24  O   UNK N   1      35.467  17.502  10.736  0.00  0.00    -0.348 OA
HETATM   25  H   UNK N   1      36.148  18.121  10.908  0.00  0.00     0.219 HD
ENDBRANCH  10  24
ENDBRANCH   9  10
BRANCH   9  26
HETATM   26  O   UNK N   1      35.482  14.371   8.771  0.00  0.00    -0.370 OA
BRANCH  26  27
HETATM   27  C   UNK N   1      35.682  12.999   8.999  0.00  0.00     0.207 C 
BRANCH  27  28
HETATM   28  C   UNK N   1      37.088  12.635   8.685  0.00  0.00    -0.035 A 
HETATM   29  C   UNK N   1      38.091  12.884   9.626  0.00  0.00     0.009 A 
HETATM   30  C   UNK N   1      39.418  12.545   9.339  0.00  0.00     0.001 A 
HETATM   31  C   UNK N   1      39.739  11.958   8.112  0.00  0.00     0.000 A 
HETATM   32  C   UNK N   1      38.736  11.710   7.169  0.00  0.00     0.001 A 
HETATM   33  C   UNK N   1      37.410  12.051   7.455  0.00  0.00     0.009 A 
ENDBRANCH  27  28
ENDBRANCH  26  27
ENDBRANCH   9  26
ENDBRANCH   8   9
BRANCH   8  34
HETATM   34  O   UNK N   1      33.428  14.898  11.272  0.00  0.00    -0.390 OA
HETATM   35  H   UNK N   1      32.687  15.475  11.517  0.00  0.00     0.210 HD
ENDBRANCH   8  34
ENDBRANCH   7   8
BRANCH   7  36
HETATM   36  O   UNK N   1      36.762  14.594  12.370  0.00  0.00    -0.390 OA
HETATM   37  H   UNK N   1      37.577  14.881  12.808  0.00  0.00     0.210 HD
ENDBRANCH   7  36
ENDBRANCH   6   7
BRANCH   6  38
HETATM   38  O   UNK N   1      34.633  12.973  14.449  0.00  0.00    -0.370 OA
BRANCH  38  39
HETATM   39  C   UNK N   1      34.628  11.748  15.131  0.00  0.00     0.207 C 
BRANCH  39  40
HETATM   40  C   UNK N   1      34.922  12.033  16.560  0.00  0.00    -0.035 A 
HETATM   41  C   UNK N   1      35.136  10.982  17.457  0.00  0.00     0.009 A 
HETATM   42  C   UNK N   1      35.357  11.254  18.811  0.00  0.00     0.001 A 
HETATM   43  C   UNK N   1      35.362  12.575  19.269  0.00  0.00     0.000 A 
HETATM   44  C   UNK N   1      35.149  13.628  18.372  0.00  0.00     0.001 A 
HETATM   45  C   UNK N   1      34.927  13.356  17.020  0.00  0.00     0.009 A 
ENDBRANCH  39  40
ENDBRANCH  38  39
ENDBRANCH   6  38
ENDBRANCH   1   6
BRANCH   2  46
HETATM   46  C   UNK N   1      37.493   9.905  12.296  0.00  0.00     0.161 C 
BRANCH  46  47
HETATM   47  C   UNK N   1      37.735   9.581  10.795  0.00  0.00     0.012 C 
HETATM   48  C   UNK N   1      36.447   9.305  10.028  0.00  0.00     0.012 C 
BRANCH  47  49
HETATM   49  C   UNK N   1      38.693   8.400  10.638  0.00  0.00     0.002 C 
HETATM   50  C   UNK N   1      39.884   8.754   9.758  0.00  0.00     0.005 C 
ENDBRANCH  47  49
ENDBRANCH  46  47
BRANCH  46  51
HETATM   51  C   UNK N   1      37.238   8.696  13.200  0.00  0.00     0.134 C 
HETATM   52  N   UNK N   1      38.047   8.369  14.154  0.00  0.00    -0.377 N 
HETATM   53  C   UNK N   1      39.245   9.104  14.475  0.00  0.00     0.148 C 
ATOM     54  HN  UNK N   1      37.826   7.543  14.710  1.00  0.00     0.160 HD
BRANCH  51  55
HETATM   55  O   UNK N   1      36.149   7.931  12.991  0.00  0.00    -0.348 OA
HETATM   56  H   UNK N   1      35.606   7.223  13.276  0.00  0.00     0.219 HD
ENDBRANCH  51  55
ENDBRANCH  46  51
ENDBRANCH   2  46
TORSDOF 24
ENDMDL
MODEL 8
REMARK VINA RESULT:      -6.2     10.082     14.645
REMARK  24 active torsions:
REMARK  status: ('A' for Active; 'I' for Inactive)
REMARK    1  A    between atoms: C_21  and  C_7 
REMARK    2  A    between atoms: C_22  and  C_8 
REMARK    3  A    between atoms: C_23  and  C_19 
REMARK    4  A    between atoms: O_49  and  C_19 
REMARK    5  A    between atoms: C_24  and  C_20 
REMARK    6  A    between atoms: O_50  and  C_20 
REMARK    7  A    between atoms: C_25  and  C_21 
REMARK    8  A    between atoms: C_26  and  C_22 
REMARK    9  A    between atoms: C_31  and  C_25 
REMARK   10  A    between atoms: C_25  and  N_39 
REMARK   11  A    between atoms: C_32  and  C_26 
REMARK   12  A    between atoms: C_26  and  N_41 
REMARK   13  A    between atoms: C_28  and  C_27 
REMARK   14  A    between atoms: C_29  and  C_27 
REMARK   15  A    between atoms: C_27  and  O_43 
REMARK   16  A    between atoms: C_30  and  C_28 
REMARK   17  A    between atoms: C_28  and  O_44 
REMARK   18  A    between atoms: C_33  and  C_29 
REMARK   19  A    between atoms: C_29  and  O_49 
REMARK   20  A    between atoms: C_34  and  C_30 
REMARK   21  A    between atoms: C_30  and  O_50 
REMARK   22  A    between atoms: O_45  and  C_31 
REMARK   23  A    between atoms: O_46  and  C_32 
REMARK   24  A    between atoms: C_34  and  O_48 
ROOT
HETATM    1  C   UNK N   1      36.289  14.254  12.714  0.00  0.00     0.144 C 
HETATM    2  N   UNK N   1      36.232  13.040  13.160  0.00  0.00    -0.360 N 
ATOM      3  HN  UNK N   1      36.178  12.308  12.452  1.00  0.00     0.162 HD
HETATM    4  O   UNK N   1      36.431  15.302  13.551  0.00  0.00    -0.348 OA
HETATM    5  H   UNK N   1      36.453  16.074  14.083  0.00  0.00     0.219 HD
ENDROOT
BRANCH   1   6
HETATM    6  C   UNK N   1      36.180  14.474  11.212  0.00  0.00     0.227 C 
BRANCH   6   7
HETATM    7  C   UNK N   1      34.749  14.784  10.670  0.00  0.00     0.186 C 
BRANCH   7   8
HETATM    8  C   UNK N   1      34.546  16.266  10.203  0.00  0.00     0.186 C 
BRANCH   8   9
HETATM    9  C   UNK N   1      34.929  16.558   8.722  0.00  0.00     0.227 C 
BRANCH   9  10
HETATM   10  C   UNK N   1      34.454  17.978   8.307  0.00  0.00     0.144 C 
HETATM   11  N   UNK N   1      33.326  18.244   7.718  0.00  0.00    -0.360 N 
ATOM     12  HN  UNK N   1      33.229  19.234   7.491  1.00  0.00     0.162 HD
BRANCH  11  13
HETATM   13  C   UNK N   1      32.165  17.459   7.306  0.00  0.00     0.161 C 
BRANCH  13  14
HETATM   14  C   UNK N   1      32.427  16.365   6.220  0.00  0.00     0.012 C 
HETATM   15  C   UNK N   1      31.208  15.607   5.744  0.00  0.00     0.012 C 
BRANCH  14  16
HETATM   16  C   UNK N   1      33.063  16.967   4.962  0.00  0.00     0.002 C 
HETATM   17  C   UNK N   1      32.068  17.724   4.097  0.00  0.00     0.005 C 
ENDBRANCH  14  16
ENDBRANCH  13  14
BRANCH  13  18
HETATM   18  C   UNK N   1      31.297  17.042   8.479  0.00  0.00     0.134 C 
HETATM   19  N   UNK N   1      30.259  17.750   8.771  0.00  0.00    -0.377 N 
HETATM   20  C   UNK N   1      29.390  17.417   9.871  0.00  0.00     0.148 C 
ATOM     21  HN  UNK N   1      30.046  18.571   8.205  1.00  0.00     0.160 HD
BRANCH  18  22
HETATM   22  O   UNK N   1      31.597  15.949   9.210  0.00  0.00    -0.348 OA
HETATM   23  H   UNK N   1      32.289  15.327   9.317  0.00  0.00     0.219 HD
ENDBRANCH  18  22
ENDBRANCH  13  18
ENDBRANCH  11  13
BRANCH  10  24
HETATM   24  O   UNK N   1      35.258  19.023   8.570  0.00  0.00    -0.348 OA
HETATM   25  H   UNK N   1      35.339  19.917   8.835  0.00  0.00     0.219 HD
ENDBRANCH  10  24
ENDBRANCH   9  10
BRANCH   9  26
HETATM   26  O   UNK N   1      34.549  15.460   7.899  0.00  0.00    -0.370 OA
BRANCH  26  27
HETATM   27  C   UNK N   1      35.566  15.071   7.010  0.00  0.00     0.207 C 
BRANCH  27  28
HETATM   28  C   UNK N   1      35.456  13.617   6.724  0.00  0.00    -0.035 A 
HETATM   29  C   UNK N   1      34.847  12.773   7.657  0.00  0.00     0.009 A 
HETATM   30  C   UNK N   1      34.739  11.404   7.396  0.00  0.00     0.001 A 
HETATM   31  C   UNK N   1      35.240  10.879   6.202  0.00  0.00     0.000 A 
HETATM   32  C   UNK N   1      35.852  11.722   5.268  0.00  0.00     0.001 A 
HETATM   33  C   UNK N   1      35.962  13.091   5.530  0.00  0.00     0.009 A 
ENDBRANCH  27  28
ENDBRANCH  26  27
ENDBRANCH   9  26
ENDBRANCH   8   9
BRANCH   8  34
HETATM   34  O   UNK N   1      35.300  17.086  11.050  0.00  0.00    -0.390 OA
HETATM   35  H   UNK N   1      35.996  17.463  11.611  0.00  0.00     0.210 HD
ENDBRANCH   8  34
ENDBRANCH   7   8
BRANCH   7  36
HETATM   36  O   UNK N   1      33.836  14.433  11.663  0.00  0.00    -0.390 OA
HETATM   37  H   UNK N   1      33.662  13.964  12.494  0.00  0.00     0.210 HD
ENDBRANCH   7  36
ENDBRANCH   6   7
BRANCH   6  38
HETATM   38  O   UNK N   1      36.911  13.578  10.395  0.00  0.00    -0.370 OA
BRANCH  38  39
HETATM   39  C   UNK N   1      37.995  14.190   9.751  0.00  0.00     0.207 C 
BRANCH  39  40
HETATM   40  C   UNK N   1      38.475  13.253   8.702  0.00  0.00    -0.035 A 
HETATM   41  C   UNK N   1      39.114  13.746   7.560  0.00  0.00     0.009 A 
HETATM   42  C   UNK N   1      39.514  12.865   6.549  0.00  0.00     0.001 A 
HETATM   43  C   UNK N   1      39.274  11.494   6.679  0.00  0.00     0.000 A 
HETATM   44  C   UNK N   1      38.636  11.000   7.822  0.00  0.00     0.001 A 
HETATM   45  C   UNK N   1      38.235  11.880   8.831  0.00  0.00     0.009 A 
ENDBRANCH  39  40
ENDBRANCH  38  39
ENDBRANCH   6  38
ENDBRANCH   1   6
BRANCH   2  46
HETATM   46  C   UNK N   1      36.234  12.591  14.542  0.00  0.00     0.161 C 
BRANCH  46  47
HETATM   47  C   UNK N   1      37.095  11.305  14.694  0.00  0.00     0.012 C 
HETATM   48  C   UNK N   1      37.635  10.786  13.367  0.00  0.00     0.012 C 
BRANCH  47  49
HETATM   49  C   UNK N   1      36.306  10.199  15.398  0.00  0.00     0.002 C 
HETATM   50  C   UNK N   1      36.786   9.989  16.827  0.00  0.00     0.005 C 
ENDBRANCH  47  49
ENDBRANCH  46  47
BRANCH  46  51
HETATM   51  C   UNK N   1      34.828  12.519  15.142  0.00  0.00     0.134 C 
HETATM   52  N   UNK N   1      34.551  13.015  16.304  0.00  0.00    -0.377 N 
HETATM   53  C   UNK N   1      35.515  13.694  17.134  0.00  0.00     0.148 C 
ATOM     54  HN  UNK N   1      33.597  12.920  16.652  1.00  0.00     0.160 HD
BRANCH  51  55
HETATM   55  O   UNK N   1      33.844  11.904  14.457  0.00  0.00    -0.348 OA
HETATM   56  H   UNK N   1      33.582  11.202  13.895  0.00  0.00     0.219 HD
ENDBRANCH  51  55
ENDBRANCH  46  51
ENDBRANCH   2  46
TORSDOF 24
ENDMDL
MODEL 9
REMARK VINA RESULT:      -6.1     13.604     16.416
REMARK  24 active torsions:
REMARK  status: ('A' for Active; 'I' for Inactive)
REMARK    1  A    between atoms: C_21  and  C_7 
REMARK    2  A    between atoms: C_22  and  C_8 
REMARK    3  A    between atoms: C_23  and  C_19 
REMARK    4  A    between atoms: O_49  and  C_19 
REMARK    5  A    between atoms: C_24  and  C_20 
REMARK    6  A    between atoms: O_50  and  C_20 
REMARK    7  A    between atoms: C_25  and  C_21 
REMARK    8  A    between atoms: C_26  and  C_22 
REMARK    9  A    between atoms: C_31  and  C_25 
REMARK   10  A    between atoms: C_25  and  N_39 
REMARK   11  A    between atoms: C_32  and  C_26 
REMARK   12  A    between atoms: C_26  and  N_41 
REMARK   13  A    between atoms: C_28  and  C_27 
REMARK   14  A    between atoms: C_29  and  C_27 
REMARK   15  A    between atoms: C_27  and  O_43 
REMARK   16  A    between atoms: C_30  and  C_28 
REMARK   17  A    between atoms: C_28  and  O_44 
REMARK   18  A    between atoms: C_33  and  C_29 
REMARK   19  A    between atoms: C_29  and  O_49 
REMARK   20  A    between atoms: C_34  and  C_30 
REMARK   21  A    between atoms: C_30  and  O_50 
REMARK   22  A    between atoms: O_45  and  C_31 
REMARK   23  A    between atoms: O_46  and  C_32 
REMARK   24  A    between atoms: C_34  and  O_48 
ROOT
HETATM    1  C   UNK N   1      26.736  27.184  -3.421  0.00  0.00     0.144 C 
HETATM    2  N   UNK N   1      27.817  27.894  -3.489  0.00  0.00    -0.360 N 
ATOM      3  HN  UNK N   1      28.612  27.453  -3.952  1.00  0.00     0.162 HD
HETATM    4  O   UNK N   1      25.601  27.684  -2.893  0.00  0.00    -0.348 OA
HETATM    5  H   UNK N   1      24.805  27.947  -2.471  0.00  0.00     0.219 HD
ENDROOT
BRANCH   1   6
HETATM    6  C   UNK N   1      26.782  25.756  -3.946  0.00  0.00     0.227 C 
BRANCH   6   7
HETATM    7  C   UNK N   1      27.633  24.749  -3.110  0.00  0.00     0.186 C 
BRANCH   7   8
HETATM    8  C   UNK N   1      28.931  24.251  -3.832  0.00  0.00     0.186 C 
BRANCH   8   9
HETATM    9  C   UNK N   1      29.320  22.768  -3.560  0.00  0.00     0.227 C 
BRANCH   9  10
HETATM   10  C   UNK N   1      30.574  22.692  -2.646  0.00  0.00     0.144 C 
HETATM   11  N   UNK N   1      31.726  22.205  -2.998  0.00  0.00    -0.360 N 
ATOM     12  HN  UNK N   1      32.401  22.208  -2.234  1.00  0.00     0.162 HD
BRANCH  11  13
HETATM   13  C   UNK N   1      32.281  21.654  -4.232  0.00  0.00     0.161 C 
BRANCH  13  14
HETATM   14  C   UNK N   1      32.578  22.684  -5.371  0.00  0.00     0.012 C 
HETATM   15  C   UNK N   1      33.697  23.664  -5.095  0.00  0.00     0.012 C 
BRANCH  14  16
HETATM   16  C   UNK N   1      32.954  21.977  -6.679  0.00  0.00     0.002 C 
HETATM   17  C   UNK N   1      32.748  22.851  -7.906  0.00  0.00     0.005 C 
ENDBRANCH  14  16
ENDBRANCH  13  14
BRANCH  13  18
HETATM   18  C   UNK N   1      33.355  20.614  -3.975  0.00  0.00     0.134 C 
HETATM   19  N   UNK N   1      33.140  19.392  -4.327  0.00  0.00    -0.377 N 
HETATM   20  C   UNK N   1      34.111  18.350  -4.113  0.00  0.00     0.148 C 
ATOM     21  HN  UNK N   1      32.252  19.156  -4.771  1.00  0.00     0.160 HD
BRANCH  18  22
HETATM   22  O   UNK N   1      34.523  20.952  -3.390  0.00  0.00    -0.348 OA
HETATM   23  H   UNK N   1      34.944  21.698  -3.011  0.00  0.00     0.219 HD
ENDBRANCH  18  22
ENDBRANCH  13  18
ENDBRANCH  11  13
BRANCH  10  24
HETATM   24  O   UNK N   1      30.478  23.164  -1.390  0.00  0.00    -0.348 OA
HETATM   25  H   UNK N   1      30.811  23.172  -0.515  0.00  0.00     0.219 HD
ENDBRANCH  10  24
ENDBRANCH   9  10
BRANCH   9  26
HETATM   26  O   UNK N   1      29.344  22.042  -4.785  0.00  0.00    -0.370 OA
BRANCH  26  27
HETATM   27  C   UNK N   1      29.135  22.863  -5.906  0.00  0.00     0.207 C 
BRANCH  27  28
HETATM   28  C   UNK N   1      29.166  22.043  -7.145  0.00  0.00    -0.035 A 
HETATM   29  C   UNK N   1      29.127  22.673  -8.392  0.00  0.00     0.009 A 
HETATM   30  C   UNK N   1      29.155  21.909  -9.563  0.00  0.00     0.001 A 
HETATM   31  C   UNK N   1      29.224  20.515  -9.485  0.00  0.00     0.000 A 
HETATM   32  C   UNK N   1      29.261  19.883  -8.238  0.00  0.00     0.001 A 
HETATM   33  C   UNK N   1      29.230  20.647  -7.067  0.00  0.00     0.009 A 
ENDBRANCH  27  28
ENDBRANCH  26  27
ENDBRANCH   9  26
ENDBRANCH   8   9
BRANCH   8  34
HETATM   34  O   UNK N   1      29.983  25.087  -3.441  0.00  0.00    -0.390 OA
HETATM   35  H   UNK N   1      30.754  25.476  -3.000  0.00  0.00     0.210 HD
ENDBRANCH   8  34
ENDBRANCH   7   8
BRANCH   7  36
HETATM   36  O   UNK N   1      26.805  23.684  -2.760  0.00  0.00    -0.390 OA
HETATM   37  H   UNK N   1      26.002  23.378  -2.310  0.00  0.00     0.210 HD
ENDBRANCH   7  36
ENDBRANCH   6   7
BRANCH   6  38
HETATM   38  O   UNK N   1      26.946  25.610  -5.344  0.00  0.00    -0.370 OA
BRANCH  38  39
HETATM   39  C   UNK N   1      25.728  25.613  -6.038  0.00  0.00     0.207 C 
BRANCH  39  40
HETATM   40  C   UNK N   1      25.699  24.395  -6.890  0.00  0.00    -0.035 A 
HETATM   41  C   UNK N   1      25.749  24.510  -8.282  0.00  0.00     0.009 A 
HETATM   42  C   UNK N   1      25.665  23.365  -9.081  0.00  0.00     0.001 A 
HETATM   43  C   UNK N   1      25.527  22.106  -8.488  0.00  0.00     0.000 A 
HETATM   44  C   UNK N   1      25.478  21.990  -7.095  0.00  0.00     0.001 A 
HETATM   45  C   UNK N   1      25.561  23.134  -6.297  0.00  0.00     0.009 A 
ENDBRANCH  39  40
ENDBRANCH  38  39
ENDBRANCH   6  38
ENDBRANCH   1   6
BRANCH   2  46
HETATM   46  C   UNK N   1      28.039  29.240  -2.986  0.00  0.00     0.161 C 
BRANCH  46  47
HETATM   47  C   UNK N   1      27.802  30.286  -4.112  0.00  0.00     0.012 C 
HETATM   48  C   UNK N   1      26.497  31.057  -3.947  0.00  0.00     0.012 C 
BRANCH  47  49
HETATM   49  C   UNK N   1      27.840  29.625  -5.490  0.00  0.00     0.002 C 
HETATM   50  C   UNK N   1      28.851  30.298  -6.408  0.00  0.00     0.005 C 
ENDBRANCH  47  49
ENDBRANCH  46  47
BRANCH  46  51
HETATM   51  C   UNK N   1      29.360  29.376  -2.226  0.00  0.00     0.134 C 
HETATM   52  N   UNK N   1      29.431  29.954  -1.071  0.00  0.00    -0.377 N 
HETATM   53  C   UNK N   1      28.291  30.504  -0.380  0.00  0.00     0.148 C 
ATOM     54  HN  UNK N   1      30.345  30.025  -0.624  1.00  0.00     0.160 HD
BRANCH  51  55
HETATM   55  O   UNK N   1      30.495  28.902  -2.776  0.00  0.00    -0.348 OA
HETATM   56  H   UNK N   1      31.176  28.259  -2.769  0.00  0.00     0.219 HD
ENDBRANCH  51  55
ENDBRANCH  46  51
ENDBRANCH   2  46
TORSDOF 24
ENDMDL
