MODEL 1
REMARK VINA RESULT:      -3.9      0.000      0.000
REMARK  0 active torsions:
REMARK  status: ('A' for Active; 'I' for Inactive)
ROOT
HETATM    1 Cl   UNK N   1      29.430  17.006   7.524  0.00  0.00    -0.084 Cl
HETATM    2  C   UNK N   1      31.040  17.222   6.872  0.00  0.00     0.037 A 
HETATM    3  C   UNK N   1      32.085  17.608   7.717  0.00  0.00     0.047 A 
HETATM    4  C   UNK N   1      33.371  17.781   7.201  0.00  0.00     0.037 A 
HETATM    5 Cl   UNK N   1      34.676  18.264   8.262  0.00  0.00    -0.084 Cl
HETATM    6  C   UNK N   1      33.615  17.569   5.841  0.00  0.00     0.047 A 
HETATM    7  C   UNK N   1      32.569  17.183   4.994  0.00  0.00     0.037 A 
HETATM    8 Cl   UNK N   1      32.873  16.917   3.292  0.00  0.00    -0.084 Cl
HETATM    9  C   UNK N   1      31.281  17.009   5.513  0.00  0.00     0.047 A 
ENDROOT
TORSDOF 0
ENDMDL
MODEL 2
REMARK VINA RESULT:      -3.9      0.035      3.037
REMARK  0 active torsions:
REMARK  status: ('A' for Active; 'I' for Inactive)
ROOT
HETATM    1 Cl   UNK N   1      29.402  17.023   7.471  0.00  0.00    -0.084 Cl
HETATM    2  C   UNK N   1      31.027  17.229   6.852  0.00  0.00     0.037 A 
HETATM    3  C   UNK N   1      31.287  16.999   5.498  0.00  0.00     0.047 A 
HETATM    4  C   UNK N   1      32.583  17.162   5.000  0.00  0.00     0.037 A 
HETATM    5 Cl   UNK N   1      32.904  16.874   3.304  0.00  0.00    -0.084 Cl
HETATM    6  C   UNK N   1      33.617  17.555   5.854  0.00  0.00     0.047 A 
HETATM    7  C   UNK N   1      33.357  17.785   7.210  0.00  0.00     0.037 A 
HETATM    8 Cl   UNK N   1      34.651  18.276   8.279  0.00  0.00    -0.084 Cl
HETATM    9  C   UNK N   1      32.059  17.621   7.707  0.00  0.00     0.047 A 
ENDROOT
TORSDOF 0
ENDMDL
MODEL 3
REMARK VINA RESULT:      -3.9      0.121      3.701
REMARK  0 active torsions:
REMARK  status: ('A' for Active; 'I' for Inactive)
ROOT
HETATM    1 Cl   UNK N   1      32.739  16.971   3.356  0.00  0.00    -0.084 Cl
HETATM    2  C   UNK N   1      32.472  17.237   5.065  0.00  0.00     0.037 A 
HETATM    3  C   UNK N   1      31.191  17.076   5.601  0.00  0.00     0.047 A 
HETATM    4  C   UNK N   1      30.973  17.287   6.965  0.00  0.00     0.037 A 
HETATM    5 Cl   UNK N   1      29.368  17.084   7.630  0.00  0.00    -0.084 Cl
HETATM    6  C   UNK N   1      32.036  17.660   7.793  0.00  0.00     0.047 A 
HETATM    7  C   UNK N   1      33.318  17.821   7.258  0.00  0.00     0.037 A 
HETATM    8 Cl   UNK N   1      34.648  18.287   8.295  0.00  0.00    -0.084 Cl
HETATM    9  C   UNK N   1      33.535  17.609   5.892  0.00  0.00     0.047 A 
ENDROOT
TORSDOF 0
ENDMDL
MODEL 4
REMARK VINA RESULT:      -3.8     11.441     12.329
REMARK  0 active torsions:
REMARK  status: ('A' for Active; 'I' for Inactive)
ROOT
HETATM    1 Cl   UNK N   1      23.709  10.523   7.429  0.00  0.00    -0.084 Cl
HETATM    2  C   UNK N   1      22.929  11.516   8.641  0.00  0.00     0.037 A 
HETATM    3  C   UNK N   1      22.036  12.517   8.248  0.00  0.00     0.047 A 
HETATM    4  C   UNK N   1      21.411  13.312   9.212  0.00  0.00     0.037 A 
HETATM    5 Cl   UNK N   1      20.294  14.564   8.715  0.00  0.00    -0.084 Cl
HETATM    6  C   UNK N   1      21.678  13.107  10.569  0.00  0.00     0.047 A 
HETATM    7  C   UNK N   1      22.571  12.105  10.963  0.00  0.00     0.037 A 
HETATM    8 Cl   UNK N   1      22.905  11.848  12.660  0.00  0.00    -0.084 Cl
HETATM    9  C   UNK N   1      23.197  11.309   9.996  0.00  0.00     0.047 A 
ENDROOT
TORSDOF 0
ENDMDL
MODEL 5
REMARK VINA RESULT:      -3.8     10.565     12.558
REMARK  0 active torsions:
REMARK  status: ('A' for Active; 'I' for Inactive)
ROOT
HETATM    1 Cl   UNK N   1      24.689  12.695   9.405  0.00  0.00    -0.084 Cl
HETATM    2  C   UNK N   1      22.999  13.079   9.650  0.00  0.00     0.037 A 
HETATM    3  C   UNK N   1      22.394  14.072   8.873  0.00  0.00     0.047 A 
HETATM    4  C   UNK N   1      21.045  14.382   9.065  0.00  0.00     0.037 A 
HETATM    5 Cl   UNK N   1      20.292  15.625   8.092  0.00  0.00    -0.084 Cl
HETATM    6  C   UNK N   1      20.301  13.700  10.033  0.00  0.00     0.047 A 
HETATM    7  C   UNK N   1      20.906  12.706  10.810  0.00  0.00     0.037 A 
HETATM    8 Cl   UNK N   1      19.976  11.853  12.021  0.00  0.00    -0.084 Cl
HETATM    9  C   UNK N   1      22.257  12.397  10.617  0.00  0.00     0.047 A 
ENDROOT
TORSDOF 0
ENDMDL
MODEL 6
REMARK VINA RESULT:      -3.8     11.423     12.560
REMARK  0 active torsions:
REMARK  status: ('A' for Active; 'I' for Inactive)
ROOT
HETATM    1 Cl   UNK N   1      35.323  14.340  18.082  0.00  0.00    -0.084 Cl
HETATM    2  C   UNK N   1      35.088  12.748  17.392  0.00  0.00     0.037 A 
HETATM    3  C   UNK N   1      35.275  11.613  18.187  0.00  0.00     0.047 A 
HETATM    4  C   UNK N   1      35.089  10.341  17.640  0.00  0.00     0.037 A 
HETATM    5 Cl   UNK N   1      35.324   8.923  18.638  0.00  0.00    -0.084 Cl
HETATM    6  C   UNK N   1      34.717  10.202  16.299  0.00  0.00     0.047 A 
HETATM    7  C   UNK N   1      34.529  11.338  15.504  0.00  0.00     0.037 A 
HETATM    8 Cl   UNK N   1      34.063  11.165  13.827  0.00  0.00    -0.084 Cl
HETATM    9  C   UNK N   1      34.716  12.612  16.052  0.00  0.00     0.047 A 
ENDROOT
TORSDOF 0
ENDMDL
MODEL 7
REMARK VINA RESULT:      -3.8     11.628     12.917
REMARK  0 active torsions:
REMARK  status: ('A' for Active; 'I' for Inactive)
ROOT
HETATM    1 Cl   UNK N   1      33.896  10.916  14.142  0.00  0.00    -0.084 Cl
HETATM    2  C   UNK N   1      34.467  11.206  15.772  0.00  0.00     0.037 A 
HETATM    3  C   UNK N   1      34.708  10.125  16.624  0.00  0.00     0.047 A 
HETATM    4  C   UNK N   1      35.164  10.352  17.926  0.00  0.00     0.037 A 
HETATM    5 Cl   UNK N   1      35.465   8.996  18.990  0.00  0.00    -0.084 Cl
HETATM    6  C   UNK N   1      35.378  11.658  18.375  0.00  0.00     0.047 A 
HETATM    7  C   UNK N   1      35.136  12.741  17.521  0.00  0.00     0.037 A 
HETATM    8 Cl   UNK N   1      35.405  14.375  18.083  0.00  0.00    -0.084 Cl
HETATM    9  C   UNK N   1      34.680  12.512  16.218  0.00  0.00     0.047 A 
ENDROOT
TORSDOF 0
ENDMDL
MODEL 8
REMARK VINA RESULT:      -3.8     16.780     17.528
REMARK  0 active torsions:
REMARK  status: ('A' for Active; 'I' for Inactive)
ROOT
HETATM    1 Cl   UNK N   1      28.954  28.996  -7.949  0.00  0.00    -0.084 Cl
HETATM    2  C   UNK N   1      27.806  28.740  -6.653  0.00  0.00     0.037 A 
HETATM    3  C   UNK N   1      27.722  29.665  -5.608  0.00  0.00     0.047 A 
HETATM    4  C   UNK N   1      26.806  29.464  -4.571  0.00  0.00     0.037 A 
HETATM    5 Cl   UNK N   1      26.705  30.624  -3.265  0.00  0.00    -0.084 Cl
HETATM    6  C   UNK N   1      25.975  28.340  -4.579  0.00  0.00     0.047 A 
HETATM    7  C   UNK N   1      26.058  27.415  -5.625  0.00  0.00     0.037 A 
HETATM    8 Cl   UNK N   1      25.018  26.009  -5.635  0.00  0.00    -0.084 Cl
HETATM    9  C   UNK N   1      26.975  27.617  -6.663  0.00  0.00     0.047 A 
ENDROOT
TORSDOF 0
ENDMDL
MODEL 9
REMARK VINA RESULT:      -3.7     14.891     15.869
REMARK  0 active torsions:
REMARK  status: ('A' for Active; 'I' for Inactive)
ROOT
HETATM    1 Cl   UNK N   1      26.194  29.457  -3.549  0.00  0.00    -0.084 Cl
HETATM    2  C   UNK N   1      26.260  27.868  -4.280  0.00  0.00     0.037 A 
HETATM    3  C   UNK N   1      26.563  26.754  -3.491  0.00  0.00     0.047 A 
HETATM    4  C   UNK N   1      26.617  25.483  -4.070  0.00  0.00     0.037 A 
HETATM    5 Cl   UNK N   1      26.996  24.092  -3.079  0.00  0.00    -0.084 Cl
HETATM    6  C   UNK N   1      26.368  25.325  -5.437  0.00  0.00     0.047 A 
HETATM    7  C   UNK N   1      26.065  26.440  -6.227  0.00  0.00     0.037 A 
HETATM    8 Cl   UNK N   1      25.753  26.243  -7.936  0.00  0.00    -0.084 Cl
HETATM    9  C   UNK N   1      26.011  27.712  -5.646  0.00  0.00     0.047 A 
ENDROOT
TORSDOF 0
ENDMDL
