REMARK  2 active torsions:
REMARK  status: ('A' for Active; 'I' for Inactive)
REMARK       I    between atoms: N_1  and  C_2 
REMARK    1  A    between atoms: C_2  and  C_4 
REMARK    2  A    between atoms: C_4  and  O_5 
ROOT
HETATM    1  N   UNK N   1       0.933   2.179  -0.000  0.00  0.00    -0.361 N 
HETATM    2  C   UNK N   1       1.470   0.943  -0.000  0.00  0.00     0.312 C 
HETATM    3  O   UNK N   1       2.683   0.811   0.000  0.00  0.00    -0.261 OA
HETATM    4  H   UNK N   1       1.518   2.971  -0.000  0.00  0.00     0.159 HD
HETATM    5  H   UNK N   1      -0.046   2.291  -0.000  0.00  0.00     0.159 HD
ENDROOT
BRANCH   2   6
HETATM    6  C   UNK N   1       0.600  -0.244   0.000  0.00  0.00     0.236 C 
HETATM    7  O   UNK N   1      -0.614  -0.117   0.000  0.00  0.00    -0.643 OA
BRANCH   6   8
HETATM    8  O   UNK N   1       1.143  -1.477  -0.000  0.00  0.00    -0.769 OA
HETATM    9  H   UNK N   1       0.588  -2.232  -0.000  0.00  0.00     0.168 HD
ENDBRANCH   6   8
ENDBRANCH   2   6
TORSDOF 2
