MODEL 1
REMARK VINA RESULT:      -5.7      0.000      0.000
REMARK  7 active torsions:
REMARK  status: ('A' for Active; 'I' for Inactive)
REMARK    1  A    between atoms: N_13  and  C_3 
REMARK    2  A    between atoms: C_5  and  C_4 
REMARK    3  A    between atoms: N_14  and  C_4 
REMARK    4  A    between atoms: O_19  and  C_5 
REMARK    5  A    between atoms: C_9  and  N_13 
REMARK    6  A    between atoms: S_21  and  C_10 
REMARK    7  A    between atoms: S_21  and  N_12 
ROOT
HETATM    1  C   UNK N   1      34.288  14.289  10.194  0.00  0.00     0.044 A 
HETATM    2  C   UNK N   1      33.794  15.446   6.683  0.00  0.00     0.165 C 
HETATM    3  C   UNK N   1      33.885  15.222   9.186  0.00  0.00    -0.002 A 
HETATM    4  C   UNK N   1      33.062  14.927   7.949  0.00  0.00     0.130 C 
HETATM    5  C   UNK N   1      35.067  14.892  11.188  0.00  0.00     0.121 A 
HETATM    6  C   UNK N   1      34.351  16.500   9.411  0.00  0.00     0.130 A 
HETATM    7  N   UNK N   1      34.033  16.911   6.622  0.00  0.00    -0.302 N 
HETATM    8  O   UNK N   1      32.860  18.605   8.326  0.00  0.00    -0.200 OA
HETATM    9  O   UNK N   1      35.292  18.741   8.046  0.00  0.00    -0.200 OA
HETATM   10  S   UNK N   1      35.247  16.496  10.796  0.00  0.00    -0.062 SA
HETATM   11  S   UNK N   1      34.129  17.750   8.192  0.00  0.00     0.268 S 
ENDROOT
BRANCH   5  12
HETATM   12  S   UNK N   1      35.785  14.072  12.604  0.00  0.00     0.263 S 
HETATM   13  O   UNK N   1      36.754  12.947  12.210  0.00  0.00    -0.200 OA
HETATM   14  O   UNK N   1      34.752  13.334  13.466  0.00  0.00    -0.200 OA
BRANCH  12  15
HETATM   15  N   UNK N   1      36.700  15.071  13.733  0.00  0.00    -0.324 N 
HETATM   16  H   UNK N   1      36.575  16.082  13.782  0.00  0.00     0.169 HD
HETATM   17  H   UNK N   1      37.373  14.626  14.357  0.00  0.00     0.169 HD
ENDBRANCH  12  15
ENDBRANCH   5  12
BRANCH   4  18
HETATM   18  N   UNK N   1      32.815  13.491   7.794  0.00  0.00    -0.412 N 
HETATM   19  H   UNK N   1      32.156  12.949   8.354  0.00  0.00     0.153 HD
BRANCH  18  20
HETATM   20  C   UNK N   1      33.646  12.945   6.725  0.00  0.00     0.110 C 
HETATM   21  C   UNK N   1      34.466  11.792   7.267  0.00  0.00     0.026 C 
ENDBRANCH  18  20
ENDBRANCH   4  18
BRANCH   7  22
HETATM   22  C   UNK N   1      33.258  17.614   5.599  0.00  0.00     0.161 C 
BRANCH  22  23
HETATM   23  C   UNK N   1      32.149  16.763   4.996  0.00  0.00     0.187 C 
BRANCH  23  24
HETATM   24  O   UNK N   1      30.935  17.448   5.093  0.00  0.00    -0.394 OA
HETATM   25  C   UNK N   1      30.373  17.020   6.297  0.00  0.00     0.201 C 
ENDBRANCH  23  24
ENDBRANCH  22  23
ENDBRANCH   7  22
TORSDOF 7
ENDMDL
MODEL 2
REMARK VINA RESULT:      -5.6      3.819      5.778
REMARK  7 active torsions:
REMARK  status: ('A' for Active; 'I' for Inactive)
REMARK    1  A    between atoms: N_13  and  C_3 
REMARK    2  A    between atoms: C_5  and  C_4 
REMARK    3  A    between atoms: N_14  and  C_4 
REMARK    4  A    between atoms: O_19  and  C_5 
REMARK    5  A    between atoms: C_9  and  N_13 
REMARK    6  A    between atoms: S_21  and  C_10 
REMARK    7  A    between atoms: S_21  and  N_12 
ROOT
HETATM    1  C   UNK N   1      32.133  16.695   6.687  0.00  0.00     0.044 A 
HETATM    2  C   UNK N   1      29.017  17.296   4.727  0.00  0.00     0.165 C 
HETATM    3  C   UNK N   1      30.715  16.770   6.506  0.00  0.00    -0.002 A 
HETATM    4  C   UNK N   1      29.912  16.196   5.358  0.00  0.00     0.130 C 
HETATM    5  C   UNK N   1      32.553  17.358   7.846  0.00  0.00     0.121 A 
HETATM    6  C   UNK N   1      30.078  17.478   7.503  0.00  0.00     0.130 A 
HETATM    7  N   UNK N   1      27.996  17.900   5.622  0.00  0.00    -0.302 N 
HETATM    8  O   UNK N   1      27.400  16.837   8.002  0.00  0.00    -0.200 OA
HETATM    9  O   UNK N   1      27.943  19.227   7.902  0.00  0.00    -0.200 OA
HETATM   10  S   UNK N   1      31.212  18.015   8.574  0.00  0.00    -0.062 SA
HETATM   11  S   UNK N   1      28.363  17.851   7.366  0.00  0.00     0.268 S 
ENDROOT
BRANCH   5  12
HETATM   12  S   UNK N   1      34.239  17.518   8.415  0.00  0.00     0.263 S 
HETATM   13  O   UNK N   1      34.789  18.941   8.250  0.00  0.00    -0.200 OA
HETATM   14  O   UNK N   1      35.235  16.679   7.602  0.00  0.00    -0.200 OA
BRANCH  12  15
HETATM   15  N   UNK N   1      34.560  17.109  10.101  0.00  0.00    -0.324 N 
HETATM   16  H   UNK N   1      35.475  16.784  10.412  0.00  0.00     0.169 HD
HETATM   17  H   UNK N   1      33.809  17.200  10.785  0.00  0.00     0.169 HD
ENDBRANCH  12  15
ENDBRANCH   5  12
BRANCH   4  18
HETATM   18  N   UNK N   1      30.779  15.640   4.317  0.00  0.00    -0.412 N 
HETATM   19  H   UNK N   1      31.277  14.752   4.386  0.00  0.00     0.153 HD
BRANCH  18  20
HETATM   20  C   UNK N   1      30.829  16.536   3.166  0.00  0.00     0.110 C 
HETATM   21  C   UNK N   1      32.262  16.969   2.930  0.00  0.00     0.026 C 
ENDBRANCH  18  20
ENDBRANCH   4  18
BRANCH   7  22
HETATM   22  C   UNK N   1      26.612  17.571   5.278  0.00  0.00     0.161 C 
BRANCH  22  23
HETATM   23  C   UNK N   1      25.780  18.789   4.903  0.00  0.00     0.187 C 
BRANCH  23  24
HETATM   24  O   UNK N   1      25.871  19.004   3.525  0.00  0.00    -0.394 OA
HETATM   25  C   UNK N   1      26.396  20.291   3.393  0.00  0.00     0.201 C 
ENDBRANCH  23  24
ENDBRANCH  22  23
ENDBRANCH   7  22
TORSDOF 7
ENDMDL
MODEL 3
REMARK VINA RESULT:      -5.6      3.571      8.218
REMARK  7 active torsions:
REMARK  status: ('A' for Active; 'I' for Inactive)
REMARK    1  A    between atoms: N_13  and  C_3 
REMARK    2  A    between atoms: C_5  and  C_4 
REMARK    3  A    between atoms: N_14  and  C_4 
REMARK    4  A    between atoms: O_19  and  C_5 
REMARK    5  A    between atoms: C_9  and  N_13 
REMARK    6  A    between atoms: S_21  and  C_10 
REMARK    7  A    between atoms: S_21  and  N_12 
ROOT
HETATM    1  C   UNK N   1      35.364  15.321  11.607  0.00  0.00     0.044 A 
HETATM    2  C   UNK N   1      37.138  12.582  13.413  0.00  0.00     0.165 C 
HETATM    3  C   UNK N   1      35.460  14.037  12.233  0.00  0.00    -0.002 A 
HETATM    4  C   UNK N   1      36.098  13.722  13.571  0.00  0.00     0.130 C 
HETATM    5  C   UNK N   1      34.737  15.251  10.358  0.00  0.00     0.121 A 
HETATM    6  C   UNK N   1      34.922  13.020  11.473  0.00  0.00     0.130 A 
HETATM    7  N   UNK N   1      36.608  11.275  12.944  0.00  0.00    -0.302 N 
HETATM    8  O   UNK N   1      33.984  10.770  12.847  0.00  0.00    -0.200 OA
HETATM    9  O   UNK N   1      35.323  10.335  10.839  0.00  0.00    -0.200 OA
HETATM   10  S   UNK N   1      34.354  13.662  10.064  0.00  0.00    -0.062 SA
HETATM   11  S   UNK N   1      35.112  11.344  11.977  0.00  0.00     0.268 S 
ENDROOT
BRANCH   5  12
HETATM   12  S   UNK N   1      34.444  16.622   9.249  0.00  0.00     0.263 S 
HETATM   13  O   UNK N   1      34.868  16.318   7.805  0.00  0.00    -0.200 OA
HETATM   14  O   UNK N   1      35.281  17.864   9.587  0.00  0.00    -0.200 OA
BRANCH  12  15
HETATM   15  N   UNK N   1      32.786  17.206   9.113  0.00  0.00    -0.324 N 
HETATM   16  H   UNK N   1      32.188  16.953   8.326  0.00  0.00     0.169 HD
HETATM   17  H   UNK N   1      32.412  17.814   9.842  0.00  0.00     0.169 HD
ENDBRANCH  12  15
ENDBRANCH   5  12
BRANCH   4  18
HETATM   18  N   UNK N   1      36.768  14.895  14.139  0.00  0.00    -0.412 N 
HETATM   19  H   UNK N   1      36.968  15.755  13.630  0.00  0.00     0.153 HD
BRANCH  18  20
HETATM   20  C   UNK N   1      37.108  14.656  15.538  0.00  0.00     0.110 C 
HETATM   21  C   UNK N   1      37.467  15.972  16.199  0.00  0.00     0.026 C 
ENDBRANCH  18  20
ENDBRANCH   4  18
BRANCH   7  22
HETATM   22  C   UNK N   1      36.641  10.208  13.945  0.00  0.00     0.161 C 
BRANCH  22  23
HETATM   23  C   UNK N   1      36.742  10.728  15.373  0.00  0.00     0.187 C 
BRANCH  23  24
HETATM   24  O   UNK N   1      35.543  10.474  16.044  0.00  0.00    -0.394 OA
HETATM   25  C   UNK N   1      35.220  11.677  16.674  0.00  0.00     0.201 C 
ENDBRANCH  23  24
ENDBRANCH  22  23
ENDBRANCH   7  22
TORSDOF 7
ENDMDL
MODEL 4
REMARK VINA RESULT:      -5.4      2.346      3.211
REMARK  7 active torsions:
REMARK  status: ('A' for Active; 'I' for Inactive)
REMARK    1  A    between atoms: N_13  and  C_3 
REMARK    2  A    between atoms: C_5  and  C_4 
REMARK    3  A    between atoms: N_14  and  C_4 
REMARK    4  A    between atoms: O_19  and  C_5 
REMARK    5  A    between atoms: C_9  and  N_13 
REMARK    6  A    between atoms: S_21  and  C_10 
REMARK    7  A    between atoms: S_21  and  N_12 
ROOT
HETATM    1  C   UNK N   1      33.453  15.172  10.202  0.00  0.00     0.044 A 
HETATM    2  C   UNK N   1      31.381  16.108   7.245  0.00  0.00     0.165 C 
HETATM    3  C   UNK N   1      33.189  15.863   8.977  0.00  0.00    -0.002 A 
HETATM    4  C   UNK N   1      31.924  16.612   8.609  0.00  0.00     0.130 C 
HETATM    5  C   UNK N   1      34.713  14.563  10.201  0.00  0.00     0.121 A 
HETATM    6  C   UNK N   1      34.223  15.775   8.069  0.00  0.00     0.130 A 
HETATM    7  N   UNK N   1      32.275  16.302   6.074  0.00  0.00    -0.302 N 
HETATM    8  O   UNK N   1      34.453  17.848   6.203  0.00  0.00    -0.200 OA
HETATM    9  O   UNK N   1      34.699  15.569   5.330  0.00  0.00    -0.200 OA
HETATM   10  S   UNK N   1      35.428  14.866   8.732  0.00  0.00    -0.062 SA
HETATM   11  S   UNK N   1      34.019  16.393   6.433  0.00  0.00     0.268 S 
ENDROOT
BRANCH   5  12
HETATM   12  S   UNK N   1      35.411  13.587  11.525  0.00  0.00     0.263 S 
HETATM   13  O   UNK N   1      35.239  12.077  11.304  0.00  0.00    -0.200 OA
HETATM   14  O   UNK N   1      34.713  13.808  12.874  0.00  0.00    -0.200 OA
BRANCH  12  15
HETATM   15  N   UNK N   1      37.131  13.795  11.857  0.00  0.00    -0.324 N 
HETATM   16  H   UNK N   1      37.515  13.697  12.797  0.00  0.00     0.169 HD
HETATM   17  H   UNK N   1      37.762  14.019  11.086  0.00  0.00     0.169 HD
ENDBRANCH  12  15
ENDBRANCH   5  12
BRANCH   4  18
HETATM   18  N   UNK N   1      30.881  16.442   9.623  0.00  0.00    -0.412 N 
HETATM   19  H   UNK N   1      30.975  15.877  10.467  0.00  0.00     0.153 HD
BRANCH  18  20
HETATM   20  C   UNK N   1      29.687  17.196   9.254  0.00  0.00     0.110 C 
HETATM   21  C   UNK N   1      29.800  18.608   9.794  0.00  0.00     0.026 C 
ENDBRANCH  18  20
ENDBRANCH   4  18
BRANCH   7  22
HETATM   22  C   UNK N   1      31.799  17.284   5.099  0.00  0.00     0.161 C 
BRANCH  22  23
HETATM   23  C   UNK N   1      30.885  16.684   4.039  0.00  0.00     0.187 C 
BRANCH  23  24
HETATM   24  O   UNK N   1      31.513  15.578   3.460  0.00  0.00    -0.394 OA
HETATM   25  C   UNK N   1      30.477  14.698   3.144  0.00  0.00     0.201 C 
ENDBRANCH  23  24
ENDBRANCH  22  23
ENDBRANCH   7  22
TORSDOF 7
ENDMDL
MODEL 5
REMARK VINA RESULT:      -5.3      3.166      7.349
REMARK  7 active torsions:
REMARK  status: ('A' for Active; 'I' for Inactive)
REMARK    1  A    between atoms: N_13  and  C_3 
REMARK    2  A    between atoms: C_5  and  C_4 
REMARK    3  A    between atoms: N_14  and  C_4 
REMARK    4  A    between atoms: O_19  and  C_5 
REMARK    5  A    between atoms: C_9  and  N_13 
REMARK    6  A    between atoms: S_21  and  C_10 
REMARK    7  A    between atoms: S_21  and  N_12 
ROOT
HETATM    1  C   UNK N   1      35.200  16.027  10.023  0.00  0.00     0.044 A 
HETATM    2  C   UNK N   1      37.433  13.324  11.295  0.00  0.00     0.165 C 
HETATM    3  C   UNK N   1      35.603  14.667  10.212  0.00  0.00    -0.002 A 
HETATM    4  C   UNK N   1      36.065  14.025  11.504  0.00  0.00     0.130 C 
HETATM    5  C   UNK N   1      34.859  16.296   8.693  0.00  0.00     0.121 A 
HETATM    6  C   UNK N   1      35.570  13.925   9.050  0.00  0.00     0.130 A 
HETATM    7  N   UNK N   1      37.454  12.214  10.307  0.00  0.00    -0.302 N 
HETATM    8  O   UNK N   1      35.202  11.163   9.318  0.00  0.00    -0.200 OA
HETATM    9  O   UNK N   1      36.938  11.879   7.740  0.00  0.00    -0.200 OA
HETATM   10  S   UNK N   1      35.078  14.902   7.816  0.00  0.00    -0.062 SA
HETATM   11  S   UNK N   1      36.211  12.285   9.030  0.00  0.00     0.268 S 
ENDROOT
BRANCH   5  12
HETATM   12  S   UNK N   1      34.329  17.872   8.039  0.00  0.00     0.263 S 
HETATM   13  O   UNK N   1      34.444  17.950   6.510  0.00  0.00    -0.200 OA
HETATM   14  O   UNK N   1      35.207  19.044   8.499  0.00  0.00    -0.200 OA
BRANCH  12  15
HETATM   15  N   UNK N   1      32.674  18.372   8.388  0.00  0.00    -0.324 N 
HETATM   16  H   UNK N   1      31.878  17.757   8.219  0.00  0.00     0.169 HD
HETATM   17  H   UNK N   1      32.507  19.304   8.769  0.00  0.00     0.169 HD
ENDBRANCH  12  15
ENDBRANCH   5  12
BRANCH   4  18
HETATM   18  N   UNK N   1      36.201  15.011  12.579  0.00  0.00    -0.412 N 
HETATM   19  H   UNK N   1      36.126  16.021  12.456  0.00  0.00     0.153 HD
BRANCH  18  20
HETATM   20  C   UNK N   1      36.459  14.343  13.851  0.00  0.00     0.110 C 
HETATM   21  C   UNK N   1      35.302  13.421  14.176  0.00  0.00     0.026 C 
ENDBRANCH  18  20
ENDBRANCH   4  18
BRANCH   7  22
HETATM   22  C   UNK N   1      37.661  10.886  10.886  0.00  0.00     0.161 C 
BRANCH  22  23
HETATM   23  C   UNK N   1      37.085  10.746  12.288  0.00  0.00     0.187 C 
BRANCH  23  24
HETATM   24  O   UNK N   1      38.022  10.118  13.112  0.00  0.00    -0.394 OA
HETATM   25  C   UNK N   1      38.119  10.935  14.239  0.00  0.00     0.201 C 
ENDBRANCH  23  24
ENDBRANCH  22  23
ENDBRANCH   7  22
TORSDOF 7
ENDMDL
MODEL 6
REMARK VINA RESULT:      -5.3      3.656      7.558
REMARK  7 active torsions:
REMARK  status: ('A' for Active; 'I' for Inactive)
REMARK    1  A    between atoms: N_13  and  C_3 
REMARK    2  A    between atoms: C_5  and  C_4 
REMARK    3  A    between atoms: N_14  and  C_4 
REMARK    4  A    between atoms: O_19  and  C_5 
REMARK    5  A    between atoms: C_9  and  N_13 
REMARK    6  A    between atoms: S_21  and  C_10 
REMARK    7  A    between atoms: S_21  and  N_12 
ROOT
HETATM    1  C   UNK N   1      30.064  16.994   6.308  0.00  0.00     0.044 A 
HETATM    2  C   UNK N   1      32.927  17.194   8.689  0.00  0.00     0.165 C 
HETATM    3  C   UNK N   1      30.993  16.463   7.258  0.00  0.00    -0.002 A 
HETATM    4  C   UNK N   1      31.384  17.072   8.589  0.00  0.00     0.130 C 
HETATM    5  C   UNK N   1      29.958  16.189   5.168  0.00  0.00     0.121 A 
HETATM    6  C   UNK N   1      31.579  15.285   6.844  0.00  0.00     0.130 A 
HETATM    7  N   UNK N   1      33.688  15.918   8.634  0.00  0.00    -0.302 N 
HETATM    8  O   UNK N   1      32.476  13.543   8.843  0.00  0.00    -0.200 OA
HETATM    9  O   UNK N   1      33.999  13.906   6.955  0.00  0.00    -0.200 OA
HETATM   10  S   UNK N   1      30.994  14.903   5.350  0.00  0.00    -0.062 SA
HETATM   11  S   UNK N   1      32.889  14.572   7.780  0.00  0.00     0.268 S 
ENDROOT
BRANCH   5  12
HETATM   12  S   UNK N   1      28.929  16.512   3.743  0.00  0.00     0.263 S 
HETATM   13  O   UNK N   1      27.803  15.482   3.579  0.00  0.00    -0.200 OA
HETATM   14  O   UNK N   1      29.684  16.396   2.412  0.00  0.00    -0.200 OA
BRANCH  12  15
HETATM   15  N   UNK N   1      28.115  18.076   3.677  0.00  0.00    -0.324 N 
HETATM   16  H   UNK N   1      28.499  18.903   4.135  0.00  0.00     0.169 HD
HETATM   17  H   UNK N   1      27.236  18.157   3.166  0.00  0.00     0.169 HD
ENDBRANCH  12  15
ENDBRANCH   5  12
BRANCH   4  18
HETATM   18  N   UNK N   1      30.794  18.401   8.768  0.00  0.00    -0.412 N 
HETATM   19  H   UNK N   1      31.076  19.238   8.257  0.00  0.00     0.153 HD
BRANCH  18  20
HETATM   20  C   UNK N   1      29.745  18.359   9.782  0.00  0.00     0.110 C 
HETATM   21  C   UNK N   1      28.391  18.443   9.106  0.00  0.00     0.026 C 
ENDBRANCH  18  20
ENDBRANCH   4  18
BRANCH   7  22
HETATM   22  C   UNK N   1      34.343  15.544   9.888  0.00  0.00     0.161 C 
BRANCH  22  23
HETATM   23  C   UNK N   1      35.094  16.697  10.541  0.00  0.00     0.187 C 
BRANCH  23  24
HETATM   24  O   UNK N   1      36.456  16.390  10.593  0.00  0.00    -0.394 OA
HETATM   25  C   UNK N   1      36.510  15.004  10.748  0.00  0.00     0.201 C 
ENDBRANCH  23  24
ENDBRANCH  22  23
ENDBRANCH   7  22
TORSDOF 7
ENDMDL
MODEL 7
REMARK VINA RESULT:      -5.3      8.209     12.343
REMARK  7 active torsions:
REMARK  status: ('A' for Active; 'I' for Inactive)
REMARK    1  A    between atoms: N_13  and  C_3 
REMARK    2  A    between atoms: C_5  and  C_4 
REMARK    3  A    between atoms: N_14  and  C_4 
REMARK    4  A    between atoms: O_19  and  C_5 
REMARK    5  A    between atoms: C_9  and  N_13 
REMARK    6  A    between atoms: S_21  and  C_10 
REMARK    7  A    between atoms: S_21  and  N_12 
ROOT
HETATM    1  C   UNK N   1      23.728  19.595   3.757  0.00  0.00     0.044 A 
HETATM    2  C   UNK N   1      26.949  17.732   4.001  0.00  0.00     0.165 C 
HETATM    3  C   UNK N   1      24.616  18.618   4.308  0.00  0.00    -0.002 A 
HETATM    4  C   UNK N   1      26.071  18.817   4.679  0.00  0.00     0.130 C 
HETATM    5  C   UNK N   1      22.455  19.069   3.505  0.00  0.00     0.121 A 
HETATM    6  C   UNK N   1      24.029  17.380   4.468  0.00  0.00     0.130 A 
HETATM    7  N   UNK N   1      26.662  16.325   4.385  0.00  0.00    -0.302 N 
HETATM    8  O   UNK N   1      25.086  15.722   6.459  0.00  0.00    -0.200 OA
HETATM    9  O   UNK N   1      24.617  14.660   4.299  0.00  0.00    -0.200 OA
HETATM   10  S   UNK N   1      22.470  17.464   3.936  0.00  0.00    -0.062 SA
HETATM   11  S   UNK N   1      25.004  15.996   4.950  0.00  0.00     0.268 S 
ENDROOT
BRANCH   5  12
HETATM   12  S   UNK N   1      21.072  19.951   2.798  0.00  0.00     0.263 S 
HETATM   13  O   UNK N   1      21.507  21.060   1.830  0.00  0.00    -0.200 OA
HETATM   14  O   UNK N   1      20.249  20.722   3.839  0.00  0.00    -0.200 OA
BRANCH  12  15
HETATM   15  N   UNK N   1      19.894  19.004   1.889  0.00  0.00    -0.324 N 
HETATM   16  H   UNK N   1      20.047  18.019   1.670  0.00  0.00     0.169 HD
HETATM   17  H   UNK N   1      19.034  19.453   1.573  0.00  0.00     0.169 HD
ENDBRANCH  12  15
ENDBRANCH   5  12
BRANCH   4  18
HETATM   18  N   UNK N   1      26.557  20.138   4.273  0.00  0.00    -0.412 N 
HETATM   19  H   UNK N   1      26.241  20.645   3.447  0.00  0.00     0.153 HD
BRANCH  18  20
HETATM   20  C   UNK N   1      27.556  20.624   5.220  0.00  0.00     0.110 C 
HETATM   21  C   UNK N   1      26.878  21.484   6.266  0.00  0.00     0.026 C 
ENDBRANCH  18  20
ENDBRANCH   4  18
BRANCH   7  22
HETATM   22  C   UNK N   1      27.716  15.680   5.170  0.00  0.00     0.161 C 
BRANCH  22  23
HETATM   23  C   UNK N   1      28.595  16.669   5.922  0.00  0.00     0.187 C 
BRANCH  23  24
HETATM   24  O   UNK N   1      28.176  16.741   7.253  0.00  0.00    -0.394 OA
HETATM   25  C   UNK N   1      28.402  18.065   7.633  0.00  0.00     0.201 C 
ENDBRANCH  23  24
ENDBRANCH  22  23
ENDBRANCH   7  22
TORSDOF 7
ENDMDL
MODEL 8
REMARK VINA RESULT:      -5.2      4.519      6.312
REMARK  7 active torsions:
REMARK  status: ('A' for Active; 'I' for Inactive)
REMARK    1  A    between atoms: N_13  and  C_3 
REMARK    2  A    between atoms: C_5  and  C_4 
REMARK    3  A    between atoms: N_14  and  C_4 
REMARK    4  A    between atoms: O_19  and  C_5 
REMARK    5  A    between atoms: C_9  and  N_13 
REMARK    6  A    between atoms: S_21  and  C_10 
REMARK    7  A    between atoms: S_21  and  N_12 
ROOT
HETATM    1  C   UNK N   1      29.828  17.572   6.538  0.00  0.00     0.044 A 
HETATM    2  C   UNK N   1      31.499  15.489   3.934  0.00  0.00     0.165 C 
HETATM    3  C   UNK N   1      30.958  17.035   5.843  0.00  0.00    -0.002 A 
HETATM    4  C   UNK N   1      31.145  16.944   4.342  0.00  0.00     0.130 C 
HETATM    5  C   UNK N   1      29.969  17.475   7.927  0.00  0.00     0.121 A 
HETATM    6  C   UNK N   1      31.930  16.540   6.687  0.00  0.00     0.130 A 
HETATM    7  N   UNK N   1      32.763  14.944   4.494  0.00  0.00    -0.302 N 
HETATM    8  O   UNK N   1      34.555  16.506   5.718  0.00  0.00    -0.200 OA
HETATM    9  O   UNK N   1      33.800  14.481   6.876  0.00  0.00    -0.200 OA
HETATM   10  S   UNK N   1      31.423  16.735   8.244  0.00  0.00    -0.062 SA
HETATM   11  S   UNK N   1      33.309  15.665   6.031  0.00  0.00     0.268 S 
ENDROOT
BRANCH   5  12
HETATM   12  S   UNK N   1      28.776  18.005   9.146  0.00  0.00     0.263 S 
HETATM   13  O   UNK N   1      29.422  18.738  10.331  0.00  0.00    -0.200 OA
HETATM   14  O   UNK N   1      28.051  16.839   9.832  0.00  0.00    -0.200 OA
BRANCH  12  15
HETATM   15  N   UNK N   1      27.494  19.086   8.599  0.00  0.00    -0.324 N 
HETATM   16  H   UNK N   1      26.534  18.996   8.932  0.00  0.00     0.169 HD
HETATM   17  H   UNK N   1      27.719  19.824   7.931  0.00  0.00     0.169 HD
ENDBRANCH  12  15
ENDBRANCH   5  12
BRANCH   4  18
HETATM   18  N   UNK N   1      29.937  17.354   3.622  0.00  0.00    -0.412 N 
HETATM   19  H   UNK N   1      29.560  18.301   3.610  0.00  0.00     0.153 HD
BRANCH  18  20
HETATM   20  C   UNK N   1      29.351  16.214   2.924  0.00  0.00     0.110 C 
HETATM   21  C   UNK N   1      27.862  16.169   3.199  0.00  0.00     0.026 C 
ENDBRANCH  18  20
ENDBRANCH   4  18
BRANCH   7  22
HETATM   22  C   UNK N   1      33.824  14.727   3.509  0.00  0.00     0.161 C 
BRANCH  22  23
HETATM   23  C   UNK N   1      34.234  13.267   3.379  0.00  0.00     0.187 C 
BRANCH  23  24
HETATM   24  O   UNK N   1      33.137  12.514   2.955  0.00  0.00    -0.394 OA
HETATM   25  C   UNK N   1      33.074  12.710   1.575  0.00  0.00     0.201 C 
ENDBRANCH  23  24
ENDBRANCH  22  23
ENDBRANCH   7  22
TORSDOF 7
ENDMDL
MODEL 9
REMARK VINA RESULT:      -5.1     10.369     12.247
REMARK  7 active torsions:
REMARK  status: ('A' for Active; 'I' for Inactive)
REMARK    1  A    between atoms: N_13  and  C_3 
REMARK    2  A    between atoms: C_5  and  C_4 
REMARK    3  A    between atoms: N_14  and  C_4 
REMARK    4  A    between atoms: O_19  and  C_5 
REMARK    5  A    between atoms: C_9  and  N_13 
REMARK    6  A    between atoms: S_21  and  C_10 
REMARK    7  A    between atoms: S_21  and  N_12 
ROOT
HETATM    1  C   UNK N   1      23.162  13.672   8.092  0.00  0.00     0.044 A 
HETATM    2  C   UNK N   1      22.582  16.663   5.941  0.00  0.00     0.165 C 
HETATM    3  C   UNK N   1      22.364  14.559   7.301  0.00  0.00    -0.002 A 
HETATM    4  C   UNK N   1      22.706  15.117   5.934  0.00  0.00     0.130 C 
HETATM    5  C   UNK N   1      22.559  13.375   9.320  0.00  0.00     0.121 A 
HETATM    6  C   UNK N   1      21.187  14.927   7.918  0.00  0.00     0.130 A 
HETATM    7  N   UNK N   1      21.230  17.209   6.231  0.00  0.00    -0.302 N 
HETATM    8  O   UNK N   1      19.056  15.652   6.255  0.00  0.00    -0.200 OA
HETATM    9  O   UNK N   1      19.465  17.103   8.190  0.00  0.00    -0.200 OA
HETATM   10  S   UNK N   1      21.121  14.204   9.399  0.00  0.00    -0.062 SA
HETATM   11  S   UNK N   1      20.159  16.160   7.196  0.00  0.00     0.268 S 
ENDROOT
BRANCH   5  12
HETATM   12  S   UNK N   1      23.237  12.330  10.600  0.00  0.00     0.263 S 
HETATM   13  O   UNK N   1      23.119  10.835  10.271  0.00  0.00    -0.200 OA
HETATM   14  O   UNK N   1      22.484  12.438  11.933  0.00  0.00    -0.200 OA
BRANCH  12  15
HETATM   15  N   UNK N   1      24.937  12.562  11.011  0.00  0.00    -0.324 N 
HETATM   16  H   UNK N   1      25.395  12.014  11.739  0.00  0.00     0.169 HD
HETATM   17  H   UNK N   1      25.478  13.263  10.505  0.00  0.00     0.169 HD
ENDBRANCH  12  15
ENDBRANCH   5  12
BRANCH   4  18
HETATM   18  N   UNK N   1      24.066  14.755   5.528  0.00  0.00    -0.412 N 
HETATM   19  H   UNK N   1      24.440  13.806   5.521  0.00  0.00     0.153 HD
BRANCH  18  20
HETATM   20  C   UNK N   1      24.812  15.947   5.135  0.00  0.00     0.110 C 
HETATM   21  C   UNK N   1      26.203  15.888   5.733  0.00  0.00     0.026 C 
ENDBRANCH  18  20
ENDBRANCH   4  18
BRANCH   7  22
HETATM   22  C   UNK N   1      20.582  17.868   5.097  0.00  0.00     0.161 C 
BRANCH  22  23
HETATM   23  C   UNK N   1      21.449  18.940   4.450  0.00  0.00     0.187 C 
BRANCH  23  24
HETATM   24  O   UNK N   1      20.664  20.062   4.170  0.00  0.00    -0.394 OA
HETATM   25  C   UNK N   1      21.030  20.447   2.880  0.00  0.00     0.201 C 
ENDBRANCH  23  24
ENDBRANCH  22  23
ENDBRANCH   7  22
TORSDOF 7
ENDMDL
