MODEL 1
REMARK VINA RESULT:      -7.6      0.000      0.000
REMARK  19 active torsions:
REMARK  status: ('A' for Active; 'I' for Inactive)
REMARK    1  A    between atoms: C_10  and  C_5 
REMARK    2  A    between atoms: O_26  and  C_5 
REMARK    3  A    between atoms: C_11  and  C_6 
REMARK    4  A    between atoms: O_27  and  C_6 
REMARK    5  A    between atoms: C_12  and  C_7 
REMARK    6  A    between atoms: O_28  and  C_7 
REMARK    7  A    between atoms: N_25  and  C_8 
REMARK    8  A    between atoms: O_38  and  C_9 
REMARK    9  A    between atoms: C_13  and  O_29 
REMARK   10  A    between atoms: C_15  and  O_31 
REMARK   11  A    between atoms: C_16  and  O_32 
REMARK   12  A    between atoms: C_17  and  O_33 
REMARK   13  A    between atoms: O_34  and  C_18 
REMARK   14  A    between atoms: C_19  and  O_35 
REMARK   15  A    between atoms: O_42  and  C_20 
REMARK   16  A    between atoms: C_21  and  S_43 
REMARK   17  A    between atoms: O_38  and  C_22 
REMARK   18  A    between atoms: C_23  and  O_42 
REMARK   19  A    between atoms: C_24  and  S_43 
ROOT
HETATM    1  C   UNK N   1      37.526  13.435  10.591  0.00  0.00     0.179 C 
HETATM    2  C   UNK N   1      36.746  13.446   9.258  0.00  0.00     0.181 C 
HETATM    3  C   UNK N   1      34.689  13.553  10.602  0.00  0.00     0.205 C 
HETATM    4  C   UNK N   1      35.465  14.239   9.516  0.00  0.00     0.189 C 
HETATM    5  C   UNK N   1      35.552  13.601  11.892  0.00  0.00     0.298 C 
HETATM    6  O   UNK N   1      36.469  12.146   8.816  0.00  0.00    -0.390 OA
HETATM    7  O   UNK N   1      36.766  12.875  11.671  0.00  0.00    -0.348 OA
HETATM    8  H   UNK N   1      36.331  11.289   8.383  0.00  0.00     0.210 HD
ENDROOT
BRANCH   1   9
HETATM    9  C   UNK N   1      38.820  12.658  10.388  0.00  0.00     0.198 C 
BRANCH   9  10
HETATM   10  O   UNK N   1      39.279  12.811   9.080  0.00  0.00    -0.398 OA
HETATM   11  H   UNK N   1      38.843  13.318   8.378  0.00  0.00     0.209 HD
ENDBRANCH   9  10
ENDBRANCH   1   9
BRANCH   4  12
HETATM   12  O   UNK N   1      34.652  14.352   8.383  0.00  0.00    -0.348 OA
BRANCH  12  13
HETATM   13  C   UNK N   1      35.381  14.831   7.248  0.00  0.00     0.290 C 
HETATM   14  C   UNK N   1      34.613  15.984   6.594  0.00  0.00     0.189 C 
HETATM   15  C   UNK N   1      33.168  15.507   6.498  0.00  0.00     0.115 C 
HETATM   16  C   UNK N   1      33.124  14.153   5.736  0.00  0.00     0.165 C 
HETATM   17  C   UNK N   1      34.415  13.256   5.746  0.00  0.00     0.178 C 
HETATM   18  O   UNK N   1      35.596  13.803   6.302  0.00  0.00    -0.349 OA
BRANCH  14  19
HETATM   19  O   UNK N   1      34.694  17.119   7.406  0.00  0.00    -0.389 OA
HETATM   20  H   UNK N   1      35.505  17.556   7.710  0.00  0.00     0.210 HD
ENDBRANCH  14  19
BRANCH  15  21
HETATM   21  S   UNK N   1      32.013  16.882   6.026  0.00  0.00    -0.124 SA
BRANCH  21  22
HETATM   22  C   UNK N   1      30.685  16.900   7.283  0.00  0.00     0.215 C 
HETATM   23  C   UNK N   1      30.945  18.049   8.265  0.00  0.00     0.188 C 
HETATM   24  C   UNK N   1      29.824  18.060   9.294  0.00  0.00     0.181 C 
HETATM   25  C   UNK N   1      28.539  18.329   8.524  0.00  0.00     0.180 C 
HETATM   26  C   UNK N   1      28.290  17.271   7.422  0.00  0.00     0.178 C 
HETATM   27  O   UNK N   1      29.425  16.928   6.638  0.00  0.00    -0.363 OA
BRANCH  23  28
HETATM   28  O   UNK N   1      32.179  17.877   8.898  0.00  0.00    -0.389 OA
HETATM   29  H   UNK N   1      32.676  18.648   9.211  0.00  0.00     0.210 HD
ENDBRANCH  23  28
BRANCH  24  30
HETATM   30  O   UNK N   1      29.759  16.837   9.973  0.00  0.00    -0.390 OA
HETATM   31  H   UNK N   1      30.061  15.916   9.919  0.00  0.00     0.210 HD
ENDBRANCH  24  30
BRANCH  25  32
HETATM   32  O   UNK N   1      27.449  18.374   9.396  0.00  0.00    -0.390 OA
HETATM   33  H   UNK N   1      27.578  18.478  10.352  0.00  0.00     0.210 HD
ENDBRANCH  25  32
BRANCH  26  34
HETATM   34  C   UNK N   1      27.275  17.884   6.448  0.00  0.00     0.198 C 
BRANCH  34  35
HETATM   35  O   UNK N   1      27.071  19.242   6.672  0.00  0.00    -0.398 OA
HETATM   36  H   UNK N   1      27.123  19.942   6.002  0.00  0.00     0.209 HD
ENDBRANCH  34  35
ENDBRANCH  26  34
ENDBRANCH  21  22
ENDBRANCH  15  21
BRANCH  16  37
HETATM   37  O   UNK N   1      32.027  13.415   6.203  0.00  0.00    -0.392 OA
HETATM   38  H   UNK N   1      31.223  12.995   5.859  0.00  0.00     0.210 HD
ENDBRANCH  16  37
BRANCH  17  39
HETATM   39  C   UNK N   1      34.199  11.826   6.246  0.00  0.00     0.198 C 
BRANCH  39  40
HETATM   40  O   UNK N   1      33.735  11.808   7.565  0.00  0.00    -0.398 OA
HETATM   41  H   UNK N   1      32.868  11.990   7.960  0.00  0.00     0.209 HD
ENDBRANCH  39  40
ENDBRANCH  17  39
ENDBRANCH  12  13
ENDBRANCH   4  12
BRANCH   3  42
HETATM   42  O   UNK N   1      34.354  12.232  10.273  0.00  0.00    -0.388 OA
HETATM   43  H   UNK N   1      34.302  11.272  10.142  0.00  0.00     0.210 HD
ENDBRANCH   3  42
BRANCH   5  44
HETATM   44  O   UNK N   1      34.838  13.046  12.957  0.00  0.00    -0.318 OA
BRANCH  44  45
HETATM   45  C   UNK N   1      35.318  13.094  14.232  0.00  0.00     0.072 C 
HETATM   46  C   UNK N   1      34.578  12.468  15.233  0.00  0.00     0.039 C 
HETATM   47  C   UNK N   1      34.753  12.839  16.566  0.00  0.00     0.039 C 
HETATM   48  C   UNK N   1      35.666  13.850  16.908  0.00  0.00     0.103 C 
HETATM   49  C   UNK N   1      36.511  14.373  15.918  0.00  0.00     0.039 C 
HETATM   50  C   UNK N   1      36.355  13.982  14.589  0.00  0.00     0.039 C 
BRANCH  48  51
HETATM   51  N   UNK N   1      35.662  14.398  18.223  0.00  0.00    -0.116 N 
HETATM   52  O   UNK N   1      36.127  15.475  18.425  0.00  0.00    -0.532 OA
HETATM   53  O   UNK N   1      35.353  13.709  19.154  0.00  0.00    -0.532 OA
ENDBRANCH  48  51
ENDBRANCH  44  45
ENDBRANCH   5  44
TORSDOF 19
ENDMDL
MODEL 2
REMARK VINA RESULT:      -7.6      5.085     10.118
REMARK  19 active torsions:
REMARK  status: ('A' for Active; 'I' for Inactive)
REMARK    1  A    between atoms: C_10  and  C_5 
REMARK    2  A    between atoms: O_26  and  C_5 
REMARK    3  A    between atoms: C_11  and  C_6 
REMARK    4  A    between atoms: O_27  and  C_6 
REMARK    5  A    between atoms: C_12  and  C_7 
REMARK    6  A    between atoms: O_28  and  C_7 
REMARK    7  A    between atoms: N_25  and  C_8 
REMARK    8  A    between atoms: O_38  and  C_9 
REMARK    9  A    between atoms: C_13  and  O_29 
REMARK   10  A    between atoms: C_15  and  O_31 
REMARK   11  A    between atoms: C_16  and  O_32 
REMARK   12  A    between atoms: C_17  and  O_33 
REMARK   13  A    between atoms: O_34  and  C_18 
REMARK   14  A    between atoms: C_19  and  O_35 
REMARK   15  A    between atoms: O_42  and  C_20 
REMARK   16  A    between atoms: C_21  and  S_43 
REMARK   17  A    between atoms: O_38  and  C_22 
REMARK   18  A    between atoms: C_23  and  O_42 
REMARK   19  A    between atoms: C_24  and  S_43 
ROOT
HETATM    1  C   UNK N   1      24.527  13.786   4.328  0.00  0.00     0.179 C 
HETATM    2  C   UNK N   1      25.847  14.586   4.256  0.00  0.00     0.181 C 
HETATM    3  C   UNK N   1      25.781  14.683   6.713  0.00  0.00     0.205 C 
HETATM    4  C   UNK N   1      26.615  14.263   5.538  0.00  0.00     0.189 C 
HETATM    5  C   UNK N   1      24.488  13.823   6.697  0.00  0.00     0.298 C 
HETATM    6  O   UNK N   1      25.607  15.960   4.129  0.00  0.00    -0.390 OA
HETATM    7  O   UNK N   1      23.756  14.097   5.498  0.00  0.00    -0.348 OA
HETATM    8  H   UNK N   1      25.536  16.907   3.931  0.00  0.00     0.210 HD
ENDROOT
BRANCH   1   9
HETATM    9  C   UNK N   1      23.722  14.069   3.067  0.00  0.00     0.198 C 
BRANCH   9  10
HETATM   10  O   UNK N   1      22.942  15.212   3.233  0.00  0.00    -0.398 OA
HETATM   11  H   UNK N   1      22.532  15.732   2.524  0.00  0.00     0.209 HD
ENDBRANCH   9  10
ENDBRANCH   1   9
BRANCH   4  12
HETATM   12  O   UNK N   1      27.855  14.907   5.612  0.00  0.00    -0.348 OA
BRANCH  12  13
HETATM   13  C   UNK N   1      28.565  14.844   4.370  0.00  0.00     0.290 C 
HETATM   14  C   UNK N   1      29.957  14.250   4.604  0.00  0.00     0.189 C 
HETATM   15  C   UNK N   1      30.508  14.976   5.827  0.00  0.00     0.115 C 
HETATM   16  C   UNK N   1      30.465  16.509   5.576  0.00  0.00     0.165 C 
HETATM   17  C   UNK N   1      29.414  17.061   4.544  0.00  0.00     0.178 C 
HETATM   18  O   UNK N   1      28.683  16.122   3.778  0.00  0.00    -0.349 OA
BRANCH  14  19
HETATM   19  O   UNK N   1      29.842  12.882   4.865  0.00  0.00    -0.389 OA
HETATM   20  H   UNK N   1      29.020  12.370   4.926  0.00  0.00     0.210 HD
ENDBRANCH  14  19
BRANCH  15  21
HETATM   21  S   UNK N   1      32.057  14.177   6.468  0.00  0.00    -0.124 SA
BRANCH  21  22
HETATM   22  C   UNK N   1      32.481  15.041   8.023  0.00  0.00     0.215 C 
HETATM   23  C   UNK N   1      33.463  14.175   8.821  0.00  0.00     0.188 C 
HETATM   24  C   UNK N   1      33.818  14.914  10.103  0.00  0.00     0.181 C 
HETATM   25  C   UNK N   1      34.506  16.204   9.677  0.00  0.00     0.180 C 
HETATM   26  C   UNK N   1      33.608  17.063   8.755  0.00  0.00     0.178 C 
HETATM   27  O   UNK N   1      32.930  16.351   7.728  0.00  0.00    -0.363 OA
BRANCH  23  28
HETATM   28  O   UNK N   1      32.887  12.938   9.121  0.00  0.00    -0.389 OA
HETATM   29  H   UNK N   1      33.076  12.167   8.566  0.00  0.00     0.210 HD
ENDBRANCH  23  28
BRANCH  24  30
HETATM   30  O   UNK N   1      32.670  15.180  10.859  0.00  0.00    -0.390 OA
HETATM   31  H   UNK N   1      32.338  15.180  11.771  0.00  0.00     0.210 HD
ENDBRANCH  24  30
BRANCH  25  32
HETATM   32  O   UNK N   1      34.886  16.946  10.798  0.00  0.00    -0.390 OA
HETATM   33  H   UNK N   1      35.443  17.736  10.710  0.00  0.00     0.210 HD
ENDBRANCH  25  32
BRANCH  26  34
HETATM   34  C   UNK N   1      34.537  18.052   8.038  0.00  0.00     0.198 C 
BRANCH  34  35
HETATM   35  O   UNK N   1      35.231  18.871   8.922  0.00  0.00    -0.398 OA
HETATM   36  H   UNK N   1      35.457  18.653   9.841  0.00  0.00     0.209 HD
ENDBRANCH  34  35
ENDBRANCH  26  34
ENDBRANCH  21  22
ENDBRANCH  15  21
BRANCH  16  37
HETATM   37  O   UNK N   1      30.309  17.158   6.809  0.00  0.00    -0.392 OA
HETATM   38  H   UNK N   1      30.341  18.054   7.178  0.00  0.00     0.210 HD
ENDBRANCH  16  37
BRANCH  17  39
HETATM   39  C   UNK N   1      28.485  18.145   5.094  0.00  0.00     0.198 C 
BRANCH  39  40
HETATM   40  O   UNK N   1      27.707  17.667   6.152  0.00  0.00    -0.398 OA
HETATM   41  H   UNK N   1      27.701  17.856   7.104  0.00  0.00     0.209 HD
ENDBRANCH  39  40
ENDBRANCH  17  39
ENDBRANCH  12  13
ENDBRANCH   4  12
BRANCH   3  42
HETATM   42  O   UNK N   1      25.472  16.050   6.693  0.00  0.00    -0.388 OA
HETATM   43  H   UNK N   1      25.313  16.984   6.479  0.00  0.00     0.210 HD
ENDBRANCH   3  42
BRANCH   5  44
HETATM   44  O   UNK N   1      23.712  14.118   7.821  0.00  0.00    -0.318 OA
BRANCH  44  45
HETATM   45  C   UNK N   1      23.576  13.225   8.841  0.00  0.00     0.072 C 
HETATM   46  C   UNK N   1      22.303  13.032   9.375  0.00  0.00     0.039 C 
HETATM   47  C   UNK N   1      22.157  12.501  10.657  0.00  0.00     0.039 C 
HETATM   48  C   UNK N   1      23.288  12.169  11.422  0.00  0.00     0.103 C 
HETATM   49  C   UNK N   1      24.557  12.228  10.828  0.00  0.00     0.039 C 
HETATM   50  C   UNK N   1      24.701  12.732   9.535  0.00  0.00     0.039 C 
BRANCH  48  51
HETATM   51  N   UNK N   1      23.148  11.870  12.807  0.00  0.00    -0.116 N 
HETATM   52  O   UNK N   1      24.007  12.170  13.575  0.00  0.00    -0.532 OA
HETATM   53  O   UNK N   1      22.253  11.163  13.175  0.00  0.00    -0.532 OA
ENDBRANCH  48  51
ENDBRANCH  44  45
ENDBRANCH   5  44
TORSDOF 19
ENDMDL
MODEL 3
REMARK VINA RESULT:      -7.5      1.511      3.119
REMARK  19 active torsions:
REMARK  status: ('A' for Active; 'I' for Inactive)
REMARK    1  A    between atoms: C_10  and  C_5 
REMARK    2  A    between atoms: O_26  and  C_5 
REMARK    3  A    between atoms: C_11  and  C_6 
REMARK    4  A    between atoms: O_27  and  C_6 
REMARK    5  A    between atoms: C_12  and  C_7 
REMARK    6  A    between atoms: O_28  and  C_7 
REMARK    7  A    between atoms: N_25  and  C_8 
REMARK    8  A    between atoms: O_38  and  C_9 
REMARK    9  A    between atoms: C_13  and  O_29 
REMARK   10  A    between atoms: C_15  and  O_31 
REMARK   11  A    between atoms: C_16  and  O_32 
REMARK   12  A    between atoms: C_17  and  O_33 
REMARK   13  A    between atoms: O_34  and  C_18 
REMARK   14  A    between atoms: C_19  and  O_35 
REMARK   15  A    between atoms: O_42  and  C_20 
REMARK   16  A    between atoms: C_21  and  S_43 
REMARK   17  A    between atoms: O_38  and  C_22 
REMARK   18  A    between atoms: C_23  and  O_42 
REMARK   19  A    between atoms: C_24  and  S_43 
ROOT
HETATM    1  C   UNK N   1      37.318  13.693  10.262  0.00  0.00     0.179 C 
HETATM    2  C   UNK N   1      36.418  13.892   9.022  0.00  0.00     0.181 C 
HETATM    3  C   UNK N   1      34.495  13.791  10.552  0.00  0.00     0.205 C 
HETATM    4  C   UNK N   1      35.172  14.632   9.510  0.00  0.00     0.189 C 
HETATM    5  C   UNK N   1      35.474  13.656  11.750  0.00  0.00     0.298 C 
HETATM    6  O   UNK N   1      36.092  12.668   8.424  0.00  0.00    -0.390 OA
HETATM    7  O   UNK N   1      36.657  12.977  11.315  0.00  0.00    -0.348 OA
HETATM    8  H   UNK N   1      35.908  11.883   7.886  0.00  0.00     0.210 HD
ENDROOT
BRANCH   1   9
HETATM    9  C   UNK N   1      38.582  12.962   9.829  0.00  0.00     0.198 C 
BRANCH   9  10
HETATM   10  O   UNK N   1      39.026  13.444   8.599  0.00  0.00    -0.398 OA
HETATM   11  H   UNK N   1      39.951  13.536   8.322  0.00  0.00     0.209 HD
ENDBRANCH   9  10
ENDBRANCH   1   9
BRANCH   4  12
HETATM   12  O   UNK N   1      34.258  14.903   8.486  0.00  0.00    -0.348 OA
BRANCH  12  13
HETATM   13  C   UNK N   1      33.032  15.441   8.993  0.00  0.00     0.290 C 
HETATM   14  C   UNK N   1      31.995  15.502   7.867  0.00  0.00     0.189 C 
HETATM   15  C   UNK N   1      32.726  16.111   6.675  0.00  0.00     0.115 C 
HETATM   16  C   UNK N   1      33.345  17.474   7.094  0.00  0.00     0.165 C 
HETATM   17  C   UNK N   1      33.667  17.704   8.616  0.00  0.00     0.178 C 
HETATM   18  O   UNK N   1      33.221  16.730   9.540  0.00  0.00    -0.349 OA
BRANCH  14  19
HETATM   19  O   UNK N   1      31.562  14.210   7.560  0.00  0.00    -0.389 OA
HETATM   20  H   UNK N   1      31.855  13.386   7.980  0.00  0.00     0.210 HD
ENDBRANCH  14  19
BRANCH  15  21
HETATM   21  S   UNK N   1      31.733  15.978   5.111  0.00  0.00    -0.124 SA
BRANCH  21  22
HETATM   22  C   UNK N   1      30.400  17.224   5.235  0.00  0.00     0.215 C 
HETATM   23  C   UNK N   1      29.289  16.864   4.241  0.00  0.00     0.188 C 
HETATM   24  C   UNK N   1      28.182  17.900   4.368  0.00  0.00     0.181 C 
HETATM   25  C   UNK N   1      27.649  17.787   5.790  0.00  0.00     0.180 C 
HETATM   26  C   UNK N   1      28.761  18.009   6.843  0.00  0.00     0.178 C 
HETATM   27  O   UNK N   1      29.990  17.344   6.585  0.00  0.00    -0.363 OA
BRANCH  23  28
HETATM   28  O   UNK N   1      29.790  16.850   2.937  0.00  0.00    -0.389 OA
HETATM   29  H   UNK N   1      30.742  16.756   2.783  0.00  0.00     0.210 HD
ENDBRANCH  23  28
BRANCH  24  30
HETATM   30  O   UNK N   1      28.672  19.186   4.113  0.00  0.00    -0.390 OA
HETATM   31  H   UNK N   1      29.098  19.942   4.548  0.00  0.00     0.210 HD
ENDBRANCH  24  30
BRANCH  25  32
HETATM   32  O   UNK N   1      26.610  18.697   5.994  0.00  0.00    -0.390 OA
HETATM   33  H   UNK N   1      25.861  18.748   5.378  0.00  0.00     0.210 HD
ENDBRANCH  25  32
BRANCH  26  34
HETATM   34  C   UNK N   1      28.236  17.425   8.162  0.00  0.00     0.198 C 
BRANCH  34  35
HETATM   35  O   UNK N   1      27.604  18.378   8.956  0.00  0.00    -0.398 OA
HETATM   36  H   UNK N   1      27.600  19.335   8.799  0.00  0.00     0.209 HD
ENDBRANCH  34  35
ENDBRANCH  26  34
ENDBRANCH  21  22
ENDBRANCH  15  21
BRANCH  16  37
HETATM   37  O   UNK N   1      34.496  17.695   6.325  0.00  0.00    -0.392 OA
HETATM   38  H   UNK N   1      34.791  18.246   5.583  0.00  0.00     0.210 HD
ENDBRANCH  16  37
BRANCH  17  39
HETATM   39  C   UNK N   1      35.114  18.103   8.912  0.00  0.00     0.198 C 
BRANCH  39  40
HETATM   40  O   UNK N   1      35.358  19.438   8.573  0.00  0.00    -0.398 OA
HETATM   41  H   UNK N   1      34.973  20.029   7.908  0.00  0.00     0.209 HD
ENDBRANCH  39  40
ENDBRANCH  17  39
ENDBRANCH  12  13
ENDBRANCH   4  12
BRANCH   3  42
HETATM   42  O   UNK N   1      34.122  12.529  10.068  0.00  0.00    -0.388 OA
HETATM   43  H   UNK N   1      33.954  11.721   9.557  0.00  0.00     0.210 HD
ENDBRANCH   3  42
BRANCH   5  44
HETATM   44  O   UNK N   1      34.858  12.948  12.785  0.00  0.00    -0.318 OA
BRANCH  44  45
HETATM   45  C   UNK N   1      35.340  12.994  14.059  0.00  0.00     0.072 C 
HETATM   46  C   UNK N   1      34.572  12.418  15.069  0.00  0.00     0.039 C 
HETATM   47  C   UNK N   1      34.765  12.802  16.397  0.00  0.00     0.039 C 
HETATM   48  C   UNK N   1      35.723  13.776  16.723  0.00  0.00     0.103 C 
HETATM   49  C   UNK N   1      36.591  14.243  15.725  0.00  0.00     0.039 C 
HETATM   50  C   UNK N   1      36.416  13.839  14.402  0.00  0.00     0.039 C 
BRANCH  48  51
HETATM   51  N   UNK N   1      35.745  14.344  18.029  0.00  0.00    -0.116 N 
HETATM   52  O   UNK N   1      35.210  13.785  18.934  0.00  0.00    -0.532 OA
HETATM   53  O   UNK N   1      36.144  15.463  18.184  0.00  0.00    -0.532 OA
ENDBRANCH  48  51
ENDBRANCH  44  45
ENDBRANCH   5  44
TORSDOF 19
ENDMDL
MODEL 4
REMARK VINA RESULT:      -7.2      3.537      9.286
REMARK  19 active torsions:
REMARK  status: ('A' for Active; 'I' for Inactive)
REMARK    1  A    between atoms: C_10  and  C_5 
REMARK    2  A    between atoms: O_26  and  C_5 
REMARK    3  A    between atoms: C_11  and  C_6 
REMARK    4  A    between atoms: O_27  and  C_6 
REMARK    5  A    between atoms: C_12  and  C_7 
REMARK    6  A    between atoms: O_28  and  C_7 
REMARK    7  A    between atoms: N_25  and  C_8 
REMARK    8  A    between atoms: O_38  and  C_9 
REMARK    9  A    between atoms: C_13  and  O_29 
REMARK   10  A    between atoms: C_15  and  O_31 
REMARK   11  A    between atoms: C_16  and  O_32 
REMARK   12  A    between atoms: C_17  and  O_33 
REMARK   13  A    between atoms: O_34  and  C_18 
REMARK   14  A    between atoms: C_19  and  O_35 
REMARK   15  A    between atoms: O_42  and  C_20 
REMARK   16  A    between atoms: C_21  and  S_43 
REMARK   17  A    between atoms: O_38  and  C_22 
REMARK   18  A    between atoms: C_23  and  O_42 
REMARK   19  A    between atoms: C_24  and  S_43 
ROOT
HETATM    1  C   UNK N   1      33.357  17.652   7.935  0.00  0.00     0.179 C 
HETATM    2  C   UNK N   1      34.157  16.524   8.622  0.00  0.00     0.181 C 
HETATM    3  C   UNK N   1      32.046  15.265   8.738  0.00  0.00     0.205 C 
HETATM    4  C   UNK N   1      33.463  15.215   8.244  0.00  0.00     0.189 C 
HETATM    5  C   UNK N   1      31.333  16.422   7.987  0.00  0.00     0.298 C 
HETATM    6  O   UNK N   1      34.204  16.702  10.011  0.00  0.00    -0.390 OA
HETATM    7  O   UNK N   1      31.973  17.659   8.314  0.00  0.00    -0.348 OA
HETATM    8  H   UNK N   1      34.379  16.804  10.959  0.00  0.00     0.210 HD
ENDROOT
BRANCH   1   9
HETATM    9  C   UNK N   1      34.012  18.985   8.276  0.00  0.00     0.198 C 
BRANCH   9  10
HETATM   10  O   UNK N   1      35.399  18.850   8.314  0.00  0.00    -0.398 OA
HETATM   11  H   UNK N   1      36.044  19.486   7.969  0.00  0.00     0.209 HD
ENDBRANCH   9  10
ENDBRANCH   1   9
BRANCH   4  12
HETATM   12  O   UNK N   1      34.089  14.086   8.785  0.00  0.00    -0.348 OA
BRANCH  12  13
HETATM   13  C   UNK N   1      33.829  12.909   8.011  0.00  0.00     0.290 C 
HETATM   14  C   UNK N   1      33.497  11.743   8.947  0.00  0.00     0.189 C 
HETATM   15  C   UNK N   1      34.559  11.786  10.041  0.00  0.00     0.115 C 
HETATM   16  C   UNK N   1      35.969  11.745   9.389  0.00  0.00     0.165 C 
HETATM   17  C   UNK N   1      36.117  12.259   7.910  0.00  0.00     0.178 C 
HETATM   18  O   UNK N   1      34.934  12.571   7.198  0.00  0.00    -0.349 OA
BRANCH  14  19
HETATM   19  O   UNK N   1      32.228  11.932   9.498  0.00  0.00    -0.389 OA
HETATM   20  H   UNK N   1      31.433  11.405   9.318  0.00  0.00     0.210 HD
ENDBRANCH  14  19
BRANCH  15  21
HETATM   21  S   UNK N   1      34.149  10.649  11.450  0.00  0.00    -0.124 SA
BRANCH  21  22
HETATM   22  C   UNK N   1      34.778  11.455  12.967  0.00  0.00     0.215 C 
HETATM   23  C   UNK N   1      36.095  10.784  13.377  0.00  0.00     0.188 C 
HETATM   24  C   UNK N   1      36.613  11.475  14.629  0.00  0.00     0.181 C 
HETATM   25  C   UNK N   1      36.879  12.923  14.241  0.00  0.00     0.180 C 
HETATM   26  C   UNK N   1      35.610  13.617  13.691  0.00  0.00     0.178 C 
HETATM   27  O   UNK N   1      34.849  12.854  12.764  0.00  0.00    -0.363 OA
BRANCH  23  28
HETATM   28  O   UNK N   1      35.890   9.424  13.626  0.00  0.00    -0.389 OA
HETATM   29  H   UNK N   1      35.270   8.918  13.079  0.00  0.00     0.210 HD
ENDBRANCH  23  28
BRANCH  24  30
HETATM   30  O   UNK N   1      35.675  11.394  15.667  0.00  0.00    -0.390 OA
HETATM   31  H   UNK N   1      34.972  10.826  16.018  0.00  0.00     0.210 HD
ENDBRANCH  24  30
BRANCH  25  32
HETATM   32  O   UNK N   1      37.377  13.636  15.333  0.00  0.00    -0.390 OA
HETATM   33  H   UNK N   1      37.338  14.605  15.358  0.00  0.00     0.210 HD
ENDBRANCH  25  32
BRANCH  26  34
HETATM   34  C   UNK N   1      36.088  14.857  12.922  0.00  0.00     0.198 C 
BRANCH  34  35
HETATM   35  O   UNK N   1      35.792  14.792  11.564  0.00  0.00    -0.398 OA
HETATM   36  H   UNK N   1      35.416  15.509  11.030  0.00  0.00     0.209 HD
ENDBRANCH  34  35
ENDBRANCH  26  34
ENDBRANCH  21  22
ENDBRANCH  15  21
BRANCH  16  37
HETATM   37  O   UNK N   1      36.865  12.429  10.223  0.00  0.00    -0.392 OA
HETATM   38  H   UNK N   1      37.488  13.172  10.182  0.00  0.00     0.210 HD
ENDBRANCH  16  37
BRANCH  17  39
HETATM   39  C   UNK N   1      37.166  13.355   7.714  0.00  0.00     0.198 C 
BRANCH  39  40
HETATM   40  O   UNK N   1      36.899  14.472   8.512  0.00  0.00    -0.398 OA
HETATM   41  H   UNK N   1      36.160  15.099   8.539  0.00  0.00     0.209 HD
ENDBRANCH  39  40
ENDBRANCH  17  39
ENDBRANCH  12  13
ENDBRANCH   4  12
BRANCH   3  42
HETATM   42  O   UNK N   1      31.965  15.445  10.126  0.00  0.00    -0.388 OA
HETATM   43  H   UNK N   1      32.117  15.566  11.077  0.00  0.00     0.210 HD
ENDBRANCH   3  42
BRANCH   5  44
HETATM   44  O   UNK N   1      29.984  16.459   8.351  0.00  0.00    -0.318 OA
BRANCH  44  45
HETATM   45  C   UNK N   1      29.081  17.193   7.644  0.00  0.00     0.072 C 
HETATM   46  C   UNK N   1      29.006  16.989   6.267  0.00  0.00     0.039 C 
HETATM   47  C   UNK N   1      28.456  17.972   5.445  0.00  0.00     0.039 C 
HETATM   48  C   UNK N   1      27.984  19.176   5.994  0.00  0.00     0.103 C 
HETATM   49  C   UNK N   1      27.926  19.316   7.389  0.00  0.00     0.039 C 
HETATM   50  C   UNK N   1      28.451  18.321   8.212  0.00  0.00     0.039 C 
BRANCH  48  51
HETATM   51  N   UNK N   1      27.660  20.269   5.140  0.00  0.00    -0.116 N 
HETATM   52  O   UNK N   1      27.393  21.333   5.604  0.00  0.00    -0.532 OA
HETATM   53  O   UNK N   1      27.482  20.078   3.971  0.00  0.00    -0.532 OA
ENDBRANCH  48  51
ENDBRANCH  44  45
ENDBRANCH   5  44
TORSDOF 19
ENDMDL
MODEL 5
REMARK VINA RESULT:      -7.2      8.484     13.067
REMARK  19 active torsions:
REMARK  status: ('A' for Active; 'I' for Inactive)
REMARK    1  A    between atoms: C_10  and  C_5 
REMARK    2  A    between atoms: O_26  and  C_5 
REMARK    3  A    between atoms: C_11  and  C_6 
REMARK    4  A    between atoms: O_27  and  C_6 
REMARK    5  A    between atoms: C_12  and  C_7 
REMARK    6  A    between atoms: O_28  and  C_7 
REMARK    7  A    between atoms: N_25  and  C_8 
REMARK    8  A    between atoms: O_38  and  C_9 
REMARK    9  A    between atoms: C_13  and  O_29 
REMARK   10  A    between atoms: C_15  and  O_31 
REMARK   11  A    between atoms: C_16  and  O_32 
REMARK   12  A    between atoms: C_17  and  O_33 
REMARK   13  A    between atoms: O_34  and  C_18 
REMARK   14  A    between atoms: C_19  and  O_35 
REMARK   15  A    between atoms: O_42  and  C_20 
REMARK   16  A    between atoms: C_21  and  S_43 
REMARK   17  A    between atoms: O_38  and  C_22 
REMARK   18  A    between atoms: C_23  and  O_42 
REMARK   19  A    between atoms: C_24  and  S_43 
ROOT
HETATM    1  C   UNK N   1      22.519  19.504   3.805  0.00  0.00     0.179 C 
HETATM    2  C   UNK N   1      21.769  18.201   4.158  0.00  0.00     0.181 C 
HETATM    3  C   UNK N   1      23.930  17.309   4.925  0.00  0.00     0.205 C 
HETATM    4  C   UNK N   1      22.515  17.584   5.343  0.00  0.00     0.189 C 
HETATM    5  C   UNK N   1      24.592  18.676   4.599  0.00  0.00     0.298 C 
HETATM    6  O   UNK N   1      21.722  17.325   3.065  0.00  0.00    -0.390 OA
HETATM    7  O   UNK N   1      23.903  19.281   3.500  0.00  0.00    -0.348 OA
HETATM    8  H   UNK N   1      21.546  16.710   2.337  0.00  0.00     0.210 HD
ENDROOT
BRANCH   1   9
HETATM    9  C   UNK N   1      21.812  20.165   2.629  0.00  0.00     0.198 C 
BRANCH   9  10
HETATM   10  O   UNK N   1      21.112  21.293   3.053  0.00  0.00    -0.398 OA
HETATM   11  H   UNK N   1      20.308  21.652   2.647  0.00  0.00     0.209 HD
ENDBRANCH   9  10
ENDBRANCH   1   9
BRANCH   4  12
HETATM   12  O   UNK N   1      21.938  16.392   5.794  0.00  0.00    -0.348 OA
BRANCH  12  13
HETATM   13  C   UNK N   1      20.511  16.414   5.685  0.00  0.00     0.290 C 
HETATM   14  C   UNK N   1      19.888  16.060   7.039  0.00  0.00     0.189 C 
HETATM   15  C   UNK N   1      20.654  14.835   7.530  0.00  0.00     0.115 C 
HETATM   16  C   UNK N   1      20.588  13.722   6.447  0.00  0.00     0.165 C 
HETATM   17  C   UNK N   1      20.357  14.155   4.953  0.00  0.00     0.178 C 
HETATM   18  O   UNK N   1      20.054  15.513   4.698  0.00  0.00    -0.349 OA
BRANCH  14  19
HETATM   19  O   UNK N   1      20.062  17.125   7.926  0.00  0.00    -0.389 OA
HETATM   20  H   UNK N   1      20.679  17.162   8.674  0.00  0.00     0.210 HD
ENDBRANCH  14  19
BRANCH  15  21
HETATM   21  S   UNK N   1      20.266  14.439   9.302  0.00  0.00    -0.124 SA
BRANCH  21  22
HETATM   22  C   UNK N   1      21.816  13.814  10.045  0.00  0.00     0.215 C 
HETATM   23  C   UNK N   1      21.616  12.351  10.458  0.00  0.00     0.188 C 
HETATM   24  C   UNK N   1      22.917  11.842  11.059  0.00  0.00     0.181 C 
HETATM   25  C   UNK N   1      23.960  11.921   9.952  0.00  0.00     0.180 C 
HETATM   26  C   UNK N   1      24.111  13.359   9.401  0.00  0.00     0.178 C 
HETATM   27  O   UNK N   1      22.894  14.052   9.158  0.00  0.00    -0.363 OA
BRANCH  23  28
HETATM   28  O   UNK N   1      20.580  12.246  11.390  0.00  0.00    -0.389 OA
HETATM   29  H   UNK N   1      20.154  13.046  11.735  0.00  0.00     0.210 HD
ENDBRANCH  23  28
BRANCH  24  30
HETATM   30  O   UNK N   1      23.292  12.618  12.163  0.00  0.00    -0.390 OA
HETATM   31  H   UNK N   1      23.896  12.624  12.923  0.00  0.00     0.210 HD
ENDBRANCH  24  30
BRANCH  25  32
HETATM   32  O   UNK N   1      25.194  11.455  10.412  0.00  0.00    -0.390 OA
HETATM   33  H   UNK N   1      25.565  11.767  11.253  0.00  0.00     0.210 HD
ENDBRANCH  25  32
BRANCH  26  34
HETATM   34  C   UNK N   1      24.802  13.233   8.036  0.00  0.00     0.198 C 
BRANCH  34  35
HETATM   35  O   UNK N   1      24.248  14.075   7.076  0.00  0.00    -0.398 OA
HETATM   36  H   UNK N   1      24.202  15.042   7.128  0.00  0.00     0.209 HD
ENDBRANCH  34  35
ENDBRANCH  26  34
ENDBRANCH  21  22
ENDBRANCH  15  21
BRANCH  16  37
HETATM   37  O   UNK N   1      21.747  12.939   6.543  0.00  0.00    -0.392 OA
HETATM   38  H   UNK N   1      22.104  12.216   7.082  0.00  0.00     0.210 HD
ENDBRANCH  16  37
BRANCH  17  39
HETATM   39  C   UNK N   1      21.412  13.646   3.968  0.00  0.00     0.198 C 
BRANCH  39  40
HETATM   40  O   UNK N   1      22.690  14.104   4.302  0.00  0.00    -0.398 OA
HETATM   41  H   UNK N   1      23.476  14.304   3.771  0.00  0.00     0.209 HD
ENDBRANCH  39  40
ENDBRANCH  17  39
ENDBRANCH  12  13
ENDBRANCH   4  12
BRANCH   3  42
HETATM   42  O   UNK N   1      24.010  16.441   3.828  0.00  0.00    -0.388 OA
HETATM   43  H   UNK N   1      24.140  15.705   3.209  0.00  0.00     0.210 HD
ENDBRANCH   3  42
BRANCH   5  44
HETATM   44  O   UNK N   1      25.940  18.483   4.284  0.00  0.00    -0.318 OA
BRANCH  44  45
HETATM   45  C   UNK N   1      26.904  18.518   5.246  0.00  0.00     0.072 C 
HETATM   46  C   UNK N   1      27.419  17.305   5.700  0.00  0.00     0.039 C 
HETATM   47  C   UNK N   1      28.049  17.236   6.943  0.00  0.00     0.039 C 
HETATM   48  C   UNK N   1      28.160  18.382   7.748  0.00  0.00     0.103 C 
HETATM   49  C   UNK N   1      27.774  19.626   7.226  0.00  0.00     0.039 C 
HETATM   50  C   UNK N   1      27.168  19.699   5.972  0.00  0.00     0.039 C 
BRANCH  48  51
HETATM   51  N   UNK N   1      28.572  18.261   9.106  0.00  0.00    -0.116 N 
HETATM   52  O   UNK N   1      29.612  18.721   9.460  0.00  0.00    -0.532 OA
HETATM   53  O   UNK N   1      27.963  17.547   9.851  0.00  0.00    -0.532 OA
ENDBRANCH  48  51
ENDBRANCH  44  45
ENDBRANCH   5  44
TORSDOF 19
ENDMDL
MODEL 6
REMARK VINA RESULT:      -7.2      6.472     11.594
REMARK  19 active torsions:
REMARK  status: ('A' for Active; 'I' for Inactive)
REMARK    1  A    between atoms: C_10  and  C_5 
REMARK    2  A    between atoms: O_26  and  C_5 
REMARK    3  A    between atoms: C_11  and  C_6 
REMARK    4  A    between atoms: O_27  and  C_6 
REMARK    5  A    between atoms: C_12  and  C_7 
REMARK    6  A    between atoms: O_28  and  C_7 
REMARK    7  A    between atoms: N_25  and  C_8 
REMARK    8  A    between atoms: O_38  and  C_9 
REMARK    9  A    between atoms: C_13  and  O_29 
REMARK   10  A    between atoms: C_15  and  O_31 
REMARK   11  A    between atoms: C_16  and  O_32 
REMARK   12  A    between atoms: C_17  and  O_33 
REMARK   13  A    between atoms: O_34  and  C_18 
REMARK   14  A    between atoms: C_19  and  O_35 
REMARK   15  A    between atoms: O_42  and  C_20 
REMARK   16  A    between atoms: C_21  and  S_43 
REMARK   17  A    between atoms: O_38  and  C_22 
REMARK   18  A    between atoms: C_23  and  O_42 
REMARK   19  A    between atoms: C_24  and  S_43 
ROOT
HETATM    1  C   UNK N   1      21.665  15.510   3.894  0.00  0.00     0.179 C 
HETATM    2  C   UNK N   1      22.846  16.490   3.719  0.00  0.00     0.181 C 
HETATM    3  C   UNK N   1      23.377  16.081   6.087  0.00  0.00     0.205 C 
HETATM    4  C   UNK N   1      23.932  16.031   4.693  0.00  0.00     0.189 C 
HETATM    5  C   UNK N   1      22.206  15.064   6.158  0.00  0.00     0.298 C 
HETATM    6  O   UNK N   1      22.455  17.812   3.967  0.00  0.00    -0.390 OA
HETATM    7  O   UNK N   1      21.180  15.464   5.244  0.00  0.00    -0.348 OA
HETATM    8  H   UNK N   1      22.249  18.759   4.012  0.00  0.00     0.210 HD
ENDROOT
BRANCH   1   9
HETATM    9  C   UNK N   1      20.552  15.920   2.939  0.00  0.00     0.198 C 
BRANCH   9  10
HETATM   10  O   UNK N   1      19.618  16.721   3.595  0.00  0.00    -0.398 OA
HETATM   11  H   UNK N   1      18.674  16.527   3.700  0.00  0.00     0.209 HD
ENDBRANCH   9  10
ENDBRANCH   1   9
BRANCH   4  12
HETATM   12  O   UNK N   1      25.087  16.820   4.640  0.00  0.00    -0.348 OA
BRANCH  12  13
HETATM   13  C   UNK N   1      25.524  17.035   3.293  0.00  0.00     0.290 C 
HETATM   14  C   UNK N   1      26.935  16.464   3.115  0.00  0.00     0.189 C 
HETATM   15  C   UNK N   1      27.727  16.955   4.323  0.00  0.00     0.115 C 
HETATM   16  C   UNK N   1      27.633  18.504   4.402  0.00  0.00     0.165 C 
HETATM   17  C   UNK N   1      26.393  19.207   3.739  0.00  0.00     0.178 C 
HETATM   18  O   UNK N   1      25.519  18.409   2.962  0.00  0.00    -0.349 OA
BRANCH  14  19
HETATM   19  O   UNK N   1      26.876  15.069   3.110  0.00  0.00    -0.389 OA
HETATM   20  H   UNK N   1      26.124  14.519   3.381  0.00  0.00     0.210 HD
ENDBRANCH  14  19
BRANCH  15  21
HETATM   21  S   UNK N   1      29.374  16.110   4.461  0.00  0.00    -0.124 SA
BRANCH  21  22
HETATM   22  C   UNK N   1      29.898  16.276   6.206  0.00  0.00     0.215 C 
HETATM   23  C   UNK N   1      30.930  17.405   6.311  0.00  0.00     0.188 C 
HETATM   24  C   UNK N   1      31.343  17.540   7.768  0.00  0.00     0.181 C 
HETATM   25  C   UNK N   1      30.086  17.927   8.536  0.00  0.00     0.180 C 
HETATM   26  C   UNK N   1      28.956  16.884   8.358  0.00  0.00     0.178 C 
HETATM   27  O   UNK N   1      28.755  16.421   7.030  0.00  0.00    -0.363 OA
BRANCH  23  28
HETATM   28  O   UNK N   1      32.045  17.119   5.517  0.00  0.00    -0.389 OA
HETATM   29  H   UNK N   1      32.923  17.434   5.782  0.00  0.00     0.210 HD
ENDBRANCH  23  28
BRANCH  24  30
HETATM   30  O   UNK N   1      31.878  16.338   8.248  0.00  0.00    -0.390 OA
HETATM   31  H   UNK N   1      32.655  15.763   8.169  0.00  0.00     0.210 HD
ENDBRANCH  24  30
BRANCH  25  32
HETATM   32  O   UNK N   1      30.375  18.090   9.892  0.00  0.00    -0.390 OA
HETATM   33  H   UNK N   1      30.630  17.334  10.444  0.00  0.00     0.210 HD
ENDBRANCH  25  32
BRANCH  26  34
HETATM   34  C   UNK N   1      27.650  17.583   8.761  0.00  0.00     0.198 C 
BRANCH  34  35
HETATM   35  O   UNK N   1      27.757  18.970   8.742  0.00  0.00    -0.398 OA
HETATM   36  H   UNK N   1      27.435  19.574   9.430  0.00  0.00     0.209 HD
ENDBRANCH  34  35
ENDBRANCH  26  34
ENDBRANCH  21  22
ENDBRANCH  15  21
BRANCH  16  37
HETATM   37  O   UNK N   1      27.736  18.888   5.747  0.00  0.00    -0.392 OA
HETATM   38  H   UNK N   1      28.333  18.770   6.502  0.00  0.00     0.210 HD
ENDBRANCH  16  37
BRANCH  17  39
HETATM   39  C   UNK N   1      25.597  20.120   4.674  0.00  0.00     0.198 C 
BRANCH  39  40
HETATM   40  O   UNK N   1      25.004  19.399   5.715  0.00  0.00    -0.398 OA
HETATM   41  H   UNK N   1      24.226  19.564   6.270  0.00  0.00     0.209 HD
ENDBRANCH  39  40
ENDBRANCH  17  39
ENDBRANCH  12  13
ENDBRANCH   4  12
BRANCH   3  42
HETATM   42  O   UNK N   1      22.945  17.365   6.449  0.00  0.00    -0.388 OA
HETATM   43  H   UNK N   1      22.552  18.154   6.856  0.00  0.00     0.210 HD
ENDBRANCH   3  42
BRANCH   5  44
HETATM   44  O   UNK N   1      21.706  15.011   7.461  0.00  0.00    -0.318 OA
BRANCH  44  45
HETATM   45  C   UNK N   1      22.006  13.975   8.293  0.00  0.00     0.072 C 
HETATM   46  C   UNK N   1      21.129  13.703   9.342  0.00  0.00     0.039 C 
HETATM   47  C   UNK N   1      21.571  12.986  10.453  0.00  0.00     0.039 C 
HETATM   48  C   UNK N   1      22.902  12.543  10.530  0.00  0.00     0.103 C 
HETATM   49  C   UNK N   1      23.738  12.691   9.413  0.00  0.00     0.039 C 
HETATM   50  C   UNK N   1      23.287  13.384   8.290  0.00  0.00     0.039 C 
BRANCH  48  51
HETATM   51  N   UNK N   1      23.415  12.039  11.759  0.00  0.00    -0.116 N 
HETATM   52  O   UNK N   1      22.695  11.903  12.698  0.00  0.00    -0.532 OA
HETATM   53  O   UNK N   1      24.598  11.918  11.906  0.00  0.00    -0.532 OA
ENDBRANCH  48  51
ENDBRANCH  44  45
ENDBRANCH   5  44
TORSDOF 19
ENDMDL
MODEL 7
REMARK VINA RESULT:      -7.0      4.633     11.257
REMARK  19 active torsions:
REMARK  status: ('A' for Active; 'I' for Inactive)
REMARK    1  A    between atoms: C_10  and  C_5 
REMARK    2  A    between atoms: O_26  and  C_5 
REMARK    3  A    between atoms: C_11  and  C_6 
REMARK    4  A    between atoms: O_27  and  C_6 
REMARK    5  A    between atoms: C_12  and  C_7 
REMARK    6  A    between atoms: O_28  and  C_7 
REMARK    7  A    between atoms: N_25  and  C_8 
REMARK    8  A    between atoms: O_38  and  C_9 
REMARK    9  A    between atoms: C_13  and  O_29 
REMARK   10  A    between atoms: C_15  and  O_31 
REMARK   11  A    between atoms: C_16  and  O_32 
REMARK   12  A    between atoms: C_17  and  O_33 
REMARK   13  A    between atoms: O_34  and  C_18 
REMARK   14  A    between atoms: C_19  and  O_35 
REMARK   15  A    between atoms: O_42  and  C_20 
REMARK   16  A    between atoms: C_21  and  S_43 
REMARK   17  A    between atoms: O_38  and  C_22 
REMARK   18  A    between atoms: C_23  and  O_42 
REMARK   19  A    between atoms: C_24  and  S_43 
ROOT
HETATM    1  C   UNK N   1      27.950  15.196   4.362  0.00  0.00     0.179 C 
HETATM    2  C   UNK N   1      29.481  15.294   4.542  0.00  0.00     0.181 C 
HETATM    3  C   UNK N   1      29.091  17.463   5.637  0.00  0.00     0.205 C 
HETATM    4  C   UNK N   1      29.712  16.108   5.816  0.00  0.00     0.189 C 
HETATM    5  C   UNK N   1      27.561  17.254   5.471  0.00  0.00     0.298 C 
HETATM    6  O   UNK N   1      30.089  15.891   3.430  0.00  0.00    -0.390 OA
HETATM    7  O   UNK N   1      27.318  16.482   4.290  0.00  0.00    -0.348 OA
HETATM    8  H   UNK N   1      30.602  16.191   2.663  0.00  0.00     0.210 HD
ENDROOT
BRANCH   1   9
HETATM    9  C   UNK N   1      27.662  14.388   3.104  0.00  0.00     0.198 C 
BRANCH   9  10
HETATM   10  O   UNK N   1      27.905  15.155   1.966  0.00  0.00    -0.398 OA
HETATM   11  H   UNK N   1      28.437  15.966   1.927  0.00  0.00     0.209 HD
ENDBRANCH   9  10
ENDBRANCH   1   9
BRANCH   4  12
HETATM   12  O   UNK N   1      31.067  16.271   6.125  0.00  0.00    -0.348 OA
BRANCH  12  13
HETATM   13  C   UNK N   1      31.776  15.027   6.089  0.00  0.00     0.290 C 
HETATM   14  C   UNK N   1      32.621  14.882   7.358  0.00  0.00     0.189 C 
HETATM   15  C   UNK N   1      33.326  16.223   7.533  0.00  0.00     0.115 C 
HETATM   16  C   UNK N   1      34.114  16.560   6.235  0.00  0.00     0.165 C 
HETATM   17  C   UNK N   1      33.627  15.919   4.885  0.00  0.00     0.178 C 
HETATM   18  O   UNK N   1      32.606  14.940   4.949  0.00  0.00    -0.349 OA
BRANCH  14  19
HETATM   19  O   UNK N   1      31.785  14.630   8.449  0.00  0.00    -0.389 OA
HETATM   20  H   UNK N   1      31.379  15.291   9.032  0.00  0.00     0.210 HD
ENDBRANCH  14  19
BRANCH  15  21
HETATM   21  S   UNK N   1      34.152  16.362   9.189  0.00  0.00    -0.124 SA
BRANCH  21  22
HETATM   22  C   UNK N   1      35.294  14.939   9.321  0.00  0.00     0.215 C 
HETATM   23  C   UNK N   1      36.034  15.017  10.663  0.00  0.00     0.188 C 
HETATM   24  C   UNK N   1      36.967  13.820  10.763  0.00  0.00     0.181 C 
HETATM   25  C   UNK N   1      36.080  12.583  10.742  0.00  0.00     0.180 C 
HETATM   26  C   UNK N   1      35.207  12.518   9.466  0.00  0.00     0.178 C 
HETATM   27  O   UNK N   1      34.581  13.738   9.092  0.00  0.00    -0.363 OA
BRANCH  23  28
HETATM   28  O   UNK N   1      36.763  16.206  10.747  0.00  0.00    -0.389 OA
HETATM   29  H   UNK N   1      36.885  16.642  11.604  0.00  0.00     0.210 HD
ENDBRANCH  23  28
BRANCH  24  30
HETATM   30  O   UNK N   1      37.877  13.807   9.700  0.00  0.00    -0.390 OA
HETATM   31  H   UNK N   1      38.828  13.764   9.508  0.00  0.00     0.210 HD
ENDBRANCH  24  30
BRANCH  25  32
HETATM   32  O   UNK N   1      36.856  11.426  10.848  0.00  0.00    -0.390 OA
HETATM   33  H   UNK N   1      37.049  10.880  10.069  0.00  0.00     0.210 HD
ENDBRANCH  25  32
BRANCH  26  34
HETATM   34  C   UNK N   1      34.066  11.536   9.766  0.00  0.00     0.198 C 
BRANCH  34  35
HETATM   35  O   UNK N   1      32.825  12.017   9.361  0.00  0.00    -0.398 OA
HETATM   36  H   UNK N   1      32.487  12.021   8.452  0.00  0.00     0.209 HD
ENDBRANCH  34  35
ENDBRANCH  26  34
ENDBRANCH  21  22
ENDBRANCH  15  21
BRANCH  16  37
HETATM   37  O   UNK N   1      34.179  17.955   6.105  0.00  0.00    -0.392 OA
HETATM   38  H   UNK N   1      34.655  18.708   6.488  0.00  0.00     0.210 HD
ENDBRANCH  16  37
BRANCH  17  39
HETATM   39  C   UNK N   1      33.339  16.921   3.766  0.00  0.00     0.198 C 
BRANCH  39  40
HETATM   40  O   UNK N   1      32.331  17.820   4.127  0.00  0.00    -0.398 OA
HETATM   41  H   UNK N   1      32.332  18.773   4.308  0.00  0.00     0.209 HD
ENDBRANCH  39  40
ENDBRANCH  17  39
ENDBRANCH  12  13
ENDBRANCH   4  12
BRANCH   3  42
HETATM   42  O   UNK N   1      29.622  18.159   4.543  0.00  0.00    -0.388 OA
HETATM   43  H   UNK N   1      30.080  18.759   3.932  0.00  0.00     0.210 HD
ENDBRANCH   3  42
BRANCH   5  44
HETATM   44  O   UNK N   1      26.923  18.494   5.384  0.00  0.00    -0.318 OA
BRANCH  44  45
HETATM   45  C   UNK N   1      25.854  18.684   4.560  0.00  0.00     0.072 C 
HETATM   46  C   UNK N   1      25.938  19.694   3.604  0.00  0.00     0.039 C 
HETATM   47  C   UNK N   1      24.774  20.228   3.050  0.00  0.00     0.039 C 
HETATM   48  C   UNK N   1      23.513  19.762   3.459  0.00  0.00     0.103 C 
HETATM   49  C   UNK N   1      23.438  18.649   4.309  0.00  0.00     0.039 C 
HETATM   50  C   UNK N   1      24.603  18.097   4.842  0.00  0.00     0.039 C 
BRANCH  48  51
HETATM   51  N   UNK N   1      22.336  20.472   3.086  0.00  0.00    -0.116 N 
HETATM   52  O   UNK N   1      22.413  21.591   2.685  0.00  0.00    -0.532 OA
HETATM   53  O   UNK N   1      21.259  20.013   3.340  0.00  0.00    -0.532 OA
ENDBRANCH  48  51
ENDBRANCH  44  45
ENDBRANCH   5  44
TORSDOF 19
ENDMDL
MODEL 8
REMARK VINA RESULT:      -6.9      5.971     12.888
REMARK  19 active torsions:
REMARK  status: ('A' for Active; 'I' for Inactive)
REMARK    1  A    between atoms: C_10  and  C_5 
REMARK    2  A    between atoms: O_26  and  C_5 
REMARK    3  A    between atoms: C_11  and  C_6 
REMARK    4  A    between atoms: O_27  and  C_6 
REMARK    5  A    between atoms: C_12  and  C_7 
REMARK    6  A    between atoms: O_28  and  C_7 
REMARK    7  A    between atoms: N_25  and  C_8 
REMARK    8  A    between atoms: O_38  and  C_9 
REMARK    9  A    between atoms: C_13  and  O_29 
REMARK   10  A    between atoms: C_15  and  O_31 
REMARK   11  A    between atoms: C_16  and  O_32 
REMARK   12  A    between atoms: C_17  and  O_33 
REMARK   13  A    between atoms: O_34  and  C_18 
REMARK   14  A    between atoms: C_19  and  O_35 
REMARK   15  A    between atoms: O_42  and  C_20 
REMARK   16  A    between atoms: C_21  and  S_43 
REMARK   17  A    between atoms: O_38  and  C_22 
REMARK   18  A    between atoms: C_23  and  O_42 
REMARK   19  A    between atoms: C_24  and  S_43 
ROOT
HETATM    1  C   UNK N   1      20.282  17.502   3.539  0.00  0.00     0.179 C 
HETATM    2  C   UNK N   1      21.637  18.243   3.581  0.00  0.00     0.181 C 
HETATM    3  C   UNK N   1      21.997  17.207   5.784  0.00  0.00     0.205 C 
HETATM    4  C   UNK N   1      22.579  17.368   4.409  0.00  0.00     0.189 C 
HETATM    5  C   UNK N   1      20.648  16.452   5.632  0.00  0.00     0.298 C 
HETATM    6  O   UNK N   1      21.504  19.524   4.132  0.00  0.00    -0.390 OA
HETATM    7  O   UNK N   1      19.751  17.246   4.847  0.00  0.00    -0.348 OA
HETATM    8  H   UNK N   1      21.485  20.457   4.396  0.00  0.00     0.210 HD
ENDROOT
BRANCH   1   9
HETATM    9  C   UNK N   1      19.304  18.332   2.718  0.00  0.00     0.198 C 
BRANCH   9  10
HETATM   10  O   UNK N   1      19.959  18.941   1.650  0.00  0.00    -0.398 OA
HETATM   11  H   UNK N   1      20.836  19.356   1.679  0.00  0.00     0.209 HD
ENDBRANCH   9  10
ENDBRANCH   1   9
BRANCH   4  12
HETATM   12  O   UNK N   1      23.866  17.904   4.525  0.00  0.00    -0.348 OA
BRANCH  12  13
HETATM   13  C   UNK N   1      24.803  17.232   3.676  0.00  0.00     0.290 C 
HETATM   14  C   UNK N   1      25.703  16.326   4.522  0.00  0.00     0.189 C 
HETATM   15  C   UNK N   1      26.139  17.180   5.708  0.00  0.00     0.115 C 
HETATM   16  C   UNK N   1      26.800  18.486   5.184  0.00  0.00     0.165 C 
HETATM   17  C   UNK N   1      26.401  18.995   3.752  0.00  0.00     0.178 C 
HETATM   18  O   UNK N   1      25.594  18.151   2.951  0.00  0.00    -0.349 OA
BRANCH  14  19
HETATM   19  O   UNK N   1      24.971  15.222   4.964  0.00  0.00    -0.389 OA
HETATM   20  H   UNK N   1      25.121  14.716   5.779  0.00  0.00     0.210 HD
ENDBRANCH  14  19
BRANCH  15  21
HETATM   21  S   UNK N   1      26.979  16.169   7.019  0.00  0.00    -0.124 SA
BRANCH  21  22
HETATM   22  C   UNK N   1      28.530  17.043   7.435  0.00  0.00     0.215 C 
HETATM   23  C   UNK N   1      28.617  17.206   8.958  0.00  0.00     0.188 C 
HETATM   24  C   UNK N   1      29.919  17.920   9.288  0.00  0.00     0.181 C 
HETATM   25  C   UNK N   1      31.041  17.009   8.808  0.00  0.00     0.180 C 
HETATM   26  C   UNK N   1      30.929  16.700   7.296  0.00  0.00     0.178 C 
HETATM   27  O   UNK N   1      29.624  16.376   6.834  0.00  0.00    -0.363 OA
BRANCH  23  28
HETATM   28  O   UNK N   1      27.528  17.944   9.430  0.00  0.00    -0.389 OA
HETATM   29  H   UNK N   1      26.624  17.646   9.248  0.00  0.00     0.210 HD
ENDBRANCH  23  28
BRANCH  24  30
HETATM   30  O   UNK N   1      29.976  19.168   8.656  0.00  0.00    -0.390 OA
HETATM   31  H   UNK N   1      29.420  19.921   8.398  0.00  0.00     0.210 HD
ENDBRANCH  24  30
BRANCH  25  32
HETATM   32  O   UNK N   1      32.284  17.581   9.087  0.00  0.00    -0.390 OA
HETATM   33  H   UNK N   1      33.102  17.065   9.005  0.00  0.00     0.210 HD
ENDBRANCH  25  32
BRANCH  26  34
HETATM   34  C   UNK N   1      31.787  15.453   7.040  0.00  0.00     0.198 C 
BRANCH  34  35
HETATM   35  O   UNK N   1      33.143  15.684   7.250  0.00  0.00    -0.398 OA
HETATM   36  H   UNK N   1      33.731  15.149   7.805  0.00  0.00     0.209 HD
ENDBRANCH  34  35
ENDBRANCH  26  34
ENDBRANCH  21  22
ENDBRANCH  15  21
BRANCH  16  37
HETATM   37  O   UNK N   1      26.586  19.501   6.128  0.00  0.00    -0.392 OA
HETATM   38  H   UNK N   1      25.930  19.762   6.792  0.00  0.00     0.210 HD
ENDBRANCH  16  37
BRANCH  17  39
HETATM   39  C   UNK N   1      25.884  20.434   3.703  0.00  0.00     0.198 C 
BRANCH  39  40
HETATM   40  O   UNK N   1      25.618  20.840   2.392  0.00  0.00    -0.398 OA
HETATM   41  H   UNK N   1      24.812  21.150   1.949  0.00  0.00     0.209 HD
ENDBRANCH  39  40
ENDBRANCH  17  39
ENDBRANCH  12  13
ENDBRANCH   4  12
BRANCH   3  42
HETATM   42  O   UNK N   1      21.812  18.433   6.438  0.00  0.00    -0.388 OA
HETATM   43  H   UNK N   1      21.799  19.357   6.734  0.00  0.00     0.210 HD
ENDBRANCH   3  42
BRANCH   5  44
HETATM   44  O   UNK N   1      20.103  16.203   6.894  0.00  0.00    -0.318 OA
BRANCH  44  45
HETATM   45  C   UNK N   1      20.362  15.044   7.560  0.00  0.00     0.072 C 
HETATM   46  C   UNK N   1      20.638  15.121   8.925  0.00  0.00     0.039 C 
HETATM   47  C   UNK N   1      21.326  14.086   9.557  0.00  0.00     0.039 C 
HETATM   48  C   UNK N   1      21.754  12.966   8.826  0.00  0.00     0.103 C 
HETATM   49  C   UNK N   1      21.348  12.824   7.491  0.00  0.00     0.039 C 
HETATM   50  C   UNK N   1      20.636  13.847   6.865  0.00  0.00     0.039 C 
BRANCH  48  51
HETATM   51  N   UNK N   1      22.665  12.039   9.410  0.00  0.00    -0.116 N 
HETATM   52  O   UNK N   1      23.554  11.583   8.762  0.00  0.00    -0.532 OA
HETATM   53  O   UNK N   1      22.437  11.584  10.495  0.00  0.00    -0.532 OA
ENDBRANCH  48  51
ENDBRANCH  44  45
ENDBRANCH   5  44
TORSDOF 19
ENDMDL
MODEL 9
REMARK VINA RESULT:      -6.8     16.423     20.776
REMARK  19 active torsions:
REMARK  status: ('A' for Active; 'I' for Inactive)
REMARK    1  A    between atoms: C_10  and  C_5 
REMARK    2  A    between atoms: O_26  and  C_5 
REMARK    3  A    between atoms: C_11  and  C_6 
REMARK    4  A    between atoms: O_27  and  C_6 
REMARK    5  A    between atoms: C_12  and  C_7 
REMARK    6  A    between atoms: O_28  and  C_7 
REMARK    7  A    between atoms: N_25  and  C_8 
REMARK    8  A    between atoms: O_38  and  C_9 
REMARK    9  A    between atoms: C_13  and  O_29 
REMARK   10  A    between atoms: C_15  and  O_31 
REMARK   11  A    between atoms: C_16  and  O_32 
REMARK   12  A    between atoms: C_17  and  O_33 
REMARK   13  A    between atoms: O_34  and  C_18 
REMARK   14  A    between atoms: C_19  and  O_35 
REMARK   15  A    between atoms: O_42  and  C_20 
REMARK   16  A    between atoms: C_21  and  S_43 
REMARK   17  A    between atoms: O_38  and  C_22 
REMARK   18  A    between atoms: C_23  and  O_42 
REMARK   19  A    between atoms: C_24  and  S_43 
ROOT
HETATM    1  C   UNK N   1      25.571  22.332  -6.911  0.00  0.00     0.179 C 
HETATM    2  C   UNK N   1      26.772  21.590  -7.539  0.00  0.00     0.181 C 
HETATM    3  C   UNK N   1      27.783  23.800  -7.921  0.00  0.00     0.205 C 
HETATM    4  C   UNK N   1      28.000  22.462  -7.276  0.00  0.00     0.189 C 
HETATM    5  C   UNK N   1      26.565  24.461  -7.220  0.00  0.00     0.298 C 
HETATM    6  O   UNK N   1      26.578  21.368  -8.908  0.00  0.00    -0.390 OA
HETATM    7  O   UNK N   1      25.402  23.656  -7.439  0.00  0.00    -0.348 OA
HETATM    8  H   UNK N   1      26.481  21.077  -9.828  0.00  0.00     0.210 HD
ENDROOT
BRANCH   1   9
HETATM    9  C   UNK N   1      24.316  21.501  -7.140  0.00  0.00     0.198 C 
BRANCH   9  10
HETATM   10  O   UNK N   1      23.559  22.039  -8.180  0.00  0.00    -0.398 OA
HETATM   11  H   UNK N   1      23.764  21.978  -9.126  0.00  0.00     0.209 HD
ENDBRANCH   9  10
ENDBRANCH   1   9
BRANCH   4  12
HETATM   12  O   UNK N   1      29.184  21.908  -7.776  0.00  0.00    -0.348 OA
BRANCH  12  13
HETATM   13  C   UNK N   1      29.327  20.531  -7.408  0.00  0.00     0.290 C 
HETATM   14  C   UNK N   1      30.551  20.368  -6.502  0.00  0.00     0.189 C 
HETATM   15  C   UNK N   1      31.667  21.154  -7.181  0.00  0.00     0.115 C 
HETATM   16  C   UNK N   1      31.837  20.646  -8.640  0.00  0.00     0.165 C 
HETATM   17  C   UNK N   1      30.602  19.967  -9.337  0.00  0.00     0.178 C 
HETATM   18  O   UNK N   1      29.459  19.704  -8.545  0.00  0.00    -0.349 OA
BRANCH  14  19
HETATM   19  O   UNK N   1      30.276  20.908  -5.243  0.00  0.00    -0.389 OA
HETATM   20  H   UNK N   1      29.635  20.573  -4.596  0.00  0.00     0.210 HD
ENDBRANCH  14  19
BRANCH  15  21
HETATM   21  S   UNK N   1      33.149  21.347  -6.080  0.00  0.00    -0.124 SA
BRANCH  21  22
HETATM   22  C   UNK N   1      32.934  22.932  -5.192  0.00  0.00     0.215 C 
HETATM   23  C   UNK N   1      32.443  23.994  -6.183  0.00  0.00     0.188 C 
HETATM   24  C   UNK N   1      32.254  25.300  -5.426  0.00  0.00     0.181 C 
HETATM   25  C   UNK N   1      31.176  25.039  -4.383  0.00  0.00     0.180 C 
HETATM   26  C   UNK N   1      31.560  23.881  -3.431  0.00  0.00     0.178 C 
HETATM   27  O   UNK N   1      32.108  22.730  -4.060  0.00  0.00    -0.363 OA
BRANCH  23  28
HETATM   28  O   UNK N   1      33.371  24.163  -7.214  0.00  0.00    -0.389 OA
HETATM   29  H   UNK N   1      33.208  24.816  -7.911  0.00  0.00     0.210 HD
ENDBRANCH  23  28
BRANCH  24  30
HETATM   30  O   UNK N   1      33.452  25.705  -4.825  0.00  0.00    -0.390 OA
HETATM   31  H   UNK N   1      33.798  26.276  -4.121  0.00  0.00     0.210 HD
ENDBRANCH  24  30
BRANCH  25  32
HETATM   32  O   UNK N   1      30.922  26.198  -3.645  0.00  0.00    -0.390 OA
HETATM   33  H   UNK N   1      30.325  26.184  -2.881  0.00  0.00     0.210 HD
ENDBRANCH  25  32
BRANCH  26  34
HETATM   34  C   UNK N   1      30.259  23.415  -2.763  0.00  0.00     0.198 C 
BRANCH  34  35
HETATM   35  O   UNK N   1      30.454  22.984  -1.455  0.00  0.00    -0.398 OA
HETATM   36  H   UNK N   1      30.763  23.533  -0.717  0.00  0.00     0.209 HD
ENDBRANCH  34  35
ENDBRANCH  26  34
ENDBRANCH  21  22
ENDBRANCH  15  21
BRANCH  16  37
HETATM   37  O   UNK N   1      32.306  21.707  -9.428  0.00  0.00    -0.392 OA
HETATM   38  H   UNK N   1      32.441  22.665  -9.367  0.00  0.00     0.210 HD
ENDBRANCH  16  37
BRANCH  17  39
HETATM   39  C   UNK N   1      30.197  20.592 -10.674  0.00  0.00     0.198 C 
BRANCH  39  40
HETATM   40  O   UNK N   1      29.334  21.677 -10.493  0.00  0.00    -0.398 OA
HETATM   41  H   UNK N   1      29.380  22.607 -10.765  0.00  0.00     0.209 HD
ENDBRANCH  39  40
ENDBRANCH  17  39
ENDBRANCH  12  13
ENDBRANCH   4  12
BRANCH   3  42
HETATM   42  O   UNK N   1      27.572  23.704  -9.303  0.00  0.00    -0.388 OA
HETATM   43  H   UNK N   1      27.383  23.439 -10.218  0.00  0.00     0.210 HD
ENDBRANCH   3  42
BRANCH   5  44
HETATM   44  O   UNK N   1      26.371  25.748  -7.728  0.00  0.00    -0.318 OA
BRANCH  44  45
HETATM   45  C   UNK N   1      26.176  26.813  -6.901  0.00  0.00     0.072 C 
HETATM   46  C   UNK N   1      27.174  27.784  -6.839  0.00  0.00     0.039 C 
HETATM   47  C   UNK N   1      27.255  28.632  -5.735  0.00  0.00     0.039 C 
HETATM   48  C   UNK N   1      26.341  28.509  -4.675  0.00  0.00     0.103 C 
HETATM   49  C   UNK N   1      25.254  27.633  -4.808  0.00  0.00     0.039 C 
HETATM   50  C   UNK N   1      25.157  26.804  -5.925  0.00  0.00     0.039 C 
BRANCH  48  51
HETATM   51  N   UNK N   1      26.575  29.196  -3.450  0.00  0.00    -0.116 N 
HETATM   52  O   UNK N   1      26.815  28.585  -2.456  0.00  0.00    -0.532 OA
HETATM   53  O   UNK N   1      26.357  30.372  -3.376  0.00  0.00    -0.532 OA
ENDBRANCH  48  51
ENDBRANCH  44  45
ENDBRANCH   5  44
TORSDOF 19
ENDMDL
