MODEL 1
REMARK VINA RESULT:      -8.4      0.000      0.000
REMARK  19 active torsions:
REMARK  status: ('A' for Active; 'I' for Inactive)
REMARK    1  A    between atoms: C_10  and  C_5 
REMARK    2  A    between atoms: O_41  and  C_5 
REMARK    3  A    between atoms: C_11  and  C_6 
REMARK    4  A    between atoms: O_42  and  C_6 
REMARK    5  A    between atoms: C_18  and  C_9 
REMARK    6  A    between atoms: C_13  and  O_33 
REMARK    7  A    between atoms: C_14  and  O_34 
REMARK    8  A    between atoms: C_15  and  O_35 
REMARK    9  A    between atoms: C_16  and  O_36 
REMARK   10  A    between atoms: N_22  and  C_17 
REMARK   11  A    between atoms: N_23  and  C_18 
REMARK   12  A    between atoms: C_20  and  N_31 
REMARK   13  A    between atoms: C_21  and  N_32 
REMARK   14  A    between atoms: P_46  and  O_38 
REMARK   15  A    between atoms: P_47  and  O_39 
REMARK   16  A    between atoms: P_46  and  O_41 
REMARK   17  A    between atoms: P_47  and  O_42 
REMARK   18  A    between atoms: P_46  and  O_45 
REMARK   19  A    between atoms: P_47  and  O_45 
ROOT
HETATM    1  O   UNK N   1      33.717  13.026   9.320  0.00  0.00    -0.631 OA
HETATM    2  P   UNK N   1      33.497  14.560   9.212  0.00  0.00     0.401 P 
ENDROOT
BRANCH   2   3
HETATM    3  O   UNK N   1      32.702  14.968  10.701  0.00  0.00    -0.307 OA
HETATM    4  H   UNK N   1      32.370  14.398  11.412  0.00  0.00     0.222 HD
ENDBRANCH   2   3
BRANCH   2   5
HETATM    5  O   UNK N   1      32.482  14.840   7.816  0.00  0.00    -0.294 OA
BRANCH   5   6
HETATM    6  C   UNK N   1      33.093  14.138   6.774  0.00  0.00     0.215 C 
BRANCH   6   7
HETATM    7  C   UNK N   1      33.202  14.983   5.499  0.00  0.00     0.180 C 
HETATM    8  C   UNK N   1      32.510  14.281   4.333  0.00  0.00     0.182 C 
HETATM    9  C   UNK N   1      31.086  14.684   4.592  0.00  0.00     0.198 C 
HETATM   10  C   UNK N   1      31.322  16.150   4.965  0.00  0.00     0.262 C 
HETATM   11  O   UNK N   1      32.537  16.219   5.699  0.00  0.00    -0.353 OA
BRANCH   8  12
HETATM   12  O   UNK N   1      32.942  14.851   3.128  0.00  0.00    -0.390 OA
HETATM   13  H   UNK N   1      32.954  15.114   2.194  0.00  0.00     0.210 HD
ENDBRANCH   8  12
BRANCH   9  14
HETATM   14  O   UNK N   1      30.570  13.973   5.682  0.00  0.00    -0.388 OA
HETATM   15  H   UNK N   1      30.083  13.654   6.458  0.00  0.00     0.210 HD
ENDBRANCH   9  14
BRANCH  10  16
HETATM   16  N   UNK N   1      30.207  16.713   5.727  0.00  0.00    -0.297 N 
HETATM   17  C   UNK N   1      28.899  16.747   5.361  0.00  0.00     0.188 A 
HETATM   18  N   UNK N   1      28.129  17.335   6.319  0.00  0.00    -0.346 N 
HETATM   19  C   UNK N   1      29.003  17.667   7.289  0.00  0.00     0.122 A 
ATOM     20  HN  UNK N   1      27.121  17.488   6.307  1.00  0.00     0.167 HD
HETATM   21  C   UNK N   1      28.789  18.301   8.500  0.00  0.00     0.131 A 
HETATM   22  C   UNK N   1      30.245  17.292   6.932  0.00  0.00     0.142 A 
HETATM   23  N   UNK N   1      29.874  18.534   9.300  0.00  0.00    -0.337 N 
HETATM   24  C   UNK N   1      31.135  18.146   8.913  0.00  0.00     0.183 A 
ATOM     25  HN  UNK N   1      29.745  19.002  10.198  1.00  0.00     0.168 HD
HETATM   26  N   UNK N   1      31.329  17.513   7.715  0.00  0.00    -0.336 N 
ATOM     27  HN  UNK N   1      32.260  17.217   7.422  1.00  0.00     0.168 HD
BRANCH  21  28
HETATM   28  N   UNK N   1      27.500  18.699   8.903  0.00  0.00    -0.383 N 
HETATM   29  H   UNK N   1      26.752  18.828   8.276  0.00  0.00     0.157 HD
HETATM   30  H   UNK N   1      27.338  18.855   9.862  0.00  0.00     0.157 HD
ENDBRANCH  21  28
ENDBRANCH  10  16
ENDBRANCH   6   7
ENDBRANCH   5   6
ENDBRANCH   2   5
BRANCH   2  31
HETATM   31  O   UNK N   1      35.093  15.244   8.987  0.00  0.00    -0.195 OA
BRANCH  31  32
HETATM   32  P   UNK N   1      35.712  15.888  10.493  0.00  0.00     0.401 P 
HETATM   33  O   UNK N   1      35.496  17.428  10.477  0.00  0.00    -0.631 OA
BRANCH  32  34
HETATM   34  O   UNK N   1      37.434  15.679  10.520  0.00  0.00    -0.307 OA
HETATM   35  H   UNK N   1      37.915  15.394  11.312  0.00  0.00     0.222 HD
ENDBRANCH  32  34
BRANCH  32  36
HETATM   36  O   UNK N   1      35.010  15.262  11.960  0.00  0.00    -0.294 OA
BRANCH  36  37
HETATM   37  C   UNK N   1      36.102  14.926  12.766  0.00  0.00     0.215 C 
BRANCH  37  38
HETATM   38  C   UNK N   1      35.738  13.823  13.721  0.00  0.00     0.180 C 
HETATM   39  C   UNK N   1      35.431  12.546  12.998  0.00  0.00     0.182 C 
HETATM   40  C   UNK N   1      35.323  11.644  14.195  0.00  0.00     0.198 C 
HETATM   41  C   UNK N   1      36.432  12.218  15.110  0.00  0.00     0.259 C 
HETATM   42  O   UNK N   1      36.814  13.472  14.550  0.00  0.00    -0.353 OA
BRANCH  39  43
HETATM   43  O   UNK N   1      34.248  12.614  12.257  0.00  0.00    -0.390 OA
HETATM   44  H   UNK N   1      33.683  12.278  11.544  0.00  0.00     0.210 HD
ENDBRANCH  39  43
BRANCH  40  45
HETATM   45  O   UNK N   1      35.512  10.301  13.861  0.00  0.00    -0.388 OA
HETATM   46  H   UNK N   1      36.109  10.027  13.148  0.00  0.00     0.210 HD
ENDBRANCH  40  45
BRANCH  41  47
HETATM   47  N   UNK N   1      35.925  12.441  16.476  0.00  0.00    -0.336 N 
HETATM   48  C   UNK N   1      35.681  13.697  16.952  0.00  0.00     0.093 A 
HETATM   49  C   UNK N   1      35.251  13.874  18.274  0.00  0.00     0.018 A 
HETATM   50  C   UNK N   1      35.079  12.758  19.101  0.00  0.00     0.017 A 
HETATM   51  C   UNK N   1      35.331  11.477  18.598  0.00  0.00     0.013 A 
HETATM   52  C   UNK N   1      35.748  11.356  17.282  0.00  0.00     0.107 A 
BRANCH  51  53
HETATM   53  C   UNK N   1      35.189  10.257  19.423  0.00  0.00     0.086 C 
HETATM   54  S   UNK N   1      34.018   8.972  18.955  0.00  0.00    -0.033 SA
BRANCH  53  55
HETATM   55  N   UNK N   1      35.920  10.084  20.461  0.00  0.00    -0.392 N 
HETATM   56  H   UNK N   1      35.585   9.810  21.346  0.00  0.00     0.156 HD
ATOM     57  HN  UNK N   1      36.923  10.243  20.364  1.00  0.00     0.156 HD
ENDBRANCH  53  55
ENDBRANCH  51  53
ENDBRANCH  41  47
ENDBRANCH  37  38
ENDBRANCH  36  37
ENDBRANCH  32  36
ENDBRANCH  31  32
ENDBRANCH   2  31
TORSDOF 19
ENDMDL
MODEL 2
REMARK VINA RESULT:      -8.1     11.313     15.440
REMARK  19 active torsions:
REMARK  status: ('A' for Active; 'I' for Inactive)
REMARK    1  A    between atoms: C_10  and  C_5 
REMARK    2  A    between atoms: O_41  and  C_5 
REMARK    3  A    between atoms: C_11  and  C_6 
REMARK    4  A    between atoms: O_42  and  C_6 
REMARK    5  A    between atoms: C_18  and  C_9 
REMARK    6  A    between atoms: C_13  and  O_33 
REMARK    7  A    between atoms: C_14  and  O_34 
REMARK    8  A    between atoms: C_15  and  O_35 
REMARK    9  A    between atoms: C_16  and  O_36 
REMARK   10  A    between atoms: N_22  and  C_17 
REMARK   11  A    between atoms: N_23  and  C_18 
REMARK   12  A    between atoms: C_20  and  N_31 
REMARK   13  A    between atoms: C_21  and  N_32 
REMARK   14  A    between atoms: P_46  and  O_38 
REMARK   15  A    between atoms: P_47  and  O_39 
REMARK   16  A    between atoms: P_46  and  O_41 
REMARK   17  A    between atoms: P_47  and  O_42 
REMARK   18  A    between atoms: P_46  and  O_45 
REMARK   19  A    between atoms: P_47  and  O_45 
ROOT
HETATM    1  O   UNK N   1      20.405  12.293   4.293  0.00  0.00    -0.631 OA
HETATM    2  P   UNK N   1      20.996  13.131   3.126  0.00  0.00     0.401 P 
ENDROOT
BRANCH   2   3
HETATM    3  O   UNK N   1      21.424  11.937   1.938  0.00  0.00    -0.307 OA
HETATM    4  H   UNK N   1      20.866  11.434   1.325  0.00  0.00     0.222 HD
ENDBRANCH   2   3
BRANCH   2   5
HETATM    5  O   UNK N   1      22.392  13.977   3.751  0.00  0.00    -0.294 OA
BRANCH   5   6
HETATM    6  C   UNK N   1      22.270  13.904   5.142  0.00  0.00     0.215 C 
BRANCH   6   7
HETATM    7  C   UNK N   1      22.117  15.291   5.778  0.00  0.00     0.180 C 
HETATM    8  C   UNK N   1      20.652  15.719   5.776  0.00  0.00     0.182 C 
HETATM    9  C   UNK N   1      20.166  15.000   7.002  0.00  0.00     0.198 C 
HETATM   10  C   UNK N   1      21.357  15.278   7.923  0.00  0.00     0.262 C 
HETATM   11  O   UNK N   1      22.537  15.234   7.131  0.00  0.00    -0.353 OA
BRANCH   8  12
HETATM   12  O   UNK N   1      20.574  17.102   5.989  0.00  0.00    -0.390 OA
HETATM   13  H   UNK N   1      20.244  17.963   6.291  0.00  0.00     0.210 HD
ENDBRANCH   8  12
BRANCH   9  14
HETATM   14  O   UNK N   1      20.049  13.627   6.745  0.00  0.00    -0.388 OA
HETATM   15  H   UNK N   1      20.180  12.693   6.520  0.00  0.00     0.210 HD
ENDBRANCH   9  14
BRANCH  10  16
HETATM   16  N   UNK N   1      21.428  14.330   9.035  0.00  0.00    -0.297 N 
HETATM   17  C   UNK N   1      20.399  13.896   9.810  0.00  0.00     0.188 A 
HETATM   18  N   UNK N   1      20.823  13.003  10.747  0.00  0.00    -0.346 N 
HETATM   19  C   UNK N   1      22.149  12.902  10.532  0.00  0.00     0.122 A 
ATOM     20  HN  UNK N   1      20.265  12.521  11.452  1.00  0.00     0.167 HD
HETATM   21  C   UNK N   1      23.102  12.146  11.192  0.00  0.00     0.131 A 
HETATM   22  C   UNK N   1      22.507  13.695   9.506  0.00  0.00     0.142 A 
HETATM   23  N   UNK N   1      24.399  12.244  10.772  0.00  0.00    -0.337 N 
HETATM   24  C   UNK N   1      24.743  13.065   9.724  0.00  0.00     0.183 A 
ATOM     25  HN  UNK N   1      25.123  11.700  11.243  1.00  0.00     0.168 HD
HETATM   26  N   UNK N   1      23.788  13.801   9.077  0.00  0.00    -0.336 N 
ATOM     27  HN  UNK N   1      24.033  14.408   8.295  1.00  0.00     0.168 HD
BRANCH  21  28
HETATM   28  N   UNK N   1      22.755  11.301  12.264  0.00  0.00    -0.383 N 
HETATM   29  H   UNK N   1      22.436  11.633  13.135  0.00  0.00     0.157 HD
HETATM   30  H   UNK N   1      22.835  10.328  12.137  0.00  0.00     0.157 HD
ENDBRANCH  21  28
ENDBRANCH  10  16
ENDBRANCH   6   7
ENDBRANCH   5   6
ENDBRANCH   2   5
BRANCH   2  31
HETATM   31  O   UNK N   1      19.728  14.245   2.664  0.00  0.00    -0.195 OA
BRANCH  31  32
HETATM   32  P   UNK N   1      20.094  15.003   1.129  0.00  0.00     0.401 P 
HETATM   33  O   UNK N   1      19.237  14.304   0.036  0.00  0.00    -0.631 OA
BRANCH  32  34
HETATM   34  O   UNK N   1      21.737  14.638   0.708  0.00  0.00    -0.307 OA
HETATM   35  H   UNK N   1      22.354  14.214   1.325  0.00  0.00     0.222 HD
ENDBRANCH  32  34
BRANCH  32  36
HETATM   36  O   UNK N   1      19.814  16.719   1.015  0.00  0.00    -0.294 OA
BRANCH  36  37
HETATM   37  C   UNK N   1      19.931  17.190   2.326  0.00  0.00     0.215 C 
BRANCH  37  38
HETATM   38  C   UNK N   1      21.055  18.181   2.438  0.00  0.00     0.180 C 
HETATM   39  C   UNK N   1      20.647  19.538   1.947  0.00  0.00     0.182 C 
HETATM   40  C   UNK N   1      21.869  20.297   2.377  0.00  0.00     0.198 C 
HETATM   41  C   UNK N   1      22.203  19.604   3.720  0.00  0.00     0.259 C 
HETATM   42  O   UNK N   1      21.416  18.417   3.773  0.00  0.00    -0.353 OA
BRANCH  39  43
HETATM   43  O   UNK N   1      20.437  19.574   0.567  0.00  0.00    -0.390 OA
HETATM   44  H   UNK N   1      19.887  19.820  -0.193  0.00  0.00     0.210 HD
ENDBRANCH  39  43
BRANCH  40  45
HETATM   45  O   UNK N   1      21.623  21.667   2.500  0.00  0.00    -0.388 OA
HETATM   46  H   UNK N   1      22.305  22.288   2.799  0.00  0.00     0.210 HD
ENDBRANCH  40  45
BRANCH  41  47
HETATM   47  N   UNK N   1      23.629  19.233   3.782  0.00  0.00    -0.336 N 
HETATM   48  C   UNK N   1      24.613  20.120   3.457  0.00  0.00     0.093 A 
HETATM   49  C   UNK N   1      25.955  19.717   3.476  0.00  0.00     0.018 A 
HETATM   50  C   UNK N   1      26.276  18.400   3.826  0.00  0.00     0.017 A 
HETATM   51  C   UNK N   1      25.256  17.503   4.159  0.00  0.00     0.013 A 
HETATM   52  C   UNK N   1      23.946  17.954   4.130  0.00  0.00     0.107 A 
BRANCH  51  53
HETATM   53  C   UNK N   1      25.523  16.092   4.518  0.00  0.00     0.086 C 
HETATM   54  S   UNK N   1      26.096  15.665   6.171  0.00  0.00    -0.033 SA
BRANCH  53  55
HETATM   55  N   UNK N   1      25.319  15.155   3.669  0.00  0.00    -0.392 N 
HETATM   56  H   UNK N   1      24.469  15.000   3.194  0.00  0.00     0.156 HD
ATOM     57  HN  UNK N   1      26.094  14.521   3.470  1.00  0.00     0.156 HD
ENDBRANCH  53  55
ENDBRANCH  51  53
ENDBRANCH  41  47
ENDBRANCH  37  38
ENDBRANCH  36  37
ENDBRANCH  32  36
ENDBRANCH  31  32
ENDBRANCH   2  31
TORSDOF 19
ENDMDL
MODEL 3
REMARK VINA RESULT:      -8.1      5.104     11.093
REMARK  19 active torsions:
REMARK  status: ('A' for Active; 'I' for Inactive)
REMARK    1  A    between atoms: C_10  and  C_5 
REMARK    2  A    between atoms: O_41  and  C_5 
REMARK    3  A    between atoms: C_11  and  C_6 
REMARK    4  A    between atoms: O_42  and  C_6 
REMARK    5  A    between atoms: C_18  and  C_9 
REMARK    6  A    between atoms: C_13  and  O_33 
REMARK    7  A    between atoms: C_14  and  O_34 
REMARK    8  A    between atoms: C_15  and  O_35 
REMARK    9  A    between atoms: C_16  and  O_36 
REMARK   10  A    between atoms: N_22  and  C_17 
REMARK   11  A    between atoms: N_23  and  C_18 
REMARK   12  A    between atoms: C_20  and  N_31 
REMARK   13  A    between atoms: C_21  and  N_32 
REMARK   14  A    between atoms: P_46  and  O_38 
REMARK   15  A    between atoms: P_47  and  O_39 
REMARK   16  A    between atoms: P_46  and  O_41 
REMARK   17  A    between atoms: P_47  and  O_42 
REMARK   18  A    between atoms: P_46  and  O_45 
REMARK   19  A    between atoms: P_47  and  O_45 
ROOT
HETATM    1  O   UNK N   1      34.451  17.947   6.677  0.00  0.00    -0.631 OA
HETATM    2  P   UNK N   1      34.299  18.119   8.213  0.00  0.00     0.401 P 
ENDROOT
BRANCH   2   3
HETATM    3  O   UNK N   1      35.527  19.277   8.622  0.00  0.00    -0.307 OA
HETATM    4  H   UNK N   1      35.477  20.082   9.161  0.00  0.00     0.222 HD
ENDBRANCH   2   3
BRANCH   2   5
HETATM    5  O   UNK N   1      34.590  16.555   8.940  0.00  0.00    -0.294 OA
BRANCH   5   6
HETATM    6  C   UNK N   1      35.157  16.833  10.188  0.00  0.00     0.215 C 
BRANCH   6   7
HETATM    7  C   UNK N   1      36.152  15.749  10.619  0.00  0.00     0.180 C 
HETATM    8  C   UNK N   1      35.735  15.146  11.958  0.00  0.00     0.182 C 
HETATM    9  C   UNK N   1      34.710  14.151  11.490  0.00  0.00     0.198 C 
HETATM   10  C   UNK N   1      35.450  13.613  10.262  0.00  0.00     0.262 C 
HETATM   11  O   UNK N   1      36.144  14.700   9.665  0.00  0.00    -0.353 OA
BRANCH   8  12
HETATM   12  O   UNK N   1      36.823  14.462  12.516  0.00  0.00    -0.390 OA
HETATM   13  H   UNK N   1      37.371  13.734  12.851  0.00  0.00     0.210 HD
ENDBRANCH   8  12
BRANCH   9  14
HETATM   14  O   UNK N   1      33.533  14.809  11.110  0.00  0.00    -0.388 OA
HETATM   15  H   UNK N   1      32.665  15.239  11.057  0.00  0.00     0.210 HD
ENDBRANCH   9  14
BRANCH  10  16
HETATM   16  N   UNK N   1      34.544  12.972   9.309  0.00  0.00    -0.297 N 
HETATM   17  C   UNK N   1      33.721  11.916   9.543  0.00  0.00     0.188 A 
HETATM   18  N   UNK N   1      33.007  11.586   8.431  0.00  0.00    -0.346 N 
HETATM   19  C   UNK N   1      33.417  12.468   7.499  0.00  0.00     0.122 A 
ATOM     20  HN  UNK N   1      32.317  10.841   8.327  1.00  0.00     0.167 HD
HETATM   21  C   UNK N   1      33.039  12.603   6.175  0.00  0.00     0.131 A 
HETATM   22  C   UNK N   1      34.335  13.297   8.029  0.00  0.00     0.142 A 
HETATM   23  N   UNK N   1      33.635  13.589   5.438  0.00  0.00    -0.337 N 
HETATM   24  C   UNK N   1      34.574  14.422   5.998  0.00  0.00     0.183 A 
ATOM     25  HN  UNK N   1      33.377  13.710   4.458  1.00  0.00     0.168 HD
HETATM   26  N   UNK N   1      34.931  14.281   7.312  0.00  0.00    -0.336 N 
ATOM     27  HN  UNK N   1      35.624  14.897   7.738  1.00  0.00     0.168 HD
BRANCH  21  28
HETATM   28  N   UNK N   1      32.076  11.755   5.596  0.00  0.00    -0.383 N 
HETATM   29  H   UNK N   1      32.289  10.875   5.211  0.00  0.00     0.157 HD
HETATM   30  H   UNK N   1      31.139  12.058   5.577  0.00  0.00     0.157 HD
ENDBRANCH  21  28
ENDBRANCH  10  16
ENDBRANCH   6   7
ENDBRANCH   5   6
ENDBRANCH   2   5
BRANCH   2  31
HETATM   31  O   UNK N   1      32.646  18.640   8.462  0.00  0.00    -0.195 OA
BRANCH  31  32
HETATM   32  P   UNK N   1      31.519  17.402   7.949  0.00  0.00     0.401 P 
HETATM   33  O   UNK N   1      31.679  16.187   8.906  0.00  0.00    -0.631 OA
BRANCH  32  34
HETATM   34  O   UNK N   1      32.013  16.812   6.394  0.00  0.00    -0.307 OA
HETATM   35  H   UNK N   1      31.380  16.522   5.719  0.00  0.00     0.222 HD
ENDBRANCH  32  34
BRANCH  32  36
HETATM   36  O   UNK N   1      29.834  17.842   7.915  0.00  0.00    -0.294 OA
BRANCH  36  37
HETATM   37  C   UNK N   1      29.174  16.701   7.450  0.00  0.00     0.215 C 
BRANCH  37  38
HETATM   38  C   UNK N   1      28.477  16.983   6.148  0.00  0.00     0.180 C 
HETATM   39  C   UNK N   1      28.290  18.455   5.929  0.00  0.00     0.182 C 
HETATM   40  C   UNK N   1      27.786  18.397   4.515  0.00  0.00     0.198 C 
HETATM   41  C   UNK N   1      28.632  17.239   3.935  0.00  0.00     0.259 C 
HETATM   42  O   UNK N   1      29.248  16.588   5.044  0.00  0.00    -0.353 OA
BRANCH  39  43
HETATM   43  O   UNK N   1      27.372  19.022   6.815  0.00  0.00    -0.390 OA
HETATM   44  H   UNK N   1      26.567  18.949   7.351  0.00  0.00     0.210 HD
ENDBRANCH  39  43
BRANCH  40  45
HETATM   45  O   UNK N   1      27.960  19.610   3.843  0.00  0.00    -0.388 OA
HETATM   46  H   UNK N   1      27.859  20.465   4.289  0.00  0.00     0.210 HD
ENDBRANCH  40  45
BRANCH  41  47
HETATM   47  N   UNK N   1      27.781  16.267   3.226  0.00  0.00    -0.336 N 
HETATM   48  C   UNK N   1      26.451  16.495   3.022  0.00  0.00     0.093 A 
HETATM   49  C   UNK N   1      25.661  15.525   2.391  0.00  0.00     0.018 A 
HETATM   50  C   UNK N   1      26.244  14.321   1.978  0.00  0.00     0.017 A 
HETATM   51  C   UNK N   1      27.609  14.102   2.191  0.00  0.00     0.013 A 
HETATM   52  C   UNK N   1      28.347  15.096   2.814  0.00  0.00     0.107 A 
BRANCH  51  53
HETATM   53  C   UNK N   1      28.284  12.845   1.798  0.00  0.00     0.086 C 
HETATM   54  S   UNK N   1      27.605  11.252   2.293  0.00  0.00    -0.033 SA
BRANCH  53  55
HETATM   55  N   UNK N   1      29.340  12.873   1.073  0.00  0.00    -0.392 N 
HETATM   56  H   UNK N   1      29.751  13.691   0.708  0.00  0.00     0.156 HD
ATOM     57  HN  UNK N   1      29.788  11.982   0.857  1.00  0.00     0.156 HD
ENDBRANCH  53  55
ENDBRANCH  51  53
ENDBRANCH  41  47
ENDBRANCH  37  38
ENDBRANCH  36  37
ENDBRANCH  32  36
ENDBRANCH  31  32
ENDBRANCH   2  31
TORSDOF 19
ENDMDL
MODEL 4
REMARK VINA RESULT:      -8.0      5.400     11.566
REMARK  19 active torsions:
REMARK  status: ('A' for Active; 'I' for Inactive)
REMARK    1  A    between atoms: C_10  and  C_5 
REMARK    2  A    between atoms: O_41  and  C_5 
REMARK    3  A    between atoms: C_11  and  C_6 
REMARK    4  A    between atoms: O_42  and  C_6 
REMARK    5  A    between atoms: C_18  and  C_9 
REMARK    6  A    between atoms: C_13  and  O_33 
REMARK    7  A    between atoms: C_14  and  O_34 
REMARK    8  A    between atoms: C_15  and  O_35 
REMARK    9  A    between atoms: C_16  and  O_36 
REMARK   10  A    between atoms: N_22  and  C_17 
REMARK   11  A    between atoms: N_23  and  C_18 
REMARK   12  A    between atoms: C_20  and  N_31 
REMARK   13  A    between atoms: C_21  and  N_32 
REMARK   14  A    between atoms: P_46  and  O_38 
REMARK   15  A    between atoms: P_47  and  O_39 
REMARK   16  A    between atoms: P_46  and  O_41 
REMARK   17  A    between atoms: P_47  and  O_42 
REMARK   18  A    between atoms: P_46  and  O_45 
REMARK   19  A    between atoms: P_47  and  O_45 
ROOT
HETATM    1  O   UNK N   1      34.425  17.865   6.596  0.00  0.00    -0.631 OA
HETATM    2  P   UNK N   1      34.231  17.969   8.134  0.00  0.00     0.401 P 
ENDROOT
BRANCH   2   3
HETATM    3  O   UNK N   1      35.274  19.281   8.591  0.00  0.00    -0.307 OA
HETATM    4  H   UNK N   1      35.850  19.385   9.364  0.00  0.00     0.222 HD
ENDBRANCH   2   3
BRANCH   2   5
HETATM    5  O   UNK N   1      34.737  16.445   8.824  0.00  0.00    -0.294 OA
BRANCH   5   6
HETATM    6  C   UNK N   1      35.252  16.767  10.083  0.00  0.00     0.215 C 
BRANCH   6   7
HETATM    7  C   UNK N   1      36.215  15.693  10.601  0.00  0.00     0.180 C 
HETATM    8  C   UNK N   1      35.756  15.178  11.963  0.00  0.00     0.182 C 
HETATM    9  C   UNK N   1      34.723  14.177  11.531  0.00  0.00     0.198 C 
HETATM   10  C   UNK N   1      35.479  13.553  10.355  0.00  0.00     0.262 C 
HETATM   11  O   UNK N   1      36.208  14.589   9.711  0.00  0.00    -0.353 OA
BRANCH   8  12
HETATM   12  O   UNK N   1      36.818  14.508  12.586  0.00  0.00    -0.390 OA
HETATM   13  H   UNK N   1      37.484  14.270  13.250  0.00  0.00     0.210 HD
ENDBRANCH   8  12
BRANCH   9  14
HETATM   14  O   UNK N   1      33.568  14.833  11.085  0.00  0.00    -0.388 OA
HETATM   15  H   UNK N   1      32.690  15.228  10.971  0.00  0.00     0.210 HD
ENDBRANCH   9  14
BRANCH  10  16
HETATM   16  N   UNK N   1      34.582  12.873   9.420  0.00  0.00    -0.297 N 
HETATM   17  C   UNK N   1      33.711  11.869   9.703  0.00  0.00     0.188 A 
HETATM   18  N   UNK N   1      33.022  11.480   8.593  0.00  0.00    -0.346 N 
HETATM   19  C   UNK N   1      33.499  12.272   7.613  0.00  0.00     0.122 A 
ATOM     20  HN  UNK N   1      32.309  10.755   8.520  1.00  0.00     0.167 HD
HETATM   21  C   UNK N   1      33.172  12.318   6.269  0.00  0.00     0.131 A 
HETATM   22  C   UNK N   1      34.430  13.106   8.112  0.00  0.00     0.142 A 
HETATM   23  N   UNK N   1      33.831  13.222   5.482  0.00  0.00    -0.337 N 
HETATM   24  C   UNK N   1      34.782  14.061   6.012  0.00  0.00     0.183 A 
ATOM     25  HN  UNK N   1      33.611  13.275   4.487  1.00  0.00     0.168 HD
HETATM   26  N   UNK N   1      35.088  14.008   7.344  0.00  0.00    -0.336 N 
ATOM     27  HN  UNK N   1      35.789  14.630   7.748  1.00  0.00     0.168 HD
BRANCH  21  28
HETATM   28  N   UNK N   1      32.197  11.463   5.721  0.00  0.00    -0.383 N 
HETATM   29  H   UNK N   1      32.247  11.096   4.809  0.00  0.00     0.157 HD
HETATM   30  H   UNK N   1      31.423  11.219   6.280  0.00  0.00     0.157 HD
ENDBRANCH  21  28
ENDBRANCH  10  16
ENDBRANCH   6   7
ENDBRANCH   5   6
ENDBRANCH   2   5
BRANCH   2  31
HETATM   31  O   UNK N   1      32.518  18.239   8.370  0.00  0.00    -0.195 OA
BRANCH  31  32
HETATM   32  P   UNK N   1      31.604  16.789   8.014  0.00  0.00     0.401 P 
HETATM   33  O   UNK N   1      31.675  15.863   9.262  0.00  0.00    -0.631 OA
BRANCH  32  34
HETATM   34  O   UNK N   1      32.423  15.911   6.761  0.00  0.00    -0.307 OA
HETATM   35  H   UNK N   1      31.997  15.203   6.253  0.00  0.00     0.222 HD
ENDBRANCH  32  34
BRANCH  32  36
HETATM   36  O   UNK N   1      29.926  17.001   7.597  0.00  0.00    -0.294 OA
BRANCH  36  37
HETATM   37  C   UNK N   1      29.932  17.320   6.236  0.00  0.00     0.215 C 
BRANCH  37  38
HETATM   38  C   UNK N   1      28.531  17.535   5.734  0.00  0.00     0.180 C 
HETATM   39  C   UNK N   1      27.955  18.825   6.238  0.00  0.00     0.182 C 
HETATM   40  C   UNK N   1      26.697  18.831   5.418  0.00  0.00     0.198 C 
HETATM   41  C   UNK N   1      27.199  18.232   4.083  0.00  0.00     0.259 C 
HETATM   42  O   UNK N   1      28.492  17.688   4.339  0.00  0.00    -0.353 OA
BRANCH  39  43
HETATM   43  O   UNK N   1      27.712  18.808   7.613  0.00  0.00    -0.390 OA
HETATM   44  H   UNK N   1      27.941  19.097   8.511  0.00  0.00     0.210 HD
ENDBRANCH  39  43
BRANCH  40  45
HETATM   45  O   UNK N   1      26.158  20.114   5.289  0.00  0.00    -0.388 OA
HETATM   46  H   UNK N   1      25.796  20.599   6.047  0.00  0.00     0.210 HD
ENDBRANCH  40  45
BRANCH  41  47
HETATM   47  N   UNK N   1      26.310  17.149   3.623  0.00  0.00    -0.336 N 
HETATM   48  C   UNK N   1      26.751  16.172   2.778  0.00  0.00     0.093 A 
HETATM   49  C   UNK N   1      25.865  15.189   2.320  0.00  0.00     0.018 A 
HETATM   50  C   UNK N   1      24.526  15.220   2.729  0.00  0.00     0.017 A 
HETATM   51  C   UNK N   1      24.090  16.226   3.597  0.00  0.00     0.013 A 
HETATM   52  C   UNK N   1      25.008  17.171   4.026  0.00  0.00     0.107 A 
BRANCH  51  53
HETATM   53  C   UNK N   1      22.685  16.329   4.052  0.00  0.00     0.086 C 
HETATM   54  S   UNK N   1      21.675  17.743   3.579  0.00  0.00    -0.033 SA
BRANCH  53  55
HETATM   55  N   UNK N   1      22.161  15.399   4.760  0.00  0.00    -0.392 N 
HETATM   56  H   UNK N   1      22.141  15.385   5.745  0.00  0.00     0.156 HD
ATOM     57  HN  UNK N   1      21.732  14.616   4.268  1.00  0.00     0.156 HD
ENDBRANCH  53  55
ENDBRANCH  51  53
ENDBRANCH  41  47
ENDBRANCH  37  38
ENDBRANCH  36  37
ENDBRANCH  32  36
ENDBRANCH  31  32
ENDBRANCH   2  31
TORSDOF 19
ENDMDL
MODEL 5
REMARK VINA RESULT:      -7.9      5.367     11.037
REMARK  19 active torsions:
REMARK  status: ('A' for Active; 'I' for Inactive)
REMARK    1  A    between atoms: C_10  and  C_5 
REMARK    2  A    between atoms: O_41  and  C_5 
REMARK    3  A    between atoms: C_11  and  C_6 
REMARK    4  A    between atoms: O_42  and  C_6 
REMARK    5  A    between atoms: C_18  and  C_9 
REMARK    6  A    between atoms: C_13  and  O_33 
REMARK    7  A    between atoms: C_14  and  O_34 
REMARK    8  A    between atoms: C_15  and  O_35 
REMARK    9  A    between atoms: C_16  and  O_36 
REMARK   10  A    between atoms: N_22  and  C_17 
REMARK   11  A    between atoms: N_23  and  C_18 
REMARK   12  A    between atoms: C_20  and  N_31 
REMARK   13  A    between atoms: C_21  and  N_32 
REMARK   14  A    between atoms: P_46  and  O_38 
REMARK   15  A    between atoms: P_47  and  O_39 
REMARK   16  A    between atoms: P_46  and  O_41 
REMARK   17  A    between atoms: P_47  and  O_42 
REMARK   18  A    between atoms: P_46  and  O_45 
REMARK   19  A    between atoms: P_47  and  O_45 
ROOT
HETATM    1  O   UNK N   1      34.570  17.627   6.619  0.00  0.00    -0.631 OA
HETATM    2  P   UNK N   1      34.242  17.854   8.120  0.00  0.00     0.401 P 
ENDROOT
BRANCH   2   3
HETATM    3  O   UNK N   1      35.287  19.165   8.576  0.00  0.00    -0.307 OA
HETATM    4  H   UNK N   1      35.147  19.889   9.205  0.00  0.00     0.222 HD
ENDBRANCH   2   3
BRANCH   2   5
HETATM    5  O   UNK N   1      34.625  16.372   8.964  0.00  0.00    -0.294 OA
BRANCH   5   6
HETATM    6  C   UNK N   1      35.205  16.778  10.169  0.00  0.00     0.215 C 
BRANCH   6   7
HETATM    7  C   UNK N   1      36.200  15.742  10.705  0.00  0.00     0.180 C 
HETATM    8  C   UNK N   1      35.753  15.231  12.073  0.00  0.00     0.182 C 
HETATM    9  C   UNK N   1      34.753  14.193  11.651  0.00  0.00     0.198 C 
HETATM   10  C   UNK N   1      35.532  13.576  10.486  0.00  0.00     0.262 C 
HETATM   11  O   UNK N   1      36.231  14.626   9.830  0.00  0.00    -0.353 OA
BRANCH   8  12
HETATM   12  O   UNK N   1      36.833  14.604  12.708  0.00  0.00    -0.390 OA
HETATM   13  H   UNK N   1      37.347  13.941  13.196  0.00  0.00     0.210 HD
ENDBRANCH   8  12
BRANCH   9  14
HETATM   14  O   UNK N   1      33.580  14.806  11.193  0.00  0.00    -0.388 OA
HETATM   15  H   UNK N   1      32.706  15.025  10.834  0.00  0.00     0.210 HD
ENDBRANCH   9  14
BRANCH  10  16
HETATM   16  N   UNK N   1      34.660  12.856   9.558  0.00  0.00    -0.297 N 
HETATM   17  C   UNK N   1      33.825  11.824   9.851  0.00  0.00     0.188 A 
HETATM   18  N   UNK N   1      33.151  11.401   8.746  0.00  0.00    -0.346 N 
HETATM   19  C   UNK N   1      33.598  12.199   7.758  0.00  0.00     0.122 A 
ATOM     20  HN  UNK N   1      32.463  10.650   8.680  1.00  0.00     0.167 HD
HETATM   21  C   UNK N   1      33.271  12.220   6.413  0.00  0.00     0.131 A 
HETATM   22  C   UNK N   1      34.499  13.070   8.248  0.00  0.00     0.142 A 
HETATM   23  N   UNK N   1      33.896  13.139   5.618  0.00  0.00    -0.337 N 
HETATM   24  C   UNK N   1      34.817  14.017   6.139  0.00  0.00     0.183 A 
ATOM     25  HN  UNK N   1      33.675  13.175   4.622  1.00  0.00     0.168 HD
HETATM   26  N   UNK N   1      35.125  13.989   7.472  0.00  0.00    -0.336 N 
ATOM     27  HN  UNK N   1      35.803  14.639   7.869  1.00  0.00     0.168 HD
BRANCH  21  28
HETATM   28  N   UNK N   1      32.326  11.326   5.874  0.00  0.00    -0.383 N 
HETATM   29  H   UNK N   1      32.468  10.353   5.822  0.00  0.00     0.157 HD
HETATM   30  H   UNK N   1      31.478  11.693   5.532  0.00  0.00     0.157 HD
ENDBRANCH  21  28
ENDBRANCH  10  16
ENDBRANCH   6   7
ENDBRANCH   5   6
ENDBRANCH   2   5
BRANCH   2  31
HETATM   31  O   UNK N   1      32.525  18.194   8.175  0.00  0.00    -0.195 OA
BRANCH  31  32
HETATM   32  P   UNK N   1      31.648  17.147   7.080  0.00  0.00     0.401 P 
HETATM   33  O   UNK N   1      30.173  17.076   7.567  0.00  0.00    -0.631 OA
BRANCH  32  34
HETATM   34  O   UNK N   1      32.253  15.530   7.255  0.00  0.00    -0.307 OA
HETATM   35  H   UNK N   1      32.305  14.907   6.514  0.00  0.00     0.222 HD
ENDBRANCH  32  34
BRANCH  32  36
HETATM   36  O   UNK N   1      31.638  17.603   5.398  0.00  0.00    -0.294 OA
BRANCH  36  37
HETATM   37  C   UNK N   1      30.410  17.148   4.910  0.00  0.00     0.215 C 
BRANCH  37  38
HETATM   38  C   UNK N   1      30.604  15.973   3.992  0.00  0.00     0.180 C 
HETATM   39  C   UNK N   1      32.036  15.831   3.572  0.00  0.00     0.182 C 
HETATM   40  C   UNK N   1      31.923  14.507   2.873  0.00  0.00     0.198 C 
HETATM   41  C   UNK N   1      30.904  13.771   3.776  0.00  0.00     0.259 C 
HETATM   42  O   UNK N   1      30.336  14.755   4.636  0.00  0.00    -0.353 OA
BRANCH  39  43
HETATM   43  O   UNK N   1      32.457  16.861   2.727  0.00  0.00    -0.390 OA
HETATM   44  H   UNK N   1      32.265  17.508   2.030  0.00  0.00     0.210 HD
ENDBRANCH  39  43
BRANCH  40  45
HETATM   45  O   UNK N   1      33.156  13.856   2.774  0.00  0.00    -0.388 OA
HETATM   46  H   UNK N   1      33.983  14.340   2.623  0.00  0.00     0.210 HD
ENDBRANCH  40  45
BRANCH  41  47
HETATM   47  N   UNK N   1      29.828  13.164   2.971  0.00  0.00    -0.336 N 
HETATM   48  C   UNK N   1      28.550  13.072   3.439  0.00  0.00     0.093 A 
HETATM   49  C   UNK N   1      27.565  12.441   2.669  0.00  0.00     0.018 A 
HETATM   50  C   UNK N   1      27.902  11.902   1.422  0.00  0.00     0.017 A 
HETATM   51  C   UNK N   1      29.216  12.006   0.954  0.00  0.00     0.013 A 
HETATM   52  C   UNK N   1      30.151  12.645   1.752  0.00  0.00     0.107 A 
BRANCH  51  53
HETATM   53  C   UNK N   1      29.645  11.441  -0.345  0.00  0.00     0.086 C 
HETATM   54  S   UNK N   1      29.498   9.674  -0.663  0.00  0.00    -0.033 SA
BRANCH  53  55
HETATM   55  N   UNK N   1      30.094  12.204  -1.270  0.00  0.00    -0.392 N 
HETATM   56  H   UNK N   1      31.048  12.343  -1.471  0.00  0.00     0.156 HD
ATOM     57  HN  UNK N   1      29.413  12.706  -1.841  1.00  0.00     0.156 HD
ENDBRANCH  53  55
ENDBRANCH  51  53
ENDBRANCH  41  47
ENDBRANCH  37  38
ENDBRANCH  36  37
ENDBRANCH  32  36
ENDBRANCH  31  32
ENDBRANCH   2  31
TORSDOF 19
ENDMDL
MODEL 6
REMARK VINA RESULT:      -7.8      1.948      2.932
REMARK  19 active torsions:
REMARK  status: ('A' for Active; 'I' for Inactive)
REMARK    1  A    between atoms: C_10  and  C_5 
REMARK    2  A    between atoms: O_41  and  C_5 
REMARK    3  A    between atoms: C_11  and  C_6 
REMARK    4  A    between atoms: O_42  and  C_6 
REMARK    5  A    between atoms: C_18  and  C_9 
REMARK    6  A    between atoms: C_13  and  O_33 
REMARK    7  A    between atoms: C_14  and  O_34 
REMARK    8  A    between atoms: C_15  and  O_35 
REMARK    9  A    between atoms: C_16  and  O_36 
REMARK   10  A    between atoms: N_22  and  C_17 
REMARK   11  A    between atoms: N_23  and  C_18 
REMARK   12  A    between atoms: C_20  and  N_31 
REMARK   13  A    between atoms: C_21  and  N_32 
REMARK   14  A    between atoms: P_46  and  O_38 
REMARK   15  A    between atoms: P_47  and  O_39 
REMARK   16  A    between atoms: P_46  and  O_41 
REMARK   17  A    between atoms: P_47  and  O_42 
REMARK   18  A    between atoms: P_46  and  O_45 
REMARK   19  A    between atoms: P_47  and  O_45 
ROOT
HETATM    1  O   UNK N   1      35.829  14.529  10.088  0.00  0.00    -0.631 OA
HETATM    2  P   UNK N   1      35.126  15.643  10.912  0.00  0.00     0.401 P 
ENDROOT
BRANCH   2   3
HETATM    3  O   UNK N   1      33.494  15.068  11.072  0.00  0.00    -0.307 OA
HETATM    4  H   UNK N   1      32.754  15.418  11.592  0.00  0.00     0.222 HD
ENDBRANCH   2   3
BRANCH   2   5
HETATM    5  O   UNK N   1      35.224  17.117   9.978  0.00  0.00    -0.294 OA
BRANCH   5   6
HETATM    6  C   UNK N   1      34.132  17.071   9.107  0.00  0.00     0.215 C 
BRANCH   6   7
HETATM    7  C   UNK N   1      34.568  17.098   7.638  0.00  0.00     0.180 C 
HETATM    8  C   UNK N   1      34.869  15.685   7.145  0.00  0.00     0.182 C 
HETATM    9  C   UNK N   1      33.479  15.218   6.821  0.00  0.00     0.198 C 
HETATM   10  C   UNK N   1      32.954  16.491   6.152  0.00  0.00     0.262 C 
HETATM   11  O   UNK N   1      33.508  17.603   6.844  0.00  0.00    -0.353 OA
BRANCH   8  12
HETATM   12  O   UNK N   1      35.621  15.757   5.964  0.00  0.00    -0.390 OA
HETATM   13  H   UNK N   1      36.291  15.551   5.294  0.00  0.00     0.210 HD
ENDBRANCH   8  12
BRANCH   9  14
HETATM   14  O   UNK N   1      32.770  14.950   7.999  0.00  0.00    -0.388 OA
HETATM   15  H   UNK N   1      32.140  14.913   8.735  0.00  0.00     0.210 HD
ENDBRANCH   9  14
BRANCH  10  16
HETATM   16  N   UNK N   1      31.492  16.546   6.139  0.00  0.00    -0.297 N 
HETATM   17  C   UNK N   1      30.663  16.079   5.169  0.00  0.00     0.188 A 
HETATM   18  N   UNK N   1      29.355  16.286   5.490  0.00  0.00    -0.346 N 
HETATM   19  C   UNK N   1      29.401  16.901   6.688  0.00  0.00     0.122 A 
ATOM     20  HN  UNK N   1      28.528  16.033   4.949  1.00  0.00     0.167 HD
HETATM   21  C   UNK N   1      28.373  17.359   7.493  0.00  0.00     0.131 A 
HETATM   22  C   UNK N   1      30.681  17.053   7.074  0.00  0.00     0.142 A 
HETATM   23  N   UNK N   1      28.707  17.970   8.670  0.00  0.00    -0.337 N 
HETATM   24  C   UNK N   1      30.022  18.119   9.042  0.00  0.00     0.183 A 
ATOM     25  HN  UNK N   1      27.968  18.319   9.282  1.00  0.00     0.168 HD
HETATM   26  N   UNK N   1      31.027  17.654   8.239  0.00  0.00    -0.336 N 
ATOM     27  HN  UNK N   1      32.005  17.755   8.509  1.00  0.00     0.168 HD
BRANCH  21  28
HETATM   28  N   UNK N   1      27.024  17.207   7.118  0.00  0.00    -0.383 N 
HETATM   29  H   UNK N   1      26.635  17.619   6.313  0.00  0.00     0.157 HD
HETATM   30  H   UNK N   1      26.440  16.659   7.691  0.00  0.00     0.157 HD
ENDBRANCH  21  28
ENDBRANCH  10  16
ENDBRANCH   6   7
ENDBRANCH   5   6
ENDBRANCH   2   5
BRANCH   2  31
HETATM   31  O   UNK N   1      36.039  15.767  12.400  0.00  0.00    -0.195 OA
BRANCH  31  32
HETATM   32  P   UNK N   1      36.173  14.206  13.181  0.00  0.00     0.401 P 
HETATM   33  O   UNK N   1      36.702  14.439  14.624  0.00  0.00    -0.631 OA
BRANCH  32  34
HETATM   34  O   UNK N   1      37.420  13.295  12.390  0.00  0.00    -0.307 OA
HETATM   35  H   UNK N   1      38.098  13.709  11.834  0.00  0.00     0.222 HD
ENDBRANCH  32  34
BRANCH  32  36
HETATM   36  O   UNK N   1      34.716  13.256  13.289  0.00  0.00    -0.294 OA
BRANCH  36  37
HETATM   37  C   UNK N   1      35.023  12.053  12.649  0.00  0.00     0.215 C 
BRANCH  37  38
HETATM   38  C   UNK N   1      35.148  10.936  13.647  0.00  0.00     0.180 C 
HETATM   39  C   UNK N   1      35.424   9.623  12.977  0.00  0.00     0.182 C 
HETATM   40  C   UNK N   1      35.691   8.806  14.208  0.00  0.00     0.198 C 
HETATM   41  C   UNK N   1      36.435   9.830  15.099  0.00  0.00     0.259 C 
HETATM   42  O   UNK N   1      36.258  11.107  14.489  0.00  0.00    -0.353 OA
BRANCH  39  43
HETATM   43  O   UNK N   1      34.337   9.155  12.235  0.00  0.00    -0.390 OA
HETATM   44  H   UNK N   1      33.457   9.296  11.854  0.00  0.00     0.210 HD
ENDBRANCH  39  43
BRANCH  40  45
HETATM   45  O   UNK N   1      36.439   7.660  13.929  0.00  0.00    -0.388 OA
HETATM   46  H   UNK N   1      37.392   7.613  14.099  0.00  0.00     0.210 HD
ENDBRANCH  40  45
BRANCH  41  47
HETATM   47  N   UNK N   1      35.860   9.867  16.456  0.00  0.00    -0.336 N 
HETATM   48  C   UNK N   1      35.289   8.763  17.020  0.00  0.00     0.093 A 
HETATM   49  C   UNK N   1      34.704   8.849  18.290  0.00  0.00     0.018 A 
HETATM   50  C   UNK N   1      34.706  10.072  18.972  0.00  0.00     0.017 A 
HETATM   51  C   UNK N   1      35.298  11.193  18.381  0.00  0.00     0.013 A 
HETATM   52  C   UNK N   1      35.868  11.054  17.126  0.00  0.00     0.107 A 
BRANCH  51  53
HETATM   53  C   UNK N   1      35.318  12.520  19.037  0.00  0.00     0.086 C 
HETATM   54  S   UNK N   1      35.307  14.025  18.048  0.00  0.00    -0.033 SA
BRANCH  53  55
HETATM   55  N   UNK N   1      35.309  12.615  20.314  0.00  0.00    -0.392 N 
HETATM   56  H   UNK N   1      35.667  11.936  20.932  0.00  0.00     0.156 HD
ATOM     57  HN  UNK N   1      34.899  13.455  20.723  1.00  0.00     0.156 HD
ENDBRANCH  53  55
ENDBRANCH  51  53
ENDBRANCH  41  47
ENDBRANCH  37  38
ENDBRANCH  36  37
ENDBRANCH  32  36
ENDBRANCH  31  32
ENDBRANCH   2  31
TORSDOF 19
ENDMDL
MODEL 7
REMARK VINA RESULT:      -7.8      1.490      2.349
REMARK  19 active torsions:
REMARK  status: ('A' for Active; 'I' for Inactive)
REMARK    1  A    between atoms: C_10  and  C_5 
REMARK    2  A    between atoms: O_41  and  C_5 
REMARK    3  A    between atoms: C_11  and  C_6 
REMARK    4  A    between atoms: O_42  and  C_6 
REMARK    5  A    between atoms: C_18  and  C_9 
REMARK    6  A    between atoms: C_13  and  O_33 
REMARK    7  A    between atoms: C_14  and  O_34 
REMARK    8  A    between atoms: C_15  and  O_35 
REMARK    9  A    between atoms: C_16  and  O_36 
REMARK   10  A    between atoms: N_22  and  C_17 
REMARK   11  A    between atoms: N_23  and  C_18 
REMARK   12  A    between atoms: C_20  and  N_31 
REMARK   13  A    between atoms: C_21  and  N_32 
REMARK   14  A    between atoms: P_46  and  O_38 
REMARK   15  A    between atoms: P_47  and  O_39 
REMARK   16  A    between atoms: P_46  and  O_41 
REMARK   17  A    between atoms: P_47  and  O_42 
REMARK   18  A    between atoms: P_46  and  O_45 
REMARK   19  A    between atoms: P_47  and  O_45 
ROOT
HETATM    1  O   UNK N   1      32.997  15.441   9.420  0.00  0.00    -0.631 OA
HETATM    2  P   UNK N   1      34.426  15.992   9.161  0.00  0.00     0.401 P 
ENDROOT
BRANCH   2   3
HETATM    3  O   UNK N   1      34.704  17.061  10.502  0.00  0.00    -0.307 OA
HETATM    4  H   UNK N   1      34.375  17.023  11.413  0.00  0.00     0.222 HD
ENDBRANCH   2   3
BRANCH   2   5
HETATM    5  O   UNK N   1      34.384  16.838   7.632  0.00  0.00    -0.294 OA
BRANCH   5   6
HETATM    6  C   UNK N   1      34.157  15.847   6.672  0.00  0.00     0.215 C 
BRANCH   6   7
HETATM    7  C   UNK N   1      33.854  16.444   5.292  0.00  0.00     0.180 C 
HETATM    8  C   UNK N   1      33.352  15.359   4.342  0.00  0.00     0.182 C 
HETATM    9  C   UNK N   1      31.904  15.309   4.742  0.00  0.00     0.198 C 
HETATM   10  C   UNK N   1      31.646  16.812   4.877  0.00  0.00     0.262 C 
HETATM   11  O   UNK N   1      32.820  17.406   5.416  0.00  0.00    -0.353 OA
BRANCH   8  12
HETATM   12  O   UNK N   1      33.451  15.819   3.022  0.00  0.00    -0.390 OA
HETATM   13  H   UNK N   1      33.199  16.195   2.164  0.00  0.00     0.210 HD
ENDBRANCH   8  12
BRANCH   9  14
HETATM   14  O   UNK N   1      31.766  14.670   5.981  0.00  0.00    -0.388 OA
HETATM   15  H   UNK N   1      31.866  14.145   6.791  0.00  0.00     0.210 HD
ENDBRANCH   9  14
BRANCH  10  16
HETATM   16  N   UNK N   1      30.476  17.099   5.706  0.00  0.00    -0.297 N 
HETATM   17  C   UNK N   1      29.169  16.997   5.344  0.00  0.00     0.188 A 
HETATM   18  N   UNK N   1      28.341  17.331   6.373  0.00  0.00    -0.346 N 
HETATM   19  C   UNK N   1      29.175  17.649   7.381  0.00  0.00     0.122 A 
ATOM     20  HN  UNK N   1      27.321  17.339   6.379  1.00  0.00     0.167 HD
HETATM   21  C   UNK N   1      28.894  18.073   8.668  0.00  0.00     0.131 A 
HETATM   22  C   UNK N   1      30.451  17.507   6.980  0.00  0.00     0.142 A 
HETATM   23  N   UNK N   1      29.948  18.346   9.496  0.00  0.00    -0.337 N 
HETATM   24  C   UNK N   1      31.244  18.198   9.063  0.00  0.00     0.183 A 
ATOM     25  HN  UNK N   1      29.769  18.662  10.449  1.00  0.00     0.168 HD
HETATM   26  N   UNK N   1      31.506  17.771   7.790  0.00  0.00    -0.336 N 
ATOM     27  HN  UNK N   1      32.464  17.653   7.461  1.00  0.00     0.168 HD
BRANCH  21  28
HETATM   28  N   UNK N   1      27.568  18.223   9.118  0.00  0.00    -0.383 N 
HETATM   29  H   UNK N   1      27.323  18.301  10.069  0.00  0.00     0.157 HD
HETATM   30  H   UNK N   1      26.848  18.253   8.447  0.00  0.00     0.157 HD
ENDBRANCH  21  28
ENDBRANCH  10  16
ENDBRANCH   6   7
ENDBRANCH   5   6
ENDBRANCH   2   5
BRANCH   2  31
HETATM   31  O   UNK N   1      35.461  14.582   9.082  0.00  0.00    -0.195 OA
BRANCH  31  32
HETATM   32  P   UNK N   1      34.918  13.348  10.198  0.00  0.00     0.401 P 
HETATM   33  O   UNK N   1      35.977  12.210  10.203  0.00  0.00    -0.631 OA
BRANCH  32  34
HETATM   34  O   UNK N   1      33.480  12.616   9.559  0.00  0.00    -0.307 OA
HETATM   35  H   UNK N   1      33.273  12.609   8.611  0.00  0.00     0.222 HD
ENDBRANCH  32  34
BRANCH  32  36
HETATM   36  O   UNK N   1      34.654  13.843  11.848  0.00  0.00    -0.294 OA
BRANCH  36  37
HETATM   37  C   UNK N   1      34.533  12.651  12.566  0.00  0.00     0.215 C 
BRANCH  37  38
HETATM   38  C   UNK N   1      35.344  12.707  13.831  0.00  0.00     0.180 C 
HETATM   39  C   UNK N   1      36.455  13.708  13.731  0.00  0.00     0.182 C 
HETATM   40  C   UNK N   1      36.909  13.668  15.161  0.00  0.00     0.198 C 
HETATM   41  C   UNK N   1      35.562  13.505  15.905  0.00  0.00     0.259 C 
HETATM   42  O   UNK N   1      34.588  13.172  14.918  0.00  0.00    -0.353 OA
BRANCH  39  43
HETATM   43  O   UNK N   1      37.451  13.324  12.830  0.00  0.00    -0.390 OA
HETATM   44  H   UNK N   1      38.389  13.270  12.587  0.00  0.00     0.210 HD
ENDBRANCH  39  43
BRANCH  40  45
HETATM   45  O   UNK N   1      37.613  14.818  15.524  0.00  0.00    -0.388 OA
HETATM   46  H   UNK N   1      37.772  15.543  14.900  0.00  0.00     0.210 HD
ENDBRANCH  40  45
BRANCH  41  47
HETATM   47  N   UNK N   1      35.632  12.412  16.891  0.00  0.00    -0.336 N 
HETATM   48  C   UNK N   1      35.170  12.568  18.166  0.00  0.00     0.093 A 
HETATM   49  C   UNK N   1      35.301  11.524  19.092  0.00  0.00     0.018 A 
HETATM   50  C   UNK N   1      35.912  10.327  18.702  0.00  0.00     0.017 A 
HETATM   51  C   UNK N   1      36.379  10.181  17.392  0.00  0.00     0.013 A 
HETATM   52  C   UNK N   1      36.219  11.240  16.513  0.00  0.00     0.107 A 
BRANCH  51  53
HETATM   53  C   UNK N   1      37.052   8.950  16.920  0.00  0.00     0.086 C 
HETATM   54  S   UNK N   1      37.060   7.467  17.941  0.00  0.00    -0.033 SA
BRANCH  53  55
HETATM   55  N   UNK N   1      37.608   8.914  15.766  0.00  0.00    -0.392 N 
HETATM   56  H   UNK N   1      37.160   8.637  14.934  0.00  0.00     0.156 HD
ATOM     57  HN  UNK N   1      38.588   9.192  15.706  1.00  0.00     0.156 HD
ENDBRANCH  53  55
ENDBRANCH  51  53
ENDBRANCH  41  47
ENDBRANCH  37  38
ENDBRANCH  36  37
ENDBRANCH  32  36
ENDBRANCH  31  32
ENDBRANCH   2  31
TORSDOF 19
ENDMDL
MODEL 8
REMARK VINA RESULT:      -7.8      1.535      2.037
REMARK  19 active torsions:
REMARK  status: ('A' for Active; 'I' for Inactive)
REMARK    1  A    between atoms: C_10  and  C_5 
REMARK    2  A    between atoms: O_41  and  C_5 
REMARK    3  A    between atoms: C_11  and  C_6 
REMARK    4  A    between atoms: O_42  and  C_6 
REMARK    5  A    between atoms: C_18  and  C_9 
REMARK    6  A    between atoms: C_13  and  O_33 
REMARK    7  A    between atoms: C_14  and  O_34 
REMARK    8  A    between atoms: C_15  and  O_35 
REMARK    9  A    between atoms: C_16  and  O_36 
REMARK   10  A    between atoms: N_22  and  C_17 
REMARK   11  A    between atoms: N_23  and  C_18 
REMARK   12  A    between atoms: C_20  and  N_31 
REMARK   13  A    between atoms: C_21  and  N_32 
REMARK   14  A    between atoms: P_46  and  O_38 
REMARK   15  A    between atoms: P_47  and  O_39 
REMARK   16  A    between atoms: P_46  and  O_41 
REMARK   17  A    between atoms: P_47  and  O_42 
REMARK   18  A    between atoms: P_46  and  O_45 
REMARK   19  A    between atoms: P_47  and  O_45 
ROOT
HETATM    1  O   UNK N   1      32.949  13.435   8.805  0.00  0.00    -0.631 OA
HETATM    2  P   UNK N   1      33.247  14.902   9.221  0.00  0.00     0.401 P 
ENDROOT
BRANCH   2   3
HETATM    3  O   UNK N   1      32.614  15.009  10.835  0.00  0.00    -0.307 OA
HETATM    4  H   UNK N   1      32.771  15.669  11.528  0.00  0.00     0.222 HD
ENDBRANCH   2   3
BRANCH   2   5
HETATM    5  O   UNK N   1      32.394  15.940   8.102  0.00  0.00    -0.294 OA
BRANCH   5   6
HETATM    6  C   UNK N   1      32.058  15.116   7.023  0.00  0.00     0.215 C 
BRANCH   6   7
HETATM    7  C   UNK N   1      32.216  15.838   5.680  0.00  0.00     0.180 C 
HETATM    8  C   UNK N   1      31.387  15.144   4.602  0.00  0.00     0.182 C 
HETATM    9  C   UNK N   1      30.040  15.749   4.876  0.00  0.00     0.198 C 
HETATM   10  C   UNK N   1      30.478  17.196   5.117  0.00  0.00     0.262 C 
HETATM   11  O   UNK N   1      31.725  17.162   5.799  0.00  0.00    -0.353 OA
BRANCH   8  12
HETATM   12  O   UNK N   1      31.832  15.557   3.339  0.00  0.00    -0.390 OA
HETATM   13  H   UNK N   1      32.399  15.937   2.649  0.00  0.00     0.210 HD
ENDBRANCH   8  12
BRANCH   9  14
HETATM   14  O   UNK N   1      29.488  15.198   6.040  0.00  0.00    -0.388 OA
HETATM   15  H   UNK N   1      28.932  14.784   6.718  0.00  0.00     0.210 HD
ENDBRANCH   9  14
BRANCH  10  16
HETATM   16  N   UNK N   1      29.480  17.957   5.869  0.00  0.00    -0.297 N 
HETATM   17  C   UNK N   1      29.320  17.990   7.219  0.00  0.00     0.188 A 
HETATM   18  N   UNK N   1      28.299  18.816   7.579  0.00  0.00    -0.346 N 
HETATM   19  C   UNK N   1      27.827  19.290   6.409  0.00  0.00     0.122 A 
ATOM     20  HN  UNK N   1      27.965  19.028   8.519  1.00  0.00     0.167 HD
HETATM   21  C   UNK N   1      26.784  20.164   6.159  0.00  0.00     0.131 A 
HETATM   22  C   UNK N   1      28.538  18.776   5.389  0.00  0.00     0.142 A 
HETATM   23  N   UNK N   1      26.504  20.469   4.856  0.00  0.00    -0.337 N 
HETATM   24  C   UNK N   1      27.241  19.928   3.829  0.00  0.00     0.183 A 
ATOM     25  HN  UNK N   1      25.738  21.109   4.643  1.00  0.00     0.168 HD
HETATM   26  N   UNK N   1      28.274  19.072   4.092  0.00  0.00    -0.336 N 
ATOM     27  HN  UNK N   1      28.830  18.669   3.337  1.00  0.00     0.168 HD
BRANCH  21  28
HETATM   28  N   UNK N   1      26.028  20.723   7.207  0.00  0.00    -0.383 N 
HETATM   29  H   UNK N   1      26.270  21.561   7.663  0.00  0.00     0.157 HD
HETATM   30  H   UNK N   1      25.214  20.251   7.499  0.00  0.00     0.157 HD
ENDBRANCH  21  28
ENDBRANCH  10  16
ENDBRANCH   6   7
ENDBRANCH   5   6
ENDBRANCH   2   5
BRANCH   2  31
HETATM   31  O   UNK N   1      34.981  15.086   9.067  0.00  0.00    -0.195 OA
BRANCH  31  32
HETATM   32  P   UNK N   1      35.644  15.914  10.460  0.00  0.00     0.401 P 
HETATM   33  O   UNK N   1      35.412  17.439  10.263  0.00  0.00    -0.631 OA
BRANCH  32  34
HETATM   34  O   UNK N   1      37.369  15.721  10.450  0.00  0.00    -0.307 OA
HETATM   35  H   UNK N   1      37.980  16.469  10.529  0.00  0.00     0.222 HD
ENDBRANCH  32  34
BRANCH  32  36
HETATM   36  O   UNK N   1      35.001  15.468  12.017  0.00  0.00    -0.294 OA
BRANCH  36  37
HETATM   37  C   UNK N   1      36.110  15.051  12.758  0.00  0.00     0.215 C 
BRANCH  37  38
HETATM   38  C   UNK N   1      35.743  13.915  13.671  0.00  0.00     0.180 C 
HETATM   39  C   UNK N   1      35.444  12.663  12.902  0.00  0.00     0.182 C 
HETATM   40  C   UNK N   1      35.330  11.720  14.066  0.00  0.00     0.198 C 
HETATM   41  C   UNK N   1      36.430  12.264  15.009  0.00  0.00     0.259 C 
HETATM   42  O   UNK N   1      36.813  13.538  14.496  0.00  0.00    -0.353 OA
BRANCH  39  43
HETATM   43  O   UNK N   1      34.267  12.754  12.156  0.00  0.00    -0.390 OA
HETATM   44  H   UNK N   1      33.719  13.218  11.503  0.00  0.00     0.210 HD
ENDBRANCH  39  43
BRANCH  40  45
HETATM   45  O   UNK N   1      35.525  10.389  13.687  0.00  0.00    -0.388 OA
HETATM   46  H   UNK N   1      36.389   9.955  13.758  0.00  0.00     0.210 HD
ENDBRANCH  40  45
BRANCH  41  47
HETATM   47  N   UNK N   1      35.913  12.438  16.378  0.00  0.00    -0.336 N 
HETATM   48  C   UNK N   1      35.723  13.677  16.919  0.00  0.00     0.093 A 
HETATM   49  C   UNK N   1      35.281  13.804  18.242  0.00  0.00     0.018 A 
HETATM   50  C   UNK N   1      35.041  12.655  19.005  0.00  0.00     0.017 A 
HETATM   51  C   UNK N   1      35.237  11.392  18.436  0.00  0.00     0.013 A 
HETATM   52  C   UNK N   1      35.669  11.321  17.121  0.00  0.00     0.107 A 
BRANCH  51  53
HETATM   53  C   UNK N   1      35.022  10.138  19.191  0.00  0.00     0.086 C 
HETATM   54  S   UNK N   1      35.741   9.925  20.828  0.00  0.00    -0.033 SA
BRANCH  53  55
HETATM   55  N   UNK N   1      34.295   9.202  18.705  0.00  0.00    -0.392 N 
HETATM   56  H   UNK N   1      33.930   8.446  19.221  0.00  0.00     0.156 HD
ATOM     57  HN  UNK N   1      34.077   9.242  17.709  1.00  0.00     0.156 HD
ENDBRANCH  53  55
ENDBRANCH  51  53
ENDBRANCH  41  47
ENDBRANCH  37  38
ENDBRANCH  36  37
ENDBRANCH  32  36
ENDBRANCH  31  32
ENDBRANCH   2  31
TORSDOF 19
ENDMDL
MODEL 9
REMARK VINA RESULT:      -7.8      4.078     10.408
REMARK  19 active torsions:
REMARK  status: ('A' for Active; 'I' for Inactive)
REMARK    1  A    between atoms: C_10  and  C_5 
REMARK    2  A    between atoms: O_41  and  C_5 
REMARK    3  A    between atoms: C_11  and  C_6 
REMARK    4  A    between atoms: O_42  and  C_6 
REMARK    5  A    between atoms: C_18  and  C_9 
REMARK    6  A    between atoms: C_13  and  O_33 
REMARK    7  A    between atoms: C_14  and  O_34 
REMARK    8  A    between atoms: C_15  and  O_35 
REMARK    9  A    between atoms: C_16  and  O_36 
REMARK   10  A    between atoms: N_22  and  C_17 
REMARK   11  A    between atoms: N_23  and  C_18 
REMARK   12  A    between atoms: C_20  and  N_31 
REMARK   13  A    between atoms: C_21  and  N_32 
REMARK   14  A    between atoms: P_46  and  O_38 
REMARK   15  A    between atoms: P_47  and  O_39 
REMARK   16  A    between atoms: P_46  and  O_41 
REMARK   17  A    between atoms: P_47  and  O_42 
REMARK   18  A    between atoms: P_46  and  O_45 
REMARK   19  A    between atoms: P_47  and  O_45 
ROOT
HETATM    1  O   UNK N   1      33.907  15.348  10.545  0.00  0.00    -0.631 OA
HETATM    2  P   UNK N   1      35.408  15.747  10.567  0.00  0.00     0.401 P 
ENDROOT
BRANCH   2   3
HETATM    3  O   UNK N   1      36.160  14.575   9.527  0.00  0.00    -0.307 OA
HETATM    4  H   UNK N   1      36.069  14.434   8.572  0.00  0.00     0.222 HD
ENDBRANCH   2   3
BRANCH   2   5
HETATM    5  O   UNK N   1      35.955  15.616  12.222  0.00  0.00    -0.294 OA
BRANCH   5   6
HETATM    6  C   UNK N   1      35.496  14.370  12.660  0.00  0.00     0.215 C 
BRANCH   6   7
HETATM    7  C   UNK N   1      36.641  13.364  12.827  0.00  0.00     0.180 C 
HETATM    8  C   UNK N   1      36.575  12.705  14.203  0.00  0.00     0.182 C 
HETATM    9  C   UNK N   1      35.552  11.639  13.936  0.00  0.00     0.198 C 
HETATM   10  C   UNK N   1      36.043  11.184  12.558  0.00  0.00     0.262 C 
HETATM   11  O   UNK N   1      36.504  12.334  11.862  0.00  0.00    -0.353 OA
BRANCH   8  12
HETATM   12  O   UNK N   1      37.808  12.103  14.487  0.00  0.00    -0.390 OA
HETATM   13  H   UNK N   1      38.535  11.701  14.989  0.00  0.00     0.210 HD
ENDBRANCH   8  12
BRANCH   9  14
HETATM   14  O   UNK N   1      34.274  12.205  13.843  0.00  0.00    -0.388 OA
HETATM   15  H   UNK N   1      33.393  12.513  13.578  0.00  0.00     0.210 HD
ENDBRANCH   9  14
BRANCH  10  16
HETATM   16  N   UNK N   1      35.001  10.487  11.803  0.00  0.00    -0.297 N 
HETATM   17  C   UNK N   1      34.548   9.222  12.007  0.00  0.00     0.188 A 
HETATM   18  N   UNK N   1      33.561   8.899  11.125  0.00  0.00    -0.346 N 
HETATM   19  C   UNK N   1      33.420  10.003  10.366  0.00  0.00     0.122 A 
ATOM     20  HN  UNK N   1      33.045   8.022  11.056  1.00  0.00     0.167 HD
HETATM   21  C   UNK N   1      32.570  10.248   9.302  0.00  0.00     0.131 A 
HETATM   22  C   UNK N   1      34.282  10.951  10.776  0.00  0.00     0.142 A 
HETATM   23  N   UNK N   1      32.647  11.469   8.691  0.00  0.00    -0.337 N 
HETATM   24  C   UNK N   1      33.538  12.422   9.123  0.00  0.00     0.183 A 
ATOM     25  HN  UNK N   1      32.033  11.675   7.902  1.00  0.00     0.168 HD
HETATM   26  N   UNK N   1      34.368  12.167  10.181  0.00  0.00    -0.336 N 
ATOM     27  HN  UNK N   1      35.029  12.869  10.513  1.00  0.00     0.168 HD
BRANCH  21  28
HETATM   28  N   UNK N   1      31.653   9.277   8.857  0.00  0.00    -0.383 N 
HETATM   29  H   UNK N   1      31.301   9.244   7.938  0.00  0.00     0.157 HD
HETATM   30  H   UNK N   1      31.347   8.594   9.498  0.00  0.00     0.157 HD
ENDBRANCH  21  28
ENDBRANCH  10  16
ENDBRANCH   6   7
ENDBRANCH   5   6
ENDBRANCH   2   5
BRANCH   2  31
HETATM   31  O   UNK N   1      35.458  17.405  10.008  0.00  0.00    -0.195 OA
BRANCH  31  32
HETATM   32  P   UNK N   1      34.485  17.605   8.566  0.00  0.00     0.401 P 
HETATM   33  O   UNK N   1      34.916  18.933   7.881  0.00  0.00    -0.631 OA
BRANCH  32  34
HETATM   34  O   UNK N   1      32.836  17.862   9.041  0.00  0.00    -0.307 OA
HETATM   35  H   UNK N   1      32.109  17.911   8.402  0.00  0.00     0.222 HD
ENDBRANCH  32  34
BRANCH  32  36
HETATM   36  O   UNK N   1      34.574  16.334   7.377  0.00  0.00    -0.294 OA
BRANCH  36  37
HETATM   37  C   UNK N   1      34.176  16.934   6.180  0.00  0.00     0.215 C 
BRANCH  37  38
HETATM   38  C   UNK N   1      32.818  16.440   5.763  0.00  0.00     0.180 C 
HETATM   39  C   UNK N   1      32.817  14.959   5.529  0.00  0.00     0.182 C 
HETATM   40  C   UNK N   1      31.338  14.773   5.347  0.00  0.00     0.198 C 
HETATM   41  C   UNK N   1      30.774  15.782   6.376  0.00  0.00     0.259 C 
HETATM   42  O   UNK N   1      31.865  16.606   6.780  0.00  0.00    -0.353 OA
BRANCH  39  43
HETATM   43  O   UNK N   1      33.557  14.587   4.405  0.00  0.00    -0.390 OA
HETATM   44  H   UNK N   1      34.072  13.924   3.919  0.00  0.00     0.210 HD
ENDBRANCH  39  43
BRANCH  40  45
HETATM   45  O   UNK N   1      30.940  13.454   5.581  0.00  0.00    -0.388 OA
HETATM   46  H   UNK N   1      31.336  12.706   5.109  0.00  0.00     0.210 HD
ENDBRANCH  40  45
BRANCH  41  47
HETATM   47  N   UNK N   1      29.736  16.633   5.766  0.00  0.00    -0.336 N 
HETATM   48  C   UNK N   1      29.367  16.487   4.460  0.00  0.00     0.093 A 
HETATM   49  C   UNK N   1      28.416  17.349   3.899  0.00  0.00     0.018 A 
HETATM   50  C   UNK N   1      27.852  18.361   4.685  0.00  0.00     0.017 A 
HETATM   51  C   UNK N   1      28.238  18.498   6.022  0.00  0.00     0.013 A 
HETATM   52  C   UNK N   1      29.179  17.616   6.530  0.00  0.00     0.107 A 
BRANCH  51  53
HETATM   53  C   UNK N   1      27.698  19.558   6.902  0.00  0.00     0.086 C 
HETATM   54  S   UNK N   1      27.302  21.183   6.233  0.00  0.00    -0.033 SA
BRANCH  53  55
HETATM   55  N   UNK N   1      27.474  19.324   8.141  0.00  0.00    -0.392 N 
HETATM   56  H   UNK N   1      27.645  19.961   8.874  0.00  0.00     0.156 HD
ATOM     57  HN  UNK N   1      27.091  18.412   8.387  1.00  0.00     0.156 HD
ENDBRANCH  53  55
ENDBRANCH  51  53
ENDBRANCH  41  47
ENDBRANCH  37  38
ENDBRANCH  36  37
ENDBRANCH  32  36
ENDBRANCH  31  32
ENDBRANCH   2  31
TORSDOF 19
ENDMDL
