MODEL 1
REMARK VINA RESULT:      -7.8      0.000      0.000
REMARK  21 active torsions:
REMARK  status: ('A' for Active; 'I' for Inactive)
REMARK    1  A    between atoms: C_6  and  C_2 
REMARK    2  A    between atoms: O_49  and  C_2 
REMARK    3  A    between atoms: C_7  and  C_3 
REMARK    4  A    between atoms: O_50  and  C_3 
REMARK    5  A    between atoms: C_10  and  O_37 
REMARK    6  A    between atoms: C_11  and  O_38 
REMARK    7  A    between atoms: C_12  and  O_39 
REMARK    8  A    between atoms: C_13  and  O_40 
REMARK    9  A    between atoms: O_41  and  C_16 
REMARK   10  A    between atoms: O_42  and  C_17 
REMARK   11  A    between atoms: C_18  and  N_35 
REMARK   12  A    between atoms: C_19  and  N_36 
REMARK       I    between atoms: N_22  and  C_20 
REMARK       I    between atoms: N_24  and  C_21 
REMARK   13  A    between atoms: P_55  and  O_44 
REMARK   14  A    between atoms: P_56  and  O_45 
REMARK   15  A    between atoms: P_57  and  O_48 
REMARK   16  A    between atoms: P_55  and  O_49 
REMARK   17  A    between atoms: P_56  and  O_50 
REMARK   18  A    between atoms: P_55  and  O_53 
REMARK   19  A    between atoms: P_57  and  O_53 
REMARK   20  A    between atoms: P_56  and  O_54 
REMARK   21  A    between atoms: P_57  and  O_54 
ROOT
HETATM    1  O   UNK N   1      33.003  17.981   8.673  0.00  0.00    -0.631 OA
HETATM    2  P   UNK N   1      34.414  17.802   8.054  0.00  0.00     0.410 P 
ENDROOT
BRANCH   2   3
HETATM    3  O   UNK N   1      35.227  19.230   8.557  0.00  0.00    -0.307 OA
HETATM    4  H   UNK N   1      36.194  19.299   8.613  0.00  0.00     0.222 HD
ENDBRANCH   2   3
BRANCH   2   5
HETATM    5  O   UNK N   1      34.179  17.748   6.326  0.00  0.00    -0.195 OA
BRANCH   5   6
HETATM    6  P   UNK N   1      33.340  16.272   5.914  0.00  0.00     0.401 P 
HETATM    7  O   UNK N   1      34.454  15.419   5.254  0.00  0.00    -0.631 OA
BRANCH   6   8
HETATM    8  O   UNK N   1      32.939  15.353   7.330  0.00  0.00    -0.307 OA
HETATM    9  H   UNK N   1      32.678  15.346   8.264  0.00  0.00     0.222 HD
ENDBRANCH   6   8
BRANCH   6  10
HETATM   10  O   UNK N   1      32.079  16.296   4.686  0.00  0.00    -0.294 OA
BRANCH  10  11
HETATM   11  C   UNK N   1      31.154  17.311   4.977  0.00  0.00     0.215 C 
BRANCH  11  12
HETATM   12  C   UNK N   1      29.936  16.777   5.739  0.00  0.00     0.180 C 
HETATM   13  C   UNK N   1      29.746  17.413   7.122  0.00  0.00     0.182 C 
HETATM   14  C   UNK N   1      28.240  17.296   7.332  0.00  0.00     0.198 C 
HETATM   15  C   UNK N   1      27.807  16.539   6.072  0.00  0.00     0.262 C 
HETATM   16  O   UNK N   1      28.711  16.967   5.071  0.00  0.00    -0.353 OA
BRANCH  13  17
HETATM   17  O   UNK N   1      30.462  16.751   8.119  0.00  0.00    -0.390 OA
HETATM   18  H   UNK N   1      31.338  16.336   8.135  0.00  0.00     0.210 HD
ENDBRANCH  13  17
BRANCH  14  19
HETATM   19  O   UNK N   1      27.702  18.589   7.317  0.00  0.00    -0.388 OA
HETATM   20  H   UNK N   1      27.116  19.276   7.673  0.00  0.00     0.210 HD
ENDBRANCH  14  19
BRANCH  15  21
HETATM   21  N   UNK N   1      26.413  16.726   5.667  0.00  0.00    -0.297 N 
HETATM   22  C   UNK N   1      25.363  15.982   6.103  0.00  0.00     0.188 A 
HETATM   23  N   UNK N   1      24.180  16.459   5.626  0.00  0.00    -0.346 N 
HETATM   24  C   UNK N   1      24.527  17.540   4.903  0.00  0.00     0.130 A 
ATOM     25  HN  UNK N   1      23.245  16.083   5.780  1.00  0.00     0.167 HD
HETATM   26  C   UNK N   1      25.862  17.703   4.931  0.00  0.00     0.157 A 
HETATM   27  C   UNK N   1      23.731  18.436   4.213  0.00  0.00     0.186 A 
HETATM   28  N   UNK N   1      26.480  18.739   4.315  0.00  0.00    -0.174 N 
HETATM   29  C   UNK N   1      25.708  19.633   3.624  0.00  0.00     0.679 A 
HETATM   30  H   UNK N   1      27.458  18.845   4.361  0.00  0.00     0.186 HD
HETATM   31  N   UNK N   1      26.259  20.618   3.026  0.00  0.00    -0.234 N 
HETATM   32  N   UNK N   1      24.344  19.479   3.576  0.00  0.00    -0.168 N 
HETATM   33  H   UNK N   1      27.238  20.725   3.047  0.00  0.00     0.174 HD
ATOM     34  HN  UNK N   1      25.684  21.296   2.524  1.00  0.00     0.174 HD
ATOM     35  HN  UNK N   1      23.780  20.151   3.057  1.00  0.00     0.186 HD
BRANCH  27  36
HETATM   36  O   UNK N   1      22.395  18.299   4.177  0.00  0.00    -0.344 OA
HETATM   37  H   UNK N   1      21.867  18.659   4.862  0.00  0.00     0.219 HD
ENDBRANCH  27  36
ENDBRANCH  15  21
ENDBRANCH  11  12
ENDBRANCH  10  11
ENDBRANCH   6  10
ENDBRANCH   5   6
ENDBRANCH   2   5
BRANCH   2  38
HETATM   38  O   UNK N   1      35.218  16.280   8.448  0.00  0.00    -0.195 OA
BRANCH  38  39
HETATM   39  P   UNK N   1      35.130  15.796  10.131  0.00  0.00     0.401 P 
HETATM   40  O   UNK N   1      33.877  14.915  10.375  0.00  0.00    -0.631 OA
BRANCH  39  41
HETATM   41  O   UNK N   1      34.882  17.237  11.068  0.00  0.00    -0.307 OA
HETATM   42  H   UNK N   1      34.553  17.812  11.776  0.00  0.00     0.222 HD
ENDBRANCH  39  41
BRANCH  39  43
HETATM   43  O   UNK N   1      36.549  14.993  10.766  0.00  0.00    -0.294 OA
BRANCH  43  44
HETATM   44  C   UNK N   1      36.237  14.646  12.086  0.00  0.00     0.215 C 
BRANCH  44  45
HETATM   45  C   UNK N   1      36.938  13.332  12.411  0.00  0.00     0.180 C 
HETATM   46  C   UNK N   1      36.454  12.582  13.632  0.00  0.00     0.182 C 
HETATM   47  C   UNK N   1      35.317  11.831  13.032  0.00  0.00     0.198 C 
HETATM   48  C   UNK N   1      35.991  11.421  11.710  0.00  0.00     0.262 C 
HETATM   49  O   UNK N   1      36.874  12.454  11.322  0.00  0.00    -0.353 OA
BRANCH  46  50
HETATM   50  O   UNK N   1      36.106  13.408  14.704  0.00  0.00    -0.390 OA
HETATM   51  H   UNK N   1      35.589  13.370  15.524  0.00  0.00     0.210 HD
ENDBRANCH  46  50
BRANCH  47  52
HETATM   52  O   UNK N   1      34.242  12.697  12.799  0.00  0.00    -0.388 OA
HETATM   53  H   UNK N   1      33.427  13.044  12.404  0.00  0.00     0.210 HD
ENDBRANCH  47  52
BRANCH  48  54
HETATM   54  N   UNK N   1      35.023  11.196  10.648  0.00  0.00    -0.296 N 
HETATM   55  C   UNK N   1      33.962  10.342  10.697  0.00  0.00     0.190 A 
HETATM   56  N   UNK N   1      33.277  10.370   9.532  0.00  0.00    -0.341 N 
HETATM   57  C   UNK N   1      32.093   9.589   9.221  0.00  0.00     0.157 C 
HETATM   58  C   UNK N   1      33.929  11.251   8.746  0.00  0.00     0.132 A 
HETATM   59  C   UNK N   1      34.979  11.745   9.432  0.00  0.00     0.158 A 
HETATM   60  C   UNK N   1      33.688  11.666   7.451  0.00  0.00     0.186 A 
HETATM   61  N   UNK N   1      35.841  12.649   8.901  0.00  0.00    -0.174 N 
HETATM   62  C   UNK N   1      35.619  13.062   7.620  0.00  0.00     0.679 A 
HETATM   63  H   UNK N   1      36.601  12.994   9.424  0.00  0.00     0.186 HD
HETATM   64  N   UNK N   1      36.416  13.905   7.080  0.00  0.00    -0.234 N 
HETATM   65  N   UNK N   1      34.552  12.577   6.902  0.00  0.00    -0.168 N 
HETATM   66  H   UNK N   1      37.289  14.092   7.494  0.00  0.00     0.174 HD
ATOM     67  HN  UNK N   1      36.147  14.384   6.221  1.00  0.00     0.174 HD
ATOM     68  HN  UNK N   1      34.400  12.900   5.947  1.00  0.00     0.186 HD
BRANCH  60  69
HETATM   69  O   UNK N   1      32.650  11.194   6.742  0.00  0.00    -0.344 OA
HETATM   70  H   UNK N   1      32.768  10.603   6.025  0.00  0.00     0.219 HD
ENDBRANCH  60  69
ENDBRANCH  48  54
ENDBRANCH  44  45
ENDBRANCH  43  44
ENDBRANCH  39  43
ENDBRANCH  38  39
ENDBRANCH   2  38
TORSDOF 21
ENDMDL
MODEL 2
REMARK VINA RESULT:      -7.5      3.493     11.390
REMARK  21 active torsions:
REMARK  status: ('A' for Active; 'I' for Inactive)
REMARK    1  A    between atoms: C_6  and  C_2 
REMARK    2  A    between atoms: O_49  and  C_2 
REMARK    3  A    between atoms: C_7  and  C_3 
REMARK    4  A    between atoms: O_50  and  C_3 
REMARK    5  A    between atoms: C_10  and  O_37 
REMARK    6  A    between atoms: C_11  and  O_38 
REMARK    7  A    between atoms: C_12  and  O_39 
REMARK    8  A    between atoms: C_13  and  O_40 
REMARK    9  A    between atoms: O_41  and  C_16 
REMARK   10  A    between atoms: O_42  and  C_17 
REMARK   11  A    between atoms: C_18  and  N_35 
REMARK   12  A    between atoms: C_19  and  N_36 
REMARK       I    between atoms: N_22  and  C_20 
REMARK       I    between atoms: N_24  and  C_21 
REMARK   13  A    between atoms: P_55  and  O_44 
REMARK   14  A    between atoms: P_56  and  O_45 
REMARK   15  A    between atoms: P_57  and  O_48 
REMARK   16  A    between atoms: P_55  and  O_49 
REMARK   17  A    between atoms: P_56  and  O_50 
REMARK   18  A    between atoms: P_55  and  O_53 
REMARK   19  A    between atoms: P_57  and  O_53 
REMARK   20  A    between atoms: P_56  and  O_54 
REMARK   21  A    between atoms: P_57  and  O_54 
ROOT
HETATM    1  O   UNK N   1      37.004  13.599   8.850  0.00  0.00    -0.631 OA
HETATM    2  P   UNK N   1      35.875  14.000   7.866  0.00  0.00     0.410 P 
ENDROOT
BRANCH   2   3
HETATM    3  O   UNK N   1      36.656  13.903   6.338  0.00  0.00    -0.307 OA
HETATM    4  H   UNK N   1      36.771  14.667   5.751  0.00  0.00     0.222 HD
ENDBRANCH   2   3
BRANCH   2   5
HETATM    5  O   UNK N   1      35.434  15.637   8.280  0.00  0.00    -0.195 OA
BRANCH   5   6
HETATM    6  P   UNK N   1      34.924  15.680   9.950  0.00  0.00     0.401 P 
HETATM    7  O   UNK N   1      34.672  17.192  10.191  0.00  0.00    -0.631 OA
BRANCH   6   8
HETATM    8  O   UNK N   1      33.344  14.992  10.150  0.00  0.00    -0.307 OA
HETATM    9  H   UNK N   1      32.435  15.088  10.475  0.00  0.00     0.222 HD
ENDBRANCH   6   8
BRANCH   6  10
HETATM   10  O   UNK N   1      36.063  15.260  11.224  0.00  0.00    -0.294 OA
BRANCH  10  11
HETATM   11  C   UNK N   1      35.375  15.080  12.434  0.00  0.00     0.215 C 
BRANCH  11  12
HETATM   12  C   UNK N   1      35.410  13.622  12.905  0.00  0.00     0.180 C 
HETATM   13  C   UNK N   1      36.757  12.929  12.665  0.00  0.00     0.182 C 
HETATM   14  C   UNK N   1      36.784  11.874  13.765  0.00  0.00     0.198 C 
HETATM   15  C   UNK N   1      35.412  12.072  14.419  0.00  0.00     0.262 C 
HETATM   16  O   UNK N   1      35.145  13.453  14.277  0.00  0.00    -0.353 OA
BRANCH  13  17
HETATM   17  O   UNK N   1      36.848  12.357  11.396  0.00  0.00    -0.390 OA
HETATM   18  H   UNK N   1      37.453  12.499  10.652  0.00  0.00     0.210 HD
ENDBRANCH  13  17
BRANCH  14  19
HETATM   19  O   UNK N   1      37.795  12.222  14.670  0.00  0.00    -0.388 OA
HETATM   20  H   UNK N   1      38.669  12.087  15.069  0.00  0.00     0.210 HD
ENDBRANCH  14  19
BRANCH  15  21
HETATM   21  N   UNK N   1      35.303  11.633  15.811  0.00  0.00    -0.297 N 
HETATM   22  C   UNK N   1      35.317  10.341  16.230  0.00  0.00     0.188 A 
HETATM   23  N   UNK N   1      35.299  10.256  17.589  0.00  0.00    -0.346 N 
HETATM   24  C   UNK N   1      35.303  11.537  18.001  0.00  0.00     0.130 A 
ATOM     25  HN  UNK N   1      35.286   9.414  18.164  1.00  0.00     0.167 HD
HETATM   26  C   UNK N   1      35.311  12.361  16.938  0.00  0.00     0.157 A 
HETATM   27  C   UNK N   1      35.322  12.055  19.284  0.00  0.00     0.186 A 
HETATM   28  N   UNK N   1      35.354  13.710  17.065  0.00  0.00    -0.174 N 
HETATM   29  C   UNK N   1      35.369  14.239  18.327  0.00  0.00     0.679 A 
HETATM   30  H   UNK N   1      35.373  14.293  16.272  0.00  0.00     0.186 HD
HETATM   31  N   UNK N   1      35.402  15.507  18.483  0.00  0.00    -0.234 N 
HETATM   32  N   UNK N   1      35.352  13.414  19.425  0.00  0.00    -0.168 N 
HETATM   33  H   UNK N   1      35.401  16.102  17.698  0.00  0.00     0.174 HD
ATOM     34  HN  UNK N   1      35.429  15.904  19.423  1.00  0.00     0.174 HD
ATOM     35  HN  UNK N   1      35.362  13.821  20.360  1.00  0.00     0.186 HD
BRANCH  27  36
HETATM   36  O   UNK N   1      35.323  11.252  20.360  0.00  0.00    -0.344 OA
HETATM   37  H   UNK N   1      34.944  11.545  21.165  0.00  0.00     0.219 HD
ENDBRANCH  27  36
ENDBRANCH  15  21
ENDBRANCH  11  12
ENDBRANCH  10  11
ENDBRANCH   6  10
ENDBRANCH   5   6
ENDBRANCH   2   5
BRANCH   2  38
HETATM   38  O   UNK N   1      34.378  13.076   8.025  0.00  0.00    -0.195 OA
BRANCH  38  39
HETATM   39  P   UNK N   1      33.117  13.483   6.878  0.00  0.00     0.401 P 
HETATM   40  O   UNK N   1      31.942  14.195   7.599  0.00  0.00    -0.631 OA
BRANCH  39  41
HETATM   41  O   UNK N   1      32.464  11.989   6.278  0.00  0.00    -0.307 OA
HETATM   42  H   UNK N   1      32.389  11.184   5.744  0.00  0.00     0.222 HD
ENDBRANCH  39  41
BRANCH  39  43
HETATM   43  O   UNK N   1      33.622  14.429   5.495  0.00  0.00    -0.294 OA
BRANCH  43  44
HETATM   44  C   UNK N   1      32.863  15.605   5.535  0.00  0.00     0.215 C 
BRANCH  44  45
HETATM   45  C   UNK N   1      32.432  15.941   4.112  0.00  0.00     0.180 C 
HETATM   46  C   UNK N   1      31.622  14.896   3.377  0.00  0.00     0.182 C 
HETATM   47  C   UNK N   1      30.261  15.236   3.874  0.00  0.00     0.198 C 
HETATM   48  C   UNK N   1      30.370  16.770   3.795  0.00  0.00     0.262 C 
HETATM   49  O   UNK N   1      31.703  17.137   4.086  0.00  0.00    -0.353 OA
BRANCH  46  50
HETATM   50  O   UNK N   1      32.026  13.583   3.634  0.00  0.00    -0.390 OA
HETATM   51  H   UNK N   1      32.746  12.977   3.400  0.00  0.00     0.210 HD
ENDBRANCH  46  50
BRANCH  47  52
HETATM   52  O   UNK N   1      30.116  14.811   5.200  0.00  0.00    -0.388 OA
HETATM   53  H   UNK N   1      29.732  14.721   6.086  0.00  0.00     0.210 HD
ENDBRANCH  47  52
BRANCH  48  54
HETATM   54  N   UNK N   1      29.476  17.431   4.734  0.00  0.00    -0.296 N 
HETATM   55  C   UNK N   1      28.303  18.051   4.425  0.00  0.00     0.190 A 
HETATM   56  N   UNK N   1      27.735  18.571   5.536  0.00  0.00    -0.341 N 
HETATM   57  C   UNK N   1      26.482  19.303   5.589  0.00  0.00     0.157 C 
HETATM   58  C   UNK N   1      28.574  18.273   6.549  0.00  0.00     0.132 A 
HETATM   59  C   UNK N   1      29.620  17.582   6.053  0.00  0.00     0.158 A 
HETATM   60  C   UNK N   1      28.511  18.565   7.897  0.00  0.00     0.186 A 
HETATM   61  N   UNK N   1      30.647  17.151   6.828  0.00  0.00    -0.174 N 
HETATM   62  C   UNK N   1      30.601  17.438   8.160  0.00  0.00     0.679 A 
HETATM   63  H   UNK N   1      31.401  16.649   6.440  0.00  0.00     0.186 HD
HETATM   64  N   UNK N   1      31.557  17.058   8.923  0.00  0.00    -0.234 N 
HETATM   65  N   UNK N   1      29.543  18.136   8.691  0.00  0.00    -0.168 N 
HETATM   66  H   UNK N   1      32.408  16.755   8.532  0.00  0.00     0.174 HD
ATOM     67  HN  UNK N   1      31.437  17.069   9.936  1.00  0.00     0.174 HD
ATOM     68  HN  UNK N   1      29.524  18.338   9.690  1.00  0.00     0.186 HD
BRANCH  60  69
HETATM   69  O   UNK N   1      27.483  19.249   8.423  0.00  0.00    -0.344 OA
HETATM   70  H   UNK N   1      27.301  19.241   9.342  0.00  0.00     0.219 HD
ENDBRANCH  60  69
ENDBRANCH  48  54
ENDBRANCH  44  45
ENDBRANCH  43  44
ENDBRANCH  39  43
ENDBRANCH  38  39
ENDBRANCH   2  38
TORSDOF 21
ENDMDL
MODEL 3
REMARK VINA RESULT:      -7.4      3.701      7.826
REMARK  21 active torsions:
REMARK  status: ('A' for Active; 'I' for Inactive)
REMARK    1  A    between atoms: C_6  and  C_2 
REMARK    2  A    between atoms: O_49  and  C_2 
REMARK    3  A    between atoms: C_7  and  C_3 
REMARK    4  A    between atoms: O_50  and  C_3 
REMARK    5  A    between atoms: C_10  and  O_37 
REMARK    6  A    between atoms: C_11  and  O_38 
REMARK    7  A    between atoms: C_12  and  O_39 
REMARK    8  A    between atoms: C_13  and  O_40 
REMARK    9  A    between atoms: O_41  and  C_16 
REMARK   10  A    between atoms: O_42  and  C_17 
REMARK   11  A    between atoms: C_18  and  N_35 
REMARK   12  A    between atoms: C_19  and  N_36 
REMARK       I    between atoms: N_22  and  C_20 
REMARK       I    between atoms: N_24  and  C_21 
REMARK   13  A    between atoms: P_55  and  O_44 
REMARK   14  A    between atoms: P_56  and  O_45 
REMARK   15  A    between atoms: P_57  and  O_48 
REMARK   16  A    between atoms: P_55  and  O_49 
REMARK   17  A    between atoms: P_56  and  O_50 
REMARK   18  A    between atoms: P_55  and  O_53 
REMARK   19  A    between atoms: P_57  and  O_53 
REMARK   20  A    between atoms: P_56  and  O_54 
REMARK   21  A    between atoms: P_57  and  O_54 
ROOT
HETATM    1  O   UNK N   1      25.188  16.608   3.081  0.00  0.00    -0.631 OA
HETATM    2  P   UNK N   1      26.348  16.256   4.049  0.00  0.00     0.410 P 
ENDROOT
BRANCH   2   3
HETATM    3  O   UNK N   1      27.682  16.067   2.982  0.00  0.00    -0.307 OA
HETATM    4  H   UNK N   1      27.597  15.716   2.082  0.00  0.00     0.222 HD
ENDBRANCH   2   3
BRANCH   2   5
HETATM    5  O   UNK N   1      25.896  14.755   4.816  0.00  0.00    -0.195 OA
BRANCH   5   6
HETATM    6  P   UNK N   1      24.623  15.069   5.969  0.00  0.00     0.401 P 
HETATM    7  O   UNK N   1      25.388  15.117   7.318  0.00  0.00    -0.631 OA
BRANCH   6   8
HETATM    8  O   UNK N   1      24.012  16.686   5.817  0.00  0.00    -0.307 OA
HETATM    9  H   UNK N   1      24.155  17.599   5.522  0.00  0.00     0.222 HD
ENDBRANCH   6   8
BRANCH   6  10
HETATM   10  O   UNK N   1      23.386  13.852   6.259  0.00  0.00    -0.294 OA
BRANCH  10  11
HETATM   11  C   UNK N   1      22.719  13.560   5.059  0.00  0.00     0.215 C 
BRANCH  11  12
HETATM   12  C   UNK N   1      21.480  14.440   4.860  0.00  0.00     0.180 C 
HETATM   13  C   UNK N   1      20.917  15.016   6.166  0.00  0.00     0.182 C 
HETATM   14  C   UNK N   1      20.246  16.302   5.694  0.00  0.00     0.198 C 
HETATM   15  C   UNK N   1      20.458  16.225   4.178  0.00  0.00     0.262 C 
HETATM   16  O   UNK N   1      21.693  15.553   4.024  0.00  0.00    -0.353 OA
BRANCH  13  17
HETATM   17  O   UNK N   1      20.012  14.155   6.786  0.00  0.00    -0.390 OA
HETATM   18  H   UNK N   1      19.477  13.416   6.458  0.00  0.00     0.210 HD
ENDBRANCH  13  17
BRANCH  14  19
HETATM   19  O   UNK N   1      20.966  17.381   6.220  0.00  0.00    -0.388 OA
HETATM   20  H   UNK N   1      21.304  18.289   6.171  0.00  0.00     0.210 HD
ENDBRANCH  14  19
BRANCH  15  21
HETATM   21  N   UNK N   1      20.440  17.506   3.470  0.00  0.00    -0.297 N 
HETATM   22  C   UNK N   1      19.348  18.064   2.884  0.00  0.00     0.188 A 
HETATM   23  N   UNK N   1      19.624  19.303   2.392  0.00  0.00    -0.346 N 
HETATM   24  C   UNK N   1      20.914  19.509   2.716  0.00  0.00     0.130 A 
ATOM     25  HN  UNK N   1      18.997  19.932   1.891  1.00  0.00     0.167 HD
HETATM   26  C   UNK N   1      21.401  18.437   3.366  0.00  0.00     0.157 A 
HETATM   27  C   UNK N   1      21.716  20.614   2.497  0.00  0.00     0.186 A 
HETATM   28  N   UNK N   1      22.669  18.391   3.842  0.00  0.00    -0.174 N 
HETATM   29  C   UNK N   1      23.478  19.473   3.630  0.00  0.00     0.679 A 
HETATM   30  H   UNK N   1      22.999  17.600   4.327  0.00  0.00     0.186 HD
HETATM   31  N   UNK N   1      24.682  19.460   4.059  0.00  0.00    -0.234 N 
HETATM   32  N   UNK N   1      23.001  20.574   2.961  0.00  0.00    -0.168 N 
HETATM   33  H   UNK N   1      25.031  18.668   4.528  0.00  0.00     0.174 HD
ATOM     34  HN  UNK N   1      25.282  20.273   3.916  1.00  0.00     0.174 HD
ATOM     35  HN  UNK N   1      23.615  21.374   2.807  1.00  0.00     0.186 HD
BRANCH  27  36
HETATM   36  O   UNK N   1      21.250  21.700   1.857  0.00  0.00    -0.344 OA
HETATM   37  H   UNK N   1      21.846  22.325   1.497  0.00  0.00     0.219 HD
ENDBRANCH  27  36
ENDBRANCH  15  21
ENDBRANCH  11  12
ENDBRANCH  10  11
ENDBRANCH   6  10
ENDBRANCH   5   6
ENDBRANCH   2   5
BRANCH   2  38
HETATM   38  O   UNK N   1      26.583  17.391   5.381  0.00  0.00    -0.195 OA
BRANCH  38  39
HETATM   39  P   UNK N   1      28.121  18.232   5.391  0.00  0.00     0.401 P 
HETATM   40  O   UNK N   1      27.968  19.630   6.045  0.00  0.00    -0.631 OA
BRANCH  39  41
HETATM   41  O   UNK N   1      28.554  18.532   3.735  0.00  0.00    -0.307 OA
HETATM   42  H   UNK N   1      29.109  18.614   2.945  0.00  0.00     0.222 HD
ENDBRANCH  39  41
BRANCH  39  43
HETATM   43  O   UNK N   1      29.452  17.375   6.135  0.00  0.00    -0.294 OA
BRANCH  43  44
HETATM   44  C   UNK N   1      30.509  17.434   5.218  0.00  0.00     0.215 C 
BRANCH  44  45
HETATM   45  C   UNK N   1      30.658  16.061   4.573  0.00  0.00     0.180 C 
HETATM   46  C   UNK N   1      31.442  15.994   3.281  0.00  0.00     0.182 C 
HETATM   47  C   UNK N   1      32.822  15.891   3.829  0.00  0.00     0.198 C 
HETATM   48  C   UNK N   1      32.537  14.899   4.972  0.00  0.00     0.262 C 
HETATM   49  O   UNK N   1      31.239  15.155   5.468  0.00  0.00    -0.353 OA
BRANCH  46  50
HETATM   50  O   UNK N   1      31.231  17.084   2.433  0.00  0.00    -0.390 OA
HETATM   51  H   UNK N   1      31.170  17.276   1.484  0.00  0.00     0.210 HD
ENDBRANCH  46  50
BRANCH  47  52
HETATM   52  O   UNK N   1      33.231  17.132   4.333  0.00  0.00    -0.388 OA
HETATM   53  H   UNK N   1      33.456  18.075   4.345  0.00  0.00     0.210 HD
ENDBRANCH  47  52
BRANCH  48  54
HETATM   54  N   UNK N   1      33.497  15.024   6.057  0.00  0.00    -0.296 N 
HETATM   55  C   UNK N   1      34.650  14.310   6.196  0.00  0.00     0.190 A 
HETATM   56  N   UNK N   1      35.297  14.670   7.327  0.00  0.00    -0.341 N 
HETATM   57  C   UNK N   1      36.555  14.120   7.800  0.00  0.00     0.157 C 
HETATM   58  C   UNK N   1      34.529  15.617   7.902  0.00  0.00     0.132 A 
HETATM   59  C   UNK N   1      33.447  15.825   7.124  0.00  0.00     0.158 A 
HETATM   60  C   UNK N   1      34.687  16.327   9.076  0.00  0.00     0.186 A 
HETATM   61  N   UNK N   1      32.474  16.714   7.446  0.00  0.00    -0.174 N 
HETATM   62  C   UNK N   1      32.614  17.417   8.607  0.00  0.00     0.679 A 
HETATM   63  H   UNK N   1      31.692  16.846   6.861  0.00  0.00     0.186 HD
HETATM   64  N   UNK N   1      31.711  18.258   8.950  0.00  0.00    -0.234 N 
HETATM   65  N   UNK N   1      33.710  17.228   9.413  0.00  0.00    -0.168 N 
HETATM   66  H   UNK N   1      30.833  18.247   8.505  0.00  0.00     0.174 HD
ATOM     67  HN  UNK N   1      31.901  18.940   9.684  1.00  0.00     0.174 HD
ATOM     68  HN  UNK N   1      33.800  17.766  10.275  1.00  0.00     0.186 HD
BRANCH  60  69
HETATM   69  O   UNK N   1      35.753  16.146   9.870  0.00  0.00    -0.344 OA
HETATM   70  H   UNK N   1      36.132  16.850  10.360  0.00  0.00     0.219 HD
ENDBRANCH  60  69
ENDBRANCH  48  54
ENDBRANCH  44  45
ENDBRANCH  43  44
ENDBRANCH  39  43
ENDBRANCH  38  39
ENDBRANCH   2  38
TORSDOF 21
ENDMDL
MODEL 4
REMARK VINA RESULT:      -7.4      5.587     12.906
REMARK  21 active torsions:
REMARK  status: ('A' for Active; 'I' for Inactive)
REMARK    1  A    between atoms: C_6  and  C_2 
REMARK    2  A    between atoms: O_49  and  C_2 
REMARK    3  A    between atoms: C_7  and  C_3 
REMARK    4  A    between atoms: O_50  and  C_3 
REMARK    5  A    between atoms: C_10  and  O_37 
REMARK    6  A    between atoms: C_11  and  O_38 
REMARK    7  A    between atoms: C_12  and  O_39 
REMARK    8  A    between atoms: C_13  and  O_40 
REMARK    9  A    between atoms: O_41  and  C_16 
REMARK   10  A    between atoms: O_42  and  C_17 
REMARK   11  A    between atoms: C_18  and  N_35 
REMARK   12  A    between atoms: C_19  and  N_36 
REMARK       I    between atoms: N_22  and  C_20 
REMARK       I    between atoms: N_24  and  C_21 
REMARK   13  A    between atoms: P_55  and  O_44 
REMARK   14  A    between atoms: P_56  and  O_45 
REMARK   15  A    between atoms: P_57  and  O_48 
REMARK   16  A    between atoms: P_55  and  O_49 
REMARK   17  A    between atoms: P_56  and  O_50 
REMARK   18  A    between atoms: P_55  and  O_53 
REMARK   19  A    between atoms: P_57  and  O_53 
REMARK   20  A    between atoms: P_56  and  O_54 
REMARK   21  A    between atoms: P_57  and  O_54 
ROOT
HETATM    1  O   UNK N   1      23.326  11.918  -0.238  0.00  0.00    -0.631 OA
HETATM    2  P   UNK N   1      22.918  13.128   0.642  0.00  0.00     0.410 P 
ENDROOT
BRANCH   2   3
HETATM    3  O   UNK N   1      24.032  14.341   0.152  0.00  0.00    -0.307 OA
HETATM    4  H   UNK N   1      23.950  15.273   0.409  0.00  0.00     0.222 HD
ENDBRANCH   2   3
BRANCH   2   5
HETATM    5  O   UNK N   1      23.169  12.628   2.295  0.00  0.00    -0.195 OA
BRANCH   5   6
HETATM    6  P   UNK N   1      24.713  13.234   2.841  0.00  0.00     0.401 P 
HETATM    7  O   UNK N   1      24.869  12.566   4.233  0.00  0.00    -0.631 OA
BRANCH   6   8
HETATM    8  O   UNK N   1      26.023  12.545   1.936  0.00  0.00    -0.307 OA
HETATM    9  H   UNK N   1      26.320  12.065   1.147  0.00  0.00     0.222 HD
ENDBRANCH   6   8
BRANCH   6  10
HETATM   10  O   UNK N   1      24.903  14.947   3.200  0.00  0.00    -0.294 OA
BRANCH  10  11
HETATM   11  C   UNK N   1      25.594  15.103   4.412  0.00  0.00     0.215 C 
BRANCH  11  12
HETATM   12  C   UNK N   1      27.113  15.030   4.222  0.00  0.00     0.180 C 
HETATM   13  C   UNK N   1      27.630  15.880   3.055  0.00  0.00     0.182 C 
HETATM   14  C   UNK N   1      29.054  16.205   3.492  0.00  0.00     0.198 C 
HETATM   15  C   UNK N   1      29.162  15.424   4.807  0.00  0.00     0.262 C 
HETATM   16  O   UNK N   1      27.854  15.448   5.344  0.00  0.00    -0.353 OA
BRANCH  13  17
HETATM   17  O   UNK N   1      27.603  15.197   1.840  0.00  0.00    -0.390 OA
HETATM   18  H   UNK N   1      26.913  15.072   1.170  0.00  0.00     0.210 HD
ENDBRANCH  13  17
BRANCH  14  19
HETATM   19  O   UNK N   1      29.122  17.579   3.750  0.00  0.00    -0.388 OA
HETATM   20  H   UNK N   1      29.342  18.333   4.321  0.00  0.00     0.210 HD
ENDBRANCH  14  19
BRANCH  15  21
HETATM   21  N   UNK N   1      30.155  15.921   5.760  0.00  0.00    -0.297 N 
HETATM   22  C   UNK N   1      31.502  15.793   5.630  0.00  0.00     0.188 A 
HETATM   23  N   UNK N   1      32.164  16.444   6.626  0.00  0.00    -0.346 N 
HETATM   24  C   UNK N   1      31.187  17.004   7.362  0.00  0.00     0.130 A 
ATOM     25  HN  UNK N   1      33.171  16.495   6.779  1.00  0.00     0.167 HD
HETATM   26  C   UNK N   1      29.985  16.696   6.842  0.00  0.00     0.157 A 
HETATM   27  C   UNK N   1      31.275  17.810   8.483  0.00  0.00     0.186 A 
HETATM   28  N   UNK N   1      28.826  17.162   7.366  0.00  0.00    -0.174 N 
HETATM   29  C   UNK N   1      28.894  17.958   8.478  0.00  0.00     0.679 A 
HETATM   30  H   UNK N   1      27.959  16.935   6.960  0.00  0.00     0.186 HD
HETATM   31  N   UNK N   1      27.819  18.409   9.002  0.00  0.00    -0.234 N 
HETATM   32  N   UNK N   1      30.111  18.276   9.029  0.00  0.00    -0.168 N 
HETATM   33  H   UNK N   1      26.944  18.172   8.618  0.00  0.00     0.174 HD
ATOM     34  HN  UNK N   1      27.869  19.015   9.822  1.00  0.00     0.174 HD
ATOM     35  HN  UNK N   1      30.148  18.868   9.858  1.00  0.00     0.186 HD
BRANCH  27  36
HETATM   36  O   UNK N   1      32.463  18.138   9.016  0.00  0.00    -0.344 OA
HETATM   37  H   UNK N   1      32.502  18.652   9.797  0.00  0.00     0.219 HD
ENDBRANCH  27  36
ENDBRANCH  15  21
ENDBRANCH  11  12
ENDBRANCH  10  11
ENDBRANCH   6  10
ENDBRANCH   5   6
ENDBRANCH   2   5
BRANCH   2  38
HETATM   38  O   UNK N   1      21.211  13.573   0.560  0.00  0.00    -0.195 OA
BRANCH  38  39
HETATM   39  P   UNK N   1      20.772  15.036   1.420  0.00  0.00     0.401 P 
HETATM   40  O   UNK N   1      20.439  16.172   0.418  0.00  0.00    -0.631 OA
BRANCH  39  41
HETATM   41  O   UNK N   1      22.183  15.568   2.283  0.00  0.00    -0.307 OA
HETATM   42  H   UNK N   1      22.723  15.915   3.009  0.00  0.00     0.222 HD
ENDBRANCH  39  41
BRANCH  39  43
HETATM   43  O   UNK N   1      19.475  14.874   2.583  0.00  0.00    -0.294 OA
BRANCH  43  44
HETATM   44  C   UNK N   1      19.771  13.730   3.334  0.00  0.00     0.215 C 
BRANCH  44  45
HETATM   45  C   UNK N   1      19.437  14.018   4.793  0.00  0.00     0.180 C 
HETATM   46  C   UNK N   1      20.293  13.337   5.838  0.00  0.00     0.182 C 
HETATM   47  C   UNK N   1      21.425  14.301   5.902  0.00  0.00     0.198 C 
HETATM   48  C   UNK N   1      20.613  15.607   5.856  0.00  0.00     0.262 C 
HETATM   49  O   UNK N   1      19.475  15.395   5.046  0.00  0.00    -0.353 OA
BRANCH  46  50
HETATM   50  O   UNK N   1      20.657  12.030   5.507  0.00  0.00    -0.390 OA
HETATM   51  H   UNK N   1      20.609  11.422   4.752  0.00  0.00     0.210 HD
ENDBRANCH  46  50
BRANCH  47  52
HETATM   52  O   UNK N   1      22.230  14.170   4.763  0.00  0.00    -0.388 OA
HETATM   53  H   UNK N   1      22.976  13.897   4.208  0.00  0.00     0.210 HD
ENDBRANCH  47  52
BRANCH  48  54
HETATM   54  N   UNK N   1      21.386  16.714   5.316  0.00  0.00    -0.296 N 
HETATM   55  C   UNK N   1      22.660  17.050   5.662  0.00  0.00     0.190 A 
HETATM   56  N   UNK N   1      23.067  18.140   4.975  0.00  0.00    -0.341 N 
HETATM   57  C   UNK N   1      24.364  18.783   5.088  0.00  0.00     0.157 C 
HETATM   58  C   UNK N   1      22.025  18.490   4.195  0.00  0.00     0.132 A 
HETATM   59  C   UNK N   1      21.017  17.620   4.406  0.00  0.00     0.158 A 
HETATM   60  C   UNK N   1      21.868  19.530   3.300  0.00  0.00     0.186 A 
HETATM   61  N   UNK N   1      19.820  17.718   3.775  0.00  0.00    -0.174 N 
HETATM   62  C   UNK N   1      19.649  18.745   2.893  0.00  0.00     0.679 A 
HETATM   63  H   UNK N   1      19.099  17.070   3.948  0.00  0.00     0.186 HD
HETATM   64  N   UNK N   1      18.530  18.877   2.285  0.00  0.00    -0.234 N 
HETATM   65  N   UNK N   1      20.663  19.641   2.656  0.00  0.00    -0.168 N 
HETATM   66  H   UNK N   1      17.738  18.385   2.599  0.00  0.00     0.174 HD
ATOM     67  HN  UNK N   1      18.459  19.492   1.475  1.00  0.00     0.174 HD
ATOM     68  HN  UNK N   1      20.518  20.400   1.991  1.00  0.00     0.186 HD
BRANCH  60  69
HETATM   69  O   UNK N   1      22.852  20.412   3.066  0.00  0.00    -0.344 OA
HETATM   70  H   UNK N   1      23.451  20.677   3.736  0.00  0.00     0.219 HD
ENDBRANCH  60  69
ENDBRANCH  48  54
ENDBRANCH  44  45
ENDBRANCH  43  44
ENDBRANCH  39  43
ENDBRANCH  38  39
ENDBRANCH   2  38
TORSDOF 21
ENDMDL
MODEL 5
REMARK VINA RESULT:      -7.4      3.144     11.903
REMARK  21 active torsions:
REMARK  status: ('A' for Active; 'I' for Inactive)
REMARK    1  A    between atoms: C_6  and  C_2 
REMARK    2  A    between atoms: O_49  and  C_2 
REMARK    3  A    between atoms: C_7  and  C_3 
REMARK    4  A    between atoms: O_50  and  C_3 
REMARK    5  A    between atoms: C_10  and  O_37 
REMARK    6  A    between atoms: C_11  and  O_38 
REMARK    7  A    between atoms: C_12  and  O_39 
REMARK    8  A    between atoms: C_13  and  O_40 
REMARK    9  A    between atoms: O_41  and  C_16 
REMARK   10  A    between atoms: O_42  and  C_17 
REMARK   11  A    between atoms: C_18  and  N_35 
REMARK   12  A    between atoms: C_19  and  N_36 
REMARK       I    between atoms: N_22  and  C_20 
REMARK       I    between atoms: N_24  and  C_21 
REMARK   13  A    between atoms: P_55  and  O_44 
REMARK   14  A    between atoms: P_56  and  O_45 
REMARK   15  A    between atoms: P_57  and  O_48 
REMARK   16  A    between atoms: P_55  and  O_49 
REMARK   17  A    between atoms: P_56  and  O_50 
REMARK   18  A    between atoms: P_55  and  O_53 
REMARK   19  A    between atoms: P_57  and  O_53 
REMARK   20  A    between atoms: P_56  and  O_54 
REMARK   21  A    between atoms: P_57  and  O_54 
ROOT
HETATM    1  O   UNK N   1      31.705  17.169   5.375  0.00  0.00    -0.631 OA
HETATM    2  P   UNK N   1      31.192  15.706   5.326  0.00  0.00     0.410 P 
ENDROOT
BRANCH   2   3
HETATM    3  O   UNK N   1      32.134  14.938   6.541  0.00  0.00    -0.307 OA
HETATM    4  H   UNK N   1      33.068  15.146   6.700  0.00  0.00     0.222 HD
ENDBRANCH   2   3
BRANCH   2   5
HETATM    5  O   UNK N   1      31.567  15.117   3.727  0.00  0.00    -0.195 OA
BRANCH   5   6
HETATM    6  P   UNK N   1      33.301  15.117   3.516  0.00  0.00     0.401 P 
HETATM    7  O   UNK N   1      33.500  16.077   2.314  0.00  0.00    -0.631 OA
BRANCH   6   8
HETATM    8  O   UNK N   1      34.099  15.952   4.811  0.00  0.00    -0.307 OA
HETATM    9  H   UNK N   1      34.600  15.905   5.640  0.00  0.00     0.222 HD
ENDBRANCH   6   8
BRANCH   6  10
HETATM   10  O   UNK N   1      34.118  13.649   2.989  0.00  0.00    -0.294 OA
BRANCH  10  11
HETATM   11  C   UNK N   1      33.853  12.609   3.895  0.00  0.00     0.215 C 
BRANCH  11  12
HETATM   12  C   UNK N   1      34.897  12.542   5.014  0.00  0.00     0.180 C 
HETATM   13  C   UNK N   1      36.258  13.131   4.624  0.00  0.00     0.182 C 
HETATM   14  C   UNK N   1      36.816  13.587   5.968  0.00  0.00     0.198 C 
HETATM   15  C   UNK N   1      35.723  13.116   6.934  0.00  0.00     0.262 C 
HETATM   16  O   UNK N   1      34.524  13.217   6.191  0.00  0.00    -0.353 OA
BRANCH  13  17
HETATM   17  O   UNK N   1      37.091  12.198   4.007  0.00  0.00    -0.390 OA
HETATM   18  H   UNK N   1      37.158  11.879   3.093  0.00  0.00     0.210 HD
ENDBRANCH  13  17
BRANCH  14  19
HETATM   19  O   UNK N   1      36.871  14.986   5.960  0.00  0.00    -0.388 OA
HETATM   20  H   UNK N   1      37.094  15.836   6.371  0.00  0.00     0.210 HD
ENDBRANCH  14  19
BRANCH  15  21
HETATM   21  N   UNK N   1      35.644  13.840   8.204  0.00  0.00    -0.297 N 
HETATM   22  C   UNK N   1      36.197  13.431   9.376  0.00  0.00     0.188 A 
HETATM   23  N   UNK N   1      36.038  14.363  10.355  0.00  0.00    -0.346 N 
HETATM   24  C   UNK N   1      35.394  15.376   9.747  0.00  0.00     0.130 A 
ATOM     25  HN  UNK N   1      36.338  14.307  11.328  1.00  0.00     0.167 HD
HETATM   26  C   UNK N   1      35.163  15.066   8.458  0.00  0.00     0.157 A 
HETATM   27  C   UNK N   1      35.000  16.604  10.249  0.00  0.00     0.186 A 
HETATM   28  N   UNK N   1      34.561  15.925   7.601  0.00  0.00    -0.174 N 
HETATM   29  C   UNK N   1      34.161  17.142   8.082  0.00  0.00     0.679 A 
HETATM   30  H   UNK N   1      34.415  15.681   6.658  0.00  0.00     0.186 HD
HETATM   31  N   UNK N   1      33.584  17.974   7.302  0.00  0.00    -0.234 N 
HETATM   32  N   UNK N   1      34.380  17.474   9.397  0.00  0.00    -0.168 N 
HETATM   33  H   UNK N   1      33.413  17.735   6.363  0.00  0.00     0.174 HD
ATOM     34  HN  UNK N   1      33.298  18.889   7.655  1.00  0.00     0.174 HD
ATOM     35  HN  UNK N   1      34.075  18.384   9.743  1.00  0.00     0.186 HD
BRANCH  27  36
HETATM   36  O   UNK N   1      35.228  16.939  11.529  0.00  0.00    -0.344 OA
HETATM   37  H   UNK N   1      34.565  17.379  12.024  0.00  0.00     0.219 HD
ENDBRANCH  27  36
ENDBRANCH  15  21
ENDBRANCH  11  12
ENDBRANCH  10  11
ENDBRANCH   6  10
ENDBRANCH   5   6
ENDBRANCH   2   5
BRANCH   2  38
HETATM   38  O   UNK N   1      29.442  15.520   5.476  0.00  0.00    -0.195 OA
BRANCH  38  39
HETATM   39  P   UNK N   1      28.483  16.717   4.628  0.00  0.00     0.401 P 
HETATM   40  O   UNK N   1      27.163  16.085   4.114  0.00  0.00    -0.631 OA
BRANCH  39  41
HETATM   41  O   UNK N   1      29.371  17.174   3.207  0.00  0.00    -0.307 OA
HETATM   42  H   UNK N   1      30.033  17.133   2.501  0.00  0.00     0.222 HD
ENDBRANCH  39  41
BRANCH  39  43
HETATM   43  O   UNK N   1      28.129  18.180   5.521  0.00  0.00    -0.294 OA
BRANCH  43  44
HETATM   44  C   UNK N   1      26.733  18.278   5.562  0.00  0.00     0.215 C 
BRANCH  44  45
HETATM   45  C   UNK N   1      26.345  19.708   5.205  0.00  0.00     0.180 C 
HETATM   46  C   UNK N   1      26.656  20.170   3.799  0.00  0.00     0.182 C 
HETATM   47  C   UNK N   1      25.448  19.662   3.093  0.00  0.00     0.198 C 
HETATM   48  C   UNK N   1      24.394  20.045   4.147  0.00  0.00     0.262 C 
HETATM   49  O   UNK N   1      24.978  19.919   5.427  0.00  0.00    -0.353 OA
BRANCH  46  50
HETATM   50  O   UNK N   1      27.869  19.689   3.300  0.00  0.00    -0.390 OA
HETATM   51  H   UNK N   1      28.506  18.978   3.475  0.00  0.00     0.210 HD
ENDBRANCH  46  50
BRANCH  47  52
HETATM   52  O   UNK N   1      25.530  18.271   2.948  0.00  0.00    -0.388 OA
HETATM   53  H   UNK N   1      25.521  17.404   2.515  0.00  0.00     0.210 HD
ENDBRANCH  47  52
BRANCH  48  54
HETATM   54  N   UNK N   1      23.214  19.197   4.075  0.00  0.00    -0.296 N 
HETATM   55  C   UNK N   1      22.991  18.067   4.802  0.00  0.00     0.190 A 
HETATM   56  N   UNK N   1      21.799  17.519   4.473  0.00  0.00    -0.341 N 
HETATM   57  C   UNK N   1      21.232  16.310   5.041  0.00  0.00     0.157 C 
HETATM   58  C   UNK N   1      21.279  18.321   3.521  0.00  0.00     0.132 A 
HETATM   59  C   UNK N   1      22.141  19.332   3.292  0.00  0.00     0.158 A 
HETATM   60  C   UNK N   1      20.097  18.242   2.813  0.00  0.00     0.186 A 
HETATM   61  N   UNK N   1      21.905  20.300   2.370  0.00  0.00    -0.174 N 
HETATM   62  C   UNK N   1      20.743  20.230   1.659  0.00  0.00     0.679 A 
HETATM   63  H   UNK N   1      22.552  21.028   2.221  0.00  0.00     0.186 HD
HETATM   64  N   UNK N   1      20.489  21.119   0.773  0.00  0.00    -0.234 N 
HETATM   65  N   UNK N   1      19.847  19.213   1.878  0.00  0.00    -0.168 N 
HETATM   66  H   UNK N   1      21.205  21.717   0.457  0.00  0.00     0.174 HD
ATOM     67  HN  UNK N   1      19.547  21.208   0.394  1.00  0.00     0.174 HD
ATOM     68  HN  UNK N   1      18.982  19.179   1.339  1.00  0.00     0.186 HD
BRANCH  60  69
HETATM   69  O   UNK N   1      19.217  17.249   3.019  0.00  0.00    -0.344 OA
HETATM   70  H   UNK N   1      18.778  16.821   2.310  0.00  0.00     0.219 HD
ENDBRANCH  60  69
ENDBRANCH  48  54
ENDBRANCH  44  45
ENDBRANCH  43  44
ENDBRANCH  39  43
ENDBRANCH  38  39
ENDBRANCH   2  38
TORSDOF 21
ENDMDL
MODEL 6
REMARK VINA RESULT:      -7.3      3.815      5.817
REMARK  21 active torsions:
REMARK  status: ('A' for Active; 'I' for Inactive)
REMARK    1  A    between atoms: C_6  and  C_2 
REMARK    2  A    between atoms: O_49  and  C_2 
REMARK    3  A    between atoms: C_7  and  C_3 
REMARK    4  A    between atoms: O_50  and  C_3 
REMARK    5  A    between atoms: C_10  and  O_37 
REMARK    6  A    between atoms: C_11  and  O_38 
REMARK    7  A    between atoms: C_12  and  O_39 
REMARK    8  A    between atoms: C_13  and  O_40 
REMARK    9  A    between atoms: O_41  and  C_16 
REMARK   10  A    between atoms: O_42  and  C_17 
REMARK   11  A    between atoms: C_18  and  N_35 
REMARK   12  A    between atoms: C_19  and  N_36 
REMARK       I    between atoms: N_22  and  C_20 
REMARK       I    between atoms: N_24  and  C_21 
REMARK   13  A    between atoms: P_55  and  O_44 
REMARK   14  A    between atoms: P_56  and  O_45 
REMARK   15  A    between atoms: P_57  and  O_48 
REMARK   16  A    between atoms: P_55  and  O_49 
REMARK   17  A    between atoms: P_56  and  O_50 
REMARK   18  A    between atoms: P_55  and  O_53 
REMARK   19  A    between atoms: P_57  and  O_53 
REMARK   20  A    between atoms: P_56  and  O_54 
REMARK   21  A    between atoms: P_57  and  O_54 
ROOT
HETATM    1  O   UNK N   1      35.281  17.505  10.253  0.00  0.00    -0.631 OA
HETATM    2  P   UNK N   1      35.565  16.006  10.531  0.00  0.00     0.410 P 
ENDROOT
BRANCH   2   3
HETATM    3  O   UNK N   1      37.280  15.962  10.637  0.00  0.00    -0.307 OA
HETATM    4  H   UNK N   1      37.864  16.137   9.882  0.00  0.00     0.222 HD
ENDBRANCH   2   3
BRANCH   2   5
HETATM    5  O   UNK N   1      34.966  15.136   9.142  0.00  0.00    -0.195 OA
BRANCH   5   6
HETATM    6  P   UNK N   1      33.277  15.522   8.917  0.00  0.00     0.401 P 
HETATM    7  O   UNK N   1      32.786  14.380   7.990  0.00  0.00    -0.631 OA
BRANCH   6   8
HETATM    8  O   UNK N   1      32.366  15.258  10.370  0.00  0.00    -0.307 OA
HETATM    9  H   UNK N   1      32.182  14.696  11.139  0.00  0.00     0.222 HD
ENDBRANCH   6   8
BRANCH   6  10
HETATM   10  O   UNK N   1      32.823  16.974   8.032  0.00  0.00    -0.294 OA
BRANCH  10  11
HETATM   11  C   UNK N   1      31.845  17.680   8.750  0.00  0.00     0.215 C 
BRANCH  11  12
HETATM   12  C   UNK N   1      30.452  17.066   8.582  0.00  0.00     0.180 C 
HETATM   13  C   UNK N   1      29.493  17.386   9.736  0.00  0.00     0.182 C 
HETATM   14  C   UNK N   1      28.129  17.319   9.058  0.00  0.00     0.198 C 
HETATM   15  C   UNK N   1      28.509  16.892   7.636  0.00  0.00     0.262 C 
HETATM   16  O   UNK N   1      29.778  17.477   7.416  0.00  0.00    -0.353 OA
BRANCH  13  17
HETATM   17  O   UNK N   1      29.595  16.474  10.787  0.00  0.00    -0.390 OA
HETATM   18  H   UNK N   1      29.027  16.283  11.549  0.00  0.00     0.210 HD
ENDBRANCH  13  17
BRANCH  14  19
HETATM   19  O   UNK N   1      27.595  18.613   9.038  0.00  0.00    -0.388 OA
HETATM   20  H   UNK N   1      26.862  19.234   8.901  0.00  0.00     0.210 HD
ENDBRANCH  14  19
BRANCH  15  21
HETATM   21  N   UNK N   1      27.552  17.251   6.588  0.00  0.00    -0.297 N 
HETATM   22  C   UNK N   1      26.690  16.391   5.984  0.00  0.00     0.188 A 
HETATM   23  N   UNK N   1      25.859  17.040   5.123  0.00  0.00    -0.346 N 
HETATM   24  C   UNK N   1      26.212  18.334   5.233  0.00  0.00     0.130 A 
ATOM     25  HN  UNK N   1      25.134  16.638   4.530  1.00  0.00     0.167 HD
HETATM   26  C   UNK N   1      27.221  18.461   6.114  0.00  0.00     0.157 A 
HETATM   27  C   UNK N   1      25.683  19.452   4.614  0.00  0.00     0.186 A 
HETATM   28  N   UNK N   1      27.748  19.665   6.444  0.00  0.00    -0.174 N 
HETATM   29  C   UNK N   1      27.240  20.782   5.838  0.00  0.00     0.679 A 
HETATM   30  H   UNK N   1      28.478  19.735   7.102  0.00  0.00     0.186 HD
HETATM   31  N   UNK N   1      27.718  21.932   6.121  0.00  0.00    -0.234 N 
HETATM   32  N   UNK N   1      26.215  20.671   4.929  0.00  0.00    -0.168 N 
HETATM   33  H   UNK N   1      28.462  22.014   6.762  0.00  0.00     0.174 HD
ATOM     34  HN  UNK N   1      27.330  22.767   5.682  1.00  0.00     0.174 HD
ATOM     35  HN  UNK N   1      25.846  21.510   4.483  1.00  0.00     0.186 HD
BRANCH  27  36
HETATM   36  O   UNK N   1      24.670  19.350   3.737  0.00  0.00    -0.344 OA
HETATM   37  H   UNK N   1      24.202  18.544   3.652  0.00  0.00     0.219 HD
ENDBRANCH  27  36
ENDBRANCH  15  21
ENDBRANCH  11  12
ENDBRANCH  10  11
ENDBRANCH   6  10
ENDBRANCH   5   6
ENDBRANCH   2   5
BRANCH   2  38
HETATM   38  O   UNK N   1      34.692  15.320  11.905  0.00  0.00    -0.195 OA
BRANCH  38  39
HETATM   39  P   UNK N   1      35.073  13.651  12.281  0.00  0.00     0.401 P 
HETATM   40  O   UNK N   1      36.588  13.385  12.085  0.00  0.00    -0.631 OA
BRANCH  39  41
HETATM   41  O   UNK N   1      34.264  12.661  11.104  0.00  0.00    -0.307 OA
HETATM   42  H   UNK N   1      33.883  11.869  10.696  0.00  0.00     0.222 HD
ENDBRANCH  39  41
BRANCH  39  43
HETATM   43  O   UNK N   1      34.576  13.097  13.865  0.00  0.00    -0.294 OA
BRANCH  43  44
HETATM   44  C   UNK N   1      35.581  12.224  14.300  0.00  0.00     0.215 C 
BRANCH  44  45
HETATM   45  C   UNK N   1      35.179  10.805  13.914  0.00  0.00     0.180 C 
HETATM   46  C   UNK N   1      36.293   9.866  13.504  0.00  0.00     0.182 C 
HETATM   47  C   UNK N   1      36.722   9.385  14.845  0.00  0.00     0.198 C 
HETATM   48  C   UNK N   1      35.330   9.198  15.474  0.00  0.00     0.262 C 
HETATM   49  O   UNK N   1      34.470  10.192  14.954  0.00  0.00    -0.353 OA
BRANCH  46  50
HETATM   50  O   UNK N   1      37.300  10.477  12.753  0.00  0.00    -0.390 OA
HETATM   51  H   UNK N   1      37.736  10.380  11.892  0.00  0.00     0.210 HD
ENDBRANCH  46  50
BRANCH  47  52
HETATM   52  O   UNK N   1      37.441  10.389  15.507  0.00  0.00    -0.388 OA
HETATM   53  H   UNK N   1      38.128  11.052  15.671  0.00  0.00     0.210 HD
ENDBRANCH  47  52
BRANCH  48  54
HETATM   54  N   UNK N   1      35.365   9.307  16.924  0.00  0.00    -0.296 N 
HETATM   55  C   UNK N   1      35.415   8.270  17.807  0.00  0.00     0.190 A 
HETATM   56  N   UNK N   1      35.422   8.729  19.078  0.00  0.00    -0.341 N 
HETATM   57  C   UNK N   1      35.468   7.913  20.278  0.00  0.00     0.157 C 
HETATM   58  C   UNK N   1      35.368  10.073  18.981  0.00  0.00     0.132 A 
HETATM   59  C   UNK N   1      35.337  10.410  17.676  0.00  0.00     0.158 A 
HETATM   60  C   UNK N   1      35.334  11.054  19.953  0.00  0.00     0.186 A 
HETATM   61  N   UNK N   1      35.265  11.697  17.254  0.00  0.00    -0.174 N 
HETATM   62  C   UNK N   1      35.223  12.676  18.203  0.00  0.00     0.679 A 
HETATM   63  H   UNK N   1      35.242  11.917  16.294  0.00  0.00     0.186 HD
HETATM   64  N   UNK N   1      35.144  13.903  17.844  0.00  0.00    -0.234 N 
HETATM   65  N   UNK N   1      35.260  12.359  19.539  0.00  0.00    -0.168 N 
HETATM   66  H   UNK N   1      34.902  14.130  16.918  0.00  0.00     0.174 HD
ATOM     67  HN  UNK N   1      35.332  14.645  18.518  1.00  0.00     0.174 HD
ATOM     68  HN  UNK N   1      35.231  13.104  20.234  1.00  0.00     0.186 HD
BRANCH  60  69
HETATM   69  O   UNK N   1      35.365  10.752  21.260  0.00  0.00    -0.344 OA
HETATM   70  H   UNK N   1      35.079  11.358  21.916  0.00  0.00     0.219 HD
ENDBRANCH  60  69
ENDBRANCH  48  54
ENDBRANCH  44  45
ENDBRANCH  43  44
ENDBRANCH  39  43
ENDBRANCH  38  39
ENDBRANCH   2  38
TORSDOF 21
ENDMDL
MODEL 7
REMARK VINA RESULT:      -7.2      7.985     12.154
REMARK  21 active torsions:
REMARK  status: ('A' for Active; 'I' for Inactive)
REMARK    1  A    between atoms: C_6  and  C_2 
REMARK    2  A    between atoms: O_49  and  C_2 
REMARK    3  A    between atoms: C_7  and  C_3 
REMARK    4  A    between atoms: O_50  and  C_3 
REMARK    5  A    between atoms: C_10  and  O_37 
REMARK    6  A    between atoms: C_11  and  O_38 
REMARK    7  A    between atoms: C_12  and  O_39 
REMARK    8  A    between atoms: C_13  and  O_40 
REMARK    9  A    between atoms: O_41  and  C_16 
REMARK   10  A    between atoms: O_42  and  C_17 
REMARK   11  A    between atoms: C_18  and  N_35 
REMARK   12  A    between atoms: C_19  and  N_36 
REMARK       I    between atoms: N_22  and  C_20 
REMARK       I    between atoms: N_24  and  C_21 
REMARK   13  A    between atoms: P_55  and  O_44 
REMARK   14  A    between atoms: P_56  and  O_45 
REMARK   15  A    between atoms: P_57  and  O_48 
REMARK   16  A    between atoms: P_55  and  O_49 
REMARK   17  A    between atoms: P_56  and  O_50 
REMARK   18  A    between atoms: P_55  and  O_53 
REMARK   19  A    between atoms: P_57  and  O_53 
REMARK   20  A    between atoms: P_56  and  O_54 
REMARK   21  A    between atoms: P_57  and  O_54 
ROOT
HETATM    1  O   UNK N   1      18.621  18.719   2.659  0.00  0.00    -0.631 OA
HETATM    2  P   UNK N   1      19.915  17.926   2.339  0.00  0.00     0.410 P 
ENDROOT
BRANCH   2   3
HETATM    3  O   UNK N   1      20.366  17.306   3.877  0.00  0.00    -0.307 OA
HETATM    4  H   UNK N   1      20.851  16.474   3.993  0.00  0.00     0.222 HD
ENDBRANCH   2   3
BRANCH   2   5
HETATM    5  O   UNK N   1      21.060  19.096   1.736  0.00  0.00    -0.195 OA
BRANCH   5   6
HETATM    6  P   UNK N   1      21.764  19.948   3.088  0.00  0.00     0.401 P 
HETATM    7  O   UNK N   1      22.077  21.344   2.487  0.00  0.00    -0.631 OA
BRANCH   6   8
HETATM    8  O   UNK N   1      20.576  20.309   4.300  0.00  0.00    -0.307 OA
HETATM    9  H   UNK N   1      19.790  20.031   4.796  0.00  0.00     0.222 HD
ENDBRANCH   6   8
BRANCH   6  10
HETATM   10  O   UNK N   1      23.321  19.436   3.730  0.00  0.00    -0.294 OA
BRANCH  10  11
HETATM   11  C   UNK N   1      24.322  20.326   3.310  0.00  0.00     0.215 C 
BRANCH  11  12
HETATM   12  C   UNK N   1      25.728  19.782   3.587  0.00  0.00     0.180 C 
HETATM   13  C   UNK N   1      26.220  20.044   5.016  0.00  0.00     0.182 C 
HETATM   14  C   UNK N   1      27.192  18.891   5.244  0.00  0.00     0.198 C 
HETATM   15  C   UNK N   1      27.169  18.190   3.881  0.00  0.00     0.262 C 
HETATM   16  O   UNK N   1      25.855  18.393   3.399  0.00  0.00    -0.353 OA
BRANCH  13  17
HETATM   17  O   UNK N   1      26.844  21.284   5.150  0.00  0.00    -0.390 OA
HETATM   18  H   UNK N   1      26.596  22.098   5.614  0.00  0.00     0.210 HD
ENDBRANCH  13  17
BRANCH  14  19
HETATM   19  O   UNK N   1      26.642  18.051   6.219  0.00  0.00    -0.388 OA
HETATM   20  H   UNK N   1      26.430  17.171   6.570  0.00  0.00     0.210 HD
ENDBRANCH  14  19
BRANCH  15  21
HETATM   21  N   UNK N   1      27.537  16.774   3.890  0.00  0.00    -0.297 N 
HETATM   22  C   UNK N   1      28.459  16.207   4.712  0.00  0.00     0.188 A 
HETATM   23  N   UNK N   1      28.508  14.856   4.552  0.00  0.00    -0.346 N 
HETATM   24  C   UNK N   1      27.568  14.598   3.624  0.00  0.00     0.130 A 
ATOM     25  HN  UNK N   1      29.119  14.191   5.025  1.00  0.00     0.167 HD
HETATM   26  C   UNK N   1      26.983  15.744   3.232  0.00  0.00     0.157 A 
HETATM   27  C   UNK N   1      27.156  13.389   3.094  0.00  0.00     0.186 A 
HETATM   28  N   UNK N   1      25.971  15.772   2.330  0.00  0.00    -0.174 N 
HETATM   29  C   UNK N   1      25.554  14.585   1.792  0.00  0.00     0.679 A 
HETATM   30  H   UNK N   1      25.549  16.622   2.069  0.00  0.00     0.186 HD
HETATM   31  N   UNK N   1      24.608  14.575   0.934  0.00  0.00    -0.234 N 
HETATM   32  N   UNK N   1      26.145  13.405   2.173  0.00  0.00    -0.168 N 
HETATM   33  H   UNK N   1      24.190  15.420   0.648  0.00  0.00     0.174 HD
ATOM     34  HN  UNK N   1      24.284  13.690   0.543  1.00  0.00     0.174 HD
ATOM     35  HN  UNK N   1      25.826  12.527   1.764  1.00  0.00     0.186 HD
BRANCH  27  36
HETATM   36  O   UNK N   1      27.719  12.231   3.476  0.00  0.00    -0.344 OA
HETATM   37  H   UNK N   1      27.486  11.844   4.296  0.00  0.00     0.219 HD
ENDBRANCH  27  36
ENDBRANCH  15  21
ENDBRANCH  11  12
ENDBRANCH  10  11
ENDBRANCH   6  10
ENDBRANCH   5   6
ENDBRANCH   2   5
BRANCH   2  38
HETATM   38  O   UNK N   1      19.763  16.734   1.044  0.00  0.00    -0.195 OA
BRANCH  38  39
HETATM   39  P   UNK N   1      20.411  15.146   1.403  0.00  0.00     0.401 P 
HETATM   40  O   UNK N   1      21.765  14.938   0.674  0.00  0.00    -0.631 OA
BRANCH  39  41
HETATM   41  O   UNK N   1      19.323  13.979   0.716  0.00  0.00    -0.307 OA
HETATM   42  H   UNK N   1      19.018  13.231   0.180  0.00  0.00     0.222 HD
ENDBRANCH  39  41
BRANCH  39  43
HETATM   43  O   UNK N   1      20.589  14.763   3.101  0.00  0.00    -0.294 OA
BRANCH  43  44
HETATM   44  C   UNK N   1      20.461  13.372   3.197  0.00  0.00     0.215 C 
BRANCH  44  45
HETATM   45  C   UNK N   1      19.615  13.055   4.425  0.00  0.00     0.180 C 
HETATM   46  C   UNK N   1      19.506  11.600   4.824  0.00  0.00     0.182 C 
HETATM   47  C   UNK N   1      20.745  11.469   5.639  0.00  0.00     0.198 C 
HETATM   48  C   UNK N   1      20.659  12.806   6.397  0.00  0.00     0.262 C 
HETATM   49  O   UNK N   1      20.077  13.767   5.540  0.00  0.00    -0.353 OA
BRANCH  46  50
HETATM   50  O   UNK N   1      19.423  10.721   3.742  0.00  0.00    -0.390 OA
HETATM   51  H   UNK N   1      18.842  10.020   3.407  0.00  0.00     0.210 HD
ENDBRANCH  46  50
BRANCH  47  52
HETATM   52  O   UNK N   1      21.867  11.439   4.801  0.00  0.00    -0.388 OA
HETATM   53  H   UNK N   1      22.580  11.764   4.230  0.00  0.00     0.210 HD
ENDBRANCH  47  52
BRANCH  48  54
HETATM   54  N   UNK N   1      21.967  13.277   6.826  0.00  0.00    -0.296 N 
HETATM   55  C   UNK N   1      22.662  12.839   7.912  0.00  0.00     0.190 A 
HETATM   56  N   UNK N   1      23.835  13.502   8.024  0.00  0.00    -0.341 N 
HETATM   57  C   UNK N   1      24.831  13.301   9.061  0.00  0.00     0.157 C 
HETATM   58  C   UNK N   1      23.863  14.369   6.992  0.00  0.00     0.132 A 
HETATM   59  C   UNK N   1      22.732  14.222   6.274  0.00  0.00     0.158 A 
HETATM   60  C   UNK N   1      24.807  15.306   6.617  0.00  0.00     0.186 A 
HETATM   61  N   UNK N   1      22.459  14.971   5.176  0.00  0.00    -0.174 N 
HETATM   62  C   UNK N   1      23.379  15.905   4.799  0.00  0.00     0.679 A 
HETATM   63  H   UNK N   1      21.624  14.845   4.669  0.00  0.00     0.186 HD
HETATM   64  N   UNK N   1      23.153  16.638   3.774  0.00  0.00    -0.234 N 
HETATM   65  N   UNK N   1      24.543  16.070   5.510  0.00  0.00    -0.168 N 
HETATM   66  H   UNK N   1      22.248  16.682   3.390  0.00  0.00     0.174 HD
ATOM     67  HN  UNK N   1      23.911  17.176   3.354  1.00  0.00     0.174 HD
ATOM     68  HN  UNK N   1      25.221  16.770   5.211  1.00  0.00     0.186 HD
BRANCH  60  69
HETATM   69  O   UNK N   1      25.944  15.476   7.309  0.00  0.00    -0.344 OA
HETATM   70  H   UNK N   1      26.453  14.749   7.612  0.00  0.00     0.219 HD
ENDBRANCH  60  69
ENDBRANCH  48  54
ENDBRANCH  44  45
ENDBRANCH  43  44
ENDBRANCH  39  43
ENDBRANCH  38  39
ENDBRANCH   2  38
TORSDOF 21
ENDMDL
MODEL 8
REMARK VINA RESULT:      -7.2      3.326     11.744
REMARK  21 active torsions:
REMARK  status: ('A' for Active; 'I' for Inactive)
REMARK    1  A    between atoms: C_6  and  C_2 
REMARK    2  A    between atoms: O_49  and  C_2 
REMARK    3  A    between atoms: C_7  and  C_3 
REMARK    4  A    between atoms: O_50  and  C_3 
REMARK    5  A    between atoms: C_10  and  O_37 
REMARK    6  A    between atoms: C_11  and  O_38 
REMARK    7  A    between atoms: C_12  and  O_39 
REMARK    8  A    between atoms: C_13  and  O_40 
REMARK    9  A    between atoms: O_41  and  C_16 
REMARK   10  A    between atoms: O_42  and  C_17 
REMARK   11  A    between atoms: C_18  and  N_35 
REMARK   12  A    between atoms: C_19  and  N_36 
REMARK       I    between atoms: N_22  and  C_20 
REMARK       I    between atoms: N_24  and  C_21 
REMARK   13  A    between atoms: P_55  and  O_44 
REMARK   14  A    between atoms: P_56  and  O_45 
REMARK   15  A    between atoms: P_57  and  O_48 
REMARK   16  A    between atoms: P_55  and  O_49 
REMARK   17  A    between atoms: P_56  and  O_50 
REMARK   18  A    between atoms: P_55  and  O_53 
REMARK   19  A    between atoms: P_57  and  O_53 
REMARK   20  A    between atoms: P_56  and  O_54 
REMARK   21  A    between atoms: P_57  and  O_54 
ROOT
HETATM    1  O   UNK N   1      33.597  13.439   8.928  0.00  0.00    -0.631 OA
HETATM    2  P   UNK N   1      34.060  14.355   7.765  0.00  0.00     0.410 P 
ENDROOT
BRANCH   2   3
HETATM    3  O   UNK N   1      34.438  13.225   6.526  0.00  0.00    -0.307 OA
HETATM    4  H   UNK N   1      35.259  13.258   6.009  0.00  0.00     0.222 HD
ENDBRANCH   2   3
BRANCH   2   5
HETATM    5  O   UNK N   1      35.474  15.195   8.347  0.00  0.00    -0.195 OA
BRANCH   5   6
HETATM    6  P   UNK N   1      35.119  15.884   9.913  0.00  0.00     0.401 P 
HETATM    7  O   UNK N   1      35.313  17.404   9.669  0.00  0.00    -0.631 OA
BRANCH   6   8
HETATM    8  O   UNK N   1      33.429  15.768  10.289  0.00  0.00    -0.307 OA
HETATM    9  H   UNK N   1      32.649  16.155  10.717  0.00  0.00     0.222 HD
ENDBRANCH   6   8
BRANCH   6  10
HETATM   10  O   UNK N   1      36.187  15.561  11.273  0.00  0.00    -0.294 OA
BRANCH  10  11
HETATM   11  C   UNK N   1      35.424  15.294  12.422  0.00  0.00     0.215 C 
BRANCH  11  12
HETATM   12  C   UNK N   1      35.447  13.808  12.795  0.00  0.00     0.180 C 
HETATM   13  C   UNK N   1      36.799  13.130  12.542  0.00  0.00     0.182 C 
HETATM   14  C   UNK N   1      36.799  12.004  13.572  0.00  0.00     0.198 C 
HETATM   15  C   UNK N   1      35.411  12.161  14.204  0.00  0.00     0.262 C 
HETATM   16  O   UNK N   1      35.149  13.550  14.146  0.00  0.00    -0.353 OA
BRANCH  13  17
HETATM   17  O   UNK N   1      36.920  12.642  11.241  0.00  0.00    -0.390 OA
HETATM   18  H   UNK N   1      36.284  12.538  10.516  0.00  0.00     0.210 HD
ENDBRANCH  13  17
BRANCH  14  19
HETATM   19  O   UNK N   1      37.787  12.290  14.521  0.00  0.00    -0.388 OA
HETATM   20  H   UNK N   1      38.705  12.263  14.834  0.00  0.00     0.210 HD
ENDBRANCH  14  19
BRANCH  15  21
HETATM   21  N   UNK N   1      35.269  11.632  15.561  0.00  0.00    -0.297 N 
HETATM   22  C   UNK N   1      35.238  10.314  15.890  0.00  0.00     0.188 A 
HETATM   23  N   UNK N   1      35.197  10.137  17.239  0.00  0.00    -0.346 N 
HETATM   24  C   UNK N   1      35.233  11.386  17.738  0.00  0.00     0.130 A 
ATOM     25  HN  UNK N   1      35.150   9.259  17.755  1.00  0.00     0.167 HD
HETATM   26  C   UNK N   1      35.281  12.281  16.735  0.00  0.00     0.157 A 
HETATM   27  C   UNK N   1      35.248  11.814  19.054  0.00  0.00     0.186 A 
HETATM   28  N   UNK N   1      35.362  13.616  16.955  0.00  0.00    -0.174 N 
HETATM   29  C   UNK N   1      35.374  14.057  18.250  0.00  0.00     0.679 A 
HETATM   30  H   UNK N   1      35.411  14.251  16.204  0.00  0.00     0.186 HD
HETATM   31  N   UNK N   1      35.443  15.309  18.494  0.00  0.00    -0.234 N 
HETATM   32  N   UNK N   1      35.317  13.159  19.289  0.00  0.00    -0.168 N 
HETATM   33  H   UNK N   1      35.471  15.956  17.752  0.00  0.00     0.174 HD
ATOM     34  HN  UNK N   1      35.468  15.639  19.459  1.00  0.00     0.174 HD
ATOM     35  HN  UNK N   1      35.324  13.501  20.250  1.00  0.00     0.186 HD
BRANCH  27  36
HETATM   36  O   UNK N   1      35.209  10.940  20.073  0.00  0.00    -0.344 OA
HETATM   37  H   UNK N   1      35.266  10.020  19.905  0.00  0.00     0.219 HD
ENDBRANCH  27  36
ENDBRANCH  15  21
ENDBRANCH  11  12
ENDBRANCH  10  11
ENDBRANCH   6  10
ENDBRANCH   5   6
ENDBRANCH   2   5
BRANCH   2  38
HETATM   38  O   UNK N   1      32.926  15.634   7.320  0.00  0.00    -0.195 OA
BRANCH  38  39
HETATM   39  P   UNK N   1      33.477  16.724   6.063  0.00  0.00     0.401 P 
HETATM   40  O   UNK N   1      34.415  15.981   5.076  0.00  0.00    -0.631 OA
BRANCH  39  41
HETATM   41  O   UNK N   1      34.460  17.935   6.826  0.00  0.00    -0.307 OA
HETATM   42  H   UNK N   1      35.241  18.472   7.029  0.00  0.00     0.222 HD
ENDBRANCH  39  41
BRANCH  39  43
HETATM   43  O   UNK N   1      32.220  17.553   5.171  0.00  0.00    -0.294 OA
BRANCH  43  44
HETATM   44  C   UNK N   1      31.171  16.633   5.039  0.00  0.00     0.215 C 
BRANCH  44  45
HETATM   45  C   UNK N   1      31.305  15.950   3.683  0.00  0.00     0.180 C 
HETATM   46  C   UNK N   1      31.352  14.438   3.680  0.00  0.00     0.182 C 
HETATM   47  C   UNK N   1      29.894  14.141   3.691  0.00  0.00     0.198 C 
HETATM   48  C   UNK N   1      29.439  15.209   2.680  0.00  0.00     0.262 C 
HETATM   49  O   UNK N   1      30.268  16.343   2.827  0.00  0.00    -0.353 OA
BRANCH  46  50
HETATM   50  O   UNK N   1      32.067  13.892   4.749  0.00  0.00    -0.390 OA
HETATM   51  H   UNK N   1      32.016  13.139   5.359  0.00  0.00     0.210 HD
ENDBRANCH  46  50
BRANCH  47  52
HETATM   52  O   UNK N   1      29.363  14.396   4.962  0.00  0.00    -0.388 OA
HETATM   53  H   UNK N   1      29.279  14.383   5.927  0.00  0.00     0.210 HD
ENDBRANCH  47  52
BRANCH  48  54
HETATM   54  N   UNK N   1      28.053  15.600   2.883  0.00  0.00    -0.296 N 
HETATM   55  C   UNK N   1      26.956  14.832   2.631  0.00  0.00     0.190 A 
HETATM   56  N   UNK N   1      25.824  15.512   2.920  0.00  0.00    -0.341 N 
HETATM   57  C   UNK N   1      24.469  15.013   2.772  0.00  0.00     0.157 C 
HETATM   58  C   UNK N   1      26.227  16.725   3.352  0.00  0.00     0.132 A 
HETATM   59  C   UNK N   1      27.574  16.764   3.328  0.00  0.00     0.158 A 
HETATM   60  C   UNK N   1      25.506  17.828   3.766  0.00  0.00     0.186 A 
HETATM   61  N   UNK N   1      28.281  17.864   3.694  0.00  0.00    -0.174 N 
HETATM   62  C   UNK N   1      27.581  18.963   4.099  0.00  0.00     0.679 A 
HETATM   63  H   UNK N   1      29.265  17.867   3.667  0.00  0.00     0.186 HD
HETATM   64  N   UNK N   1      28.212  20.023   4.442  0.00  0.00    -0.234 N 
HETATM   65  N   UNK N   1      26.208  18.945   4.137  0.00  0.00    -0.168 N 
HETATM   66  H   UNK N   1      29.165  20.123   4.217  0.00  0.00     0.174 HD
ATOM     67  HN  UNK N   1      27.727  20.764   4.948  1.00  0.00     0.174 HD
ATOM     68  HN  UNK N   1      25.703  19.775   4.446  1.00  0.00     0.186 HD
BRANCH  60  69
HETATM   69  O   UNK N   1      24.165  17.819   3.803  0.00  0.00    -0.344 OA
HETATM   70  H   UNK N   1      23.648  17.782   3.022  0.00  0.00     0.219 HD
ENDBRANCH  60  69
ENDBRANCH  48  54
ENDBRANCH  44  45
ENDBRANCH  43  44
ENDBRANCH  39  43
ENDBRANCH  38  39
ENDBRANCH   2  38
TORSDOF 21
ENDMDL
MODEL 9
REMARK VINA RESULT:      -7.2      1.306      1.980
REMARK  21 active torsions:
REMARK  status: ('A' for Active; 'I' for Inactive)
REMARK    1  A    between atoms: C_6  and  C_2 
REMARK    2  A    between atoms: O_49  and  C_2 
REMARK    3  A    between atoms: C_7  and  C_3 
REMARK    4  A    between atoms: O_50  and  C_3 
REMARK    5  A    between atoms: C_10  and  O_37 
REMARK    6  A    between atoms: C_11  and  O_38 
REMARK    7  A    between atoms: C_12  and  O_39 
REMARK    8  A    between atoms: C_13  and  O_40 
REMARK    9  A    between atoms: O_41  and  C_16 
REMARK   10  A    between atoms: O_42  and  C_17 
REMARK   11  A    between atoms: C_18  and  N_35 
REMARK   12  A    between atoms: C_19  and  N_36 
REMARK       I    between atoms: N_22  and  C_20 
REMARK       I    between atoms: N_24  and  C_21 
REMARK   13  A    between atoms: P_55  and  O_44 
REMARK   14  A    between atoms: P_56  and  O_45 
REMARK   15  A    between atoms: P_57  and  O_48 
REMARK   16  A    between atoms: P_55  and  O_49 
REMARK   17  A    between atoms: P_56  and  O_50 
REMARK   18  A    between atoms: P_55  and  O_53 
REMARK   19  A    between atoms: P_57  and  O_53 
REMARK   20  A    between atoms: P_56  and  O_54 
REMARK   21  A    between atoms: P_57  and  O_54 
ROOT
HETATM    1  O   UNK N   1      32.794  18.299   8.276  0.00  0.00    -0.631 OA
HETATM    2  P   UNK N   1      34.215  17.908   7.794  0.00  0.00     0.410 P 
ENDROOT
BRANCH   2   3
HETATM    3  O   UNK N   1      35.201  19.120   8.511  0.00  0.00    -0.307 OA
HETATM    4  H   UNK N   1      35.162  19.347   9.454  0.00  0.00     0.222 HD
ENDBRANCH   2   3
BRANCH   2   5
HETATM    5  O   UNK N   1      34.183  18.027   6.053  0.00  0.00    -0.195 OA
BRANCH   5   6
HETATM    6  P   UNK N   1      33.178  16.748   5.417  0.00  0.00     0.401 P 
HETATM    7  O   UNK N   1      33.152  17.059   3.897  0.00  0.00    -0.631 OA
BRANCH   6   8
HETATM    8  O   UNK N   1      33.985  15.214   5.482  0.00  0.00    -0.307 OA
HETATM    9  H   UNK N   1      34.814  14.719   5.583  0.00  0.00     0.222 HD
ENDBRANCH   6   8
BRANCH   6  10
HETATM   10  O   UNK N   1      31.470  16.686   5.838  0.00  0.00    -0.294 OA
BRANCH  10  11
HETATM   11  C   UNK N   1      30.718  17.368   4.867  0.00  0.00     0.215 C 
BRANCH  11  12
HETATM   12  C   UNK N   1      29.237  17.461   5.248  0.00  0.00     0.180 C 
HETATM   13  C   UNK N   1      28.993  18.108   6.617  0.00  0.00     0.182 C 
HETATM   14  C   UNK N   1      27.600  18.707   6.453  0.00  0.00     0.198 C 
HETATM   15  C   UNK N   1      27.226  18.242   5.041  0.00  0.00     0.262 C 
HETATM   16  O   UNK N   1      28.455  18.202   4.342  0.00  0.00    -0.353 OA
BRANCH  13  17
HETATM   17  O   UNK N   1      29.041  17.187   7.663  0.00  0.00    -0.390 OA
HETATM   18  H   UNK N   1      29.703  17.003   8.348  0.00  0.00     0.210 HD
ENDBRANCH  13  17
BRANCH  14  19
HETATM   19  O   UNK N   1      27.726  20.101   6.476  0.00  0.00    -0.388 OA
HETATM   20  H   UNK N   1      27.351  20.995   6.425  0.00  0.00     0.210 HD
ENDBRANCH  14  19
BRANCH  15  21
HETATM   21  N   UNK N   1      26.228  19.059   4.348  0.00  0.00    -0.297 N 
HETATM   22  C   UNK N   1      26.502  20.008   3.415  0.00  0.00     0.188 A 
HETATM   23  N   UNK N   1      25.362  20.526   2.880  0.00  0.00    -0.346 N 
HETATM   24  C   UNK N   1      24.372  19.847   3.489  0.00  0.00     0.130 A 
ATOM     25  HN  UNK N   1      25.277  21.260   2.178  1.00  0.00     0.167 HD
HETATM   26  C   UNK N   1      24.890  18.966   4.363  0.00  0.00     0.157 A 
HETATM   27  C   UNK N   1      23.003  19.932   3.314  0.00  0.00     0.186 A 
HETATM   28  N   UNK N   1      24.116  18.123   5.089  0.00  0.00    -0.174 N 
HETATM   29  C   UNK N   1      22.759  18.196   4.932  0.00  0.00     0.679 A 
HETATM   30  H   UNK N   1      24.519  17.476   5.713  0.00  0.00     0.186 HD
HETATM   31  N   UNK N   1      21.999  17.420   5.606  0.00  0.00    -0.234 N 
HETATM   32  N   UNK N   1      22.211  19.096   4.050  0.00  0.00    -0.168 N 
HETATM   33  H   UNK N   1      22.388  16.783   6.248  0.00  0.00     0.174 HD
ATOM     34  HN  UNK N   1      20.988  17.462   5.478  1.00  0.00     0.174 HD
ATOM     35  HN  UNK N   1      21.197  19.141   3.944  1.00  0.00     0.186 HD
BRANCH  27  36
HETATM   36  O   UNK N   1      22.463  20.798   2.441  0.00  0.00    -0.344 OA
HETATM   37  H   UNK N   1      21.561  21.041   2.517  0.00  0.00     0.219 HD
ENDBRANCH  27  36
ENDBRANCH  15  21
ENDBRANCH  11  12
ENDBRANCH  10  11
ENDBRANCH   6  10
ENDBRANCH   5   6
ENDBRANCH   2   5
BRANCH   2  38
HETATM   38  O   UNK N   1      34.686  16.238   8.124  0.00  0.00    -0.195 OA
BRANCH  38  39
HETATM   39  P   UNK N   1      34.704  15.782   9.816  0.00  0.00     0.401 P 
HETATM   40  O   UNK N   1      33.310  15.256  10.248  0.00  0.00    -0.631 OA
BRANCH  39  41
HETATM   41  O   UNK N   1      34.967  17.231  10.737  0.00  0.00    -0.307 OA
HETATM   42  H   UNK N   1      34.829  17.911  11.413  0.00  0.00     0.222 HD
ENDBRANCH  39  41
BRANCH  39  43
HETATM   43  O   UNK N   1      35.939  14.632  10.280  0.00  0.00    -0.294 OA
BRANCH  43  44
HETATM   44  C   UNK N   1      35.793  14.448  11.661  0.00  0.00     0.215 C 
BRANCH  44  45
HETATM   45  C   UNK N   1      36.749  13.343  12.097  0.00  0.00     0.180 C 
HETATM   46  C   UNK N   1      36.601  12.829  13.512  0.00  0.00     0.182 C 
HETATM   47  C   UNK N   1      35.524  11.823  13.304  0.00  0.00     0.198 C 
HETATM   48  C   UNK N   1      36.035  11.217  11.984  0.00  0.00     0.262 C 
HETATM   49  O   UNK N   1      36.657  12.242  11.236  0.00  0.00    -0.353 OA
BRANCH  46  50
HETATM   50  O   UNK N   1      36.297  13.823  14.446  0.00  0.00    -0.390 OA
HETATM   51  H   UNK N   1      35.533  14.156  14.944  0.00  0.00     0.210 HD
ENDBRANCH  46  50
BRANCH  47  52
HETATM   52  O   UNK N   1      34.295  12.468  13.117  0.00  0.00    -0.388 OA
HETATM   53  H   UNK N   1      33.342  12.579  12.981  0.00  0.00     0.210 HD
ENDBRANCH  47  52
BRANCH  48  54
HETATM   54  N   UNK N   1      34.959  10.636  11.196  0.00  0.00    -0.296 N 
HETATM   55  C   UNK N   1      34.213   9.548  11.535  0.00  0.00     0.190 A 
HETATM   56  N   UNK N   1      33.310   9.272  10.568  0.00  0.00    -0.341 N 
HETATM   57  C   UNK N   1      32.349   8.183  10.585  0.00  0.00     0.157 C 
HETATM   58  C   UNK N   1      33.505  10.200   9.610  0.00  0.00     0.132 A 
HETATM   59  C   UNK N   1      34.501  11.020  10.002  0.00  0.00     0.158 A 
HETATM   60  C   UNK N   1      32.883  10.396   8.393  0.00  0.00     0.186 A 
HETATM   61  N   UNK N   1      34.943  12.052   9.240  0.00  0.00    -0.174 N 
HETATM   62  C   UNK N   1      34.342  12.253   8.032  0.00  0.00     0.679 A 
HETATM   63  H   UNK N   1      35.674  12.636   9.549  0.00  0.00     0.186 HD
HETATM   64  N   UNK N   1      34.738  13.210   7.279  0.00  0.00    -0.234 N 
HETATM   65  N   UNK N   1      33.321  11.435   7.613  0.00  0.00    -0.168 N 
HETATM   66  H   UNK N   1      35.594  13.659   7.463  0.00  0.00     0.174 HD
ATOM     67  HN  UNK N   1      34.166  13.507   6.488  1.00  0.00     0.174 HD
ATOM     68  HN  UNK N   1      32.881  11.602   6.708  1.00  0.00     0.186 HD
BRANCH  60  69
HETATM   69  O   UNK N   1      31.887   9.599   7.975  0.00  0.00    -0.344 OA
HETATM   70  H   UNK N   1      31.027   9.645   8.344  0.00  0.00     0.219 HD
ENDBRANCH  60  69
ENDBRANCH  48  54
ENDBRANCH  44  45
ENDBRANCH  43  44
ENDBRANCH  39  43
ENDBRANCH  38  39
ENDBRANCH   2  38
TORSDOF 21
ENDMDL
