REMARK  17 active torsions:
REMARK  status: ('A' for Active; 'I' for Inactive)
REMARK    1  A    between atoms: C_9  and  C_8 
REMARK    2  A    between atoms: C_16  and  C_8 
REMARK    3  A    between atoms: C_18  and  C_9 
REMARK    4  A    between atoms: C_19  and  C_10 
REMARK    5  A    between atoms: N_23  and  C_10 
REMARK    6  A    between atoms: C_14  and  C_11 
REMARK    7  A    between atoms: S_33  and  C_11 
REMARK    8  A    between atoms: C_17  and  C_12 
REMARK    9  A    between atoms: S_33  and  C_12 
REMARK   10  A    between atoms: C_21  and  C_16 
REMARK   11  A    between atoms: C_16  and  N_22 
REMARK   12  A    between atoms: C_20  and  C_17 
REMARK   13  A    between atoms: C_17  and  N_25 
REMARK   14  A    between atoms: C_18  and  O_27 
REMARK   15  A    between atoms: O_29  and  C_19 
REMARK   16  A    between atoms: O_30  and  C_20 
REMARK   17  A    between atoms: O_32  and  C_21 
ROOT
HETATM    1  C   UNK N   1       0.705   6.259  -0.285  0.00  0.00     0.167 C 
ENDROOT
BRANCH   1   2
HETATM    2  C   UNK N   1      -0.242   7.224  -1.008  0.00  0.00     0.107 C 
BRANCH   2   3
HETATM    3  S   UNK N   1      -1.451   8.072   0.063  0.00  0.00    -0.162 SA
BRANCH   3   4
HETATM    4  C   UNK N   1      -2.837   7.717  -1.066  0.00  0.00     0.113 C 
BRANCH   4   5
HETATM    5  C   UNK N   1      -3.746   6.709  -0.441  0.00  0.00    -0.038 A 
HETATM    6  C   UNK N   1      -4.791   7.159   0.374  0.00  0.00     0.009 A 
HETATM    7  C   UNK N   1      -5.640   6.247   1.006  0.00  0.00     0.001 A 
HETATM    8  C   UNK N   1      -5.441   4.874   0.843  0.00  0.00     0.012 A 
HETATM    9  C   UNK N   1      -4.405   4.408   0.031  0.00  0.00    -0.025 A 
HETATM   10  C   UNK N   1      -4.203   3.033  -0.120  0.00  0.00     0.012 A 
HETATM   11  C   UNK N   1      -3.555   5.326  -0.631  0.00  0.00    -0.019 A 
HETATM   12  C   UNK N   1      -3.167   2.562  -0.933  0.00  0.00     0.001 A 
HETATM   13  C   UNK N   1      -2.340   3.463  -1.607  0.00  0.00     0.001 A 
HETATM   14  C   UNK N   1      -2.531   4.839  -1.456  0.00  0.00     0.013 A 
ENDBRANCH   4   5
ENDBRANCH   3   4
ENDBRANCH   2   3
ENDBRANCH   1   2
BRANCH   1  15
HETATM   15  C   UNK N   1       0.010   5.042   0.301  0.00  0.00     0.136 C 
HETATM   16  N   UNK N   1       0.343   3.832  -0.011  0.00  0.00    -0.363 N 
ATOM     17  HN  UNK N   1      -0.171   3.067   0.425  1.00  0.00     0.161 HD
BRANCH  16  18
HETATM   18  C   UNK N   1       1.398   3.499  -0.941  0.00  0.00     0.231 C 
BRANCH  18  19
HETATM   19  C   UNK N   1       2.485   2.764  -0.230  0.00  0.00     0.158 C 
HETATM   20  O   UNK N   1       3.600   3.251  -0.152  0.00  0.00    -0.649 OA
BRANCH  19  21
HETATM   21  O   UNK N   1       2.238   1.562   0.323  0.00  0.00    -0.775 OA
HETATM   22  H   UNK N   1       1.428   1.292   0.707  0.00  0.00     0.167 HD
ENDBRANCH  19  21
ENDBRANCH  18  19
ENDBRANCH  16  18
BRANCH  15  23
HETATM   23  O   UNK N   1      -0.958   5.227   1.221  0.00  0.00    -0.348 OA
HETATM   24  H   UNK N   1      -1.183   5.873   1.861  0.00  0.00     0.219 HD
ENDBRANCH  15  23
ENDBRANCH   1  15
BRANCH   1  25
HETATM   25  N   UNK N   1       1.396   6.935   0.797  0.00  0.00    -0.362 N 
HETATM   26  C   UNK N   1       2.680   7.032   0.906  0.00  0.00     0.111 C 
ATOM     27  HN  UNK N   1       0.826   7.366   1.525  1.00  0.00     0.162 HD
BRANCH  26  28
HETATM   28  C   UNK N   1       3.612   6.449  -0.121  0.00  0.00     0.086 C 
BRANCH  28  29
HETATM   29  C   UNK N   1       4.515   7.528  -0.699  0.00  0.00     0.043 C 
BRANCH  29  30
HETATM   30  C   UNK N   1       5.840   7.615   0.056  0.00  0.00     0.173 C 
BRANCH  30  31
HETATM   31  C   UNK N   1       6.700   6.409  -0.228  0.00  0.00     0.163 C 
HETATM   32  O   UNK N   1       7.809   6.545  -0.739  0.00  0.00    -0.648 OA
BRANCH  31  33
HETATM   33  O   UNK N   1       6.269   5.176   0.086  0.00  0.00    -0.775 OA
HETATM   34  H   UNK N   1       5.374   5.007   0.305  0.00  0.00     0.167 HD
ENDBRANCH  31  33
ENDBRANCH  30  31
BRANCH  30  35
HETATM   35  N   UNK N   1       6.516   8.837  -0.341  0.00  0.00    -0.418 N 
HETATM   36  H   UNK N   1       7.497   8.854  -0.620  0.00  0.00     0.150 HD
HETATM   37  H   UNK N   1       5.990   9.711  -0.341  0.00  0.00     0.150 HD
ENDBRANCH  30  35
ENDBRANCH  29  30
ENDBRANCH  28  29
ENDBRANCH  26  28
BRANCH  26  38
HETATM   38  O   UNK N   1       3.198   7.644   1.986  0.00  0.00    -0.350 OA
HETATM   39  H   UNK N   1       3.748   7.545   2.738  0.00  0.00     0.219 HD
ENDBRANCH  26  38
ENDBRANCH   1  25
TORSDOF 17
