MODEL 1
REMARK VINA RESULT:      -4.8      0.000      0.000
REMARK  4 active torsions:
REMARK  status: ('A' for Active; 'I' for Inactive)
REMARK    1  A    between atoms: C_4  and  O_8 
REMARK    2  A    between atoms: C_5  and  O_9 
REMARK    3  A    between atoms: C_6  and  O_10 
REMARK    4  A    between atoms: C_7  and  O_11 
ROOT
HETATM    1  C   UNK N   1      21.401  17.786   4.476  0.00  0.00     0.042 C 
HETATM    2  C   UNK N   1      20.278  18.683   3.965  0.00  0.00     0.152 C 
HETATM    3  C   UNK N   1      19.717  18.208   2.609  0.00  0.00     0.178 C 
HETATM    4  C   UNK N   1      20.716  18.531   1.488  0.00  0.00     0.183 C 
HETATM    5  C   UNK N   1      21.066  20.026   1.528  0.00  0.00     0.204 C 
HETATM    6  C   UNK N   1      21.606  20.379   2.926  0.00  0.00     0.290 C 
HETATM    7  O   UNK N   1      20.657  20.059   3.951  0.00  0.00    -0.351 OA
ENDROOT
BRANCH   3   8
HETATM    8  O   UNK N   1      18.498  18.850   2.365  0.00  0.00    -0.390 OA
HETATM    9  H   UNK N   1      17.530  18.782   2.369  0.00  0.00     0.210 HD
ENDBRANCH   3   8
BRANCH   4  10
HETATM   10  O   UNK N   1      20.181  18.187   0.243  0.00  0.00    -0.390 OA
HETATM   11  H   UNK N   1      20.187  17.265  -0.057  0.00  0.00     0.210 HD
ENDBRANCH   4  10
BRANCH   5  12
HETATM   12  O   UNK N   1      19.938  20.805   1.251  0.00  0.00    -0.388 OA
HETATM   13  H   UNK N   1      19.527  21.601   0.881  0.00  0.00     0.210 HD
ENDBRANCH   5  12
BRANCH   6  14
HETATM   14  O   UNK N   1      22.846  19.736   3.140  0.00  0.00    -0.363 OA
HETATM   15  C   UNK N   1      23.869  20.662   2.884  0.00  0.00     0.204 C 
ENDBRANCH   6  14
TORSDOF 4
ENDMDL
MODEL 2
REMARK VINA RESULT:      -4.7     20.870     23.402
REMARK  4 active torsions:
REMARK  status: ('A' for Active; 'I' for Inactive)
REMARK    1  A    between atoms: C_4  and  O_8 
REMARK    2  A    between atoms: C_5  and  O_9 
REMARK    3  A    between atoms: C_6  and  O_10 
REMARK    4  A    between atoms: C_7  and  O_11 
ROOT
HETATM    1  C   UNK N   1      43.986  22.694   0.089  0.00  0.00     0.042 C 
HETATM    2  C   UNK N   1      43.937  23.822   1.115  0.00  0.00     0.152 C 
HETATM    3  C   UNK N   1      45.095  23.743   2.130  0.00  0.00     0.178 C 
HETATM    4  C   UNK N   1      44.843  22.599   3.124  0.00  0.00     0.183 C 
HETATM    5  C   UNK N   1      43.460  22.774   3.768  0.00  0.00     0.204 C 
HETATM    6  C   UNK N   1      42.394  22.847   2.659  0.00  0.00     0.290 C 
HETATM    7  O   UNK N   1      42.659  23.916   1.744  0.00  0.00    -0.351 OA
ENDROOT
BRANCH   3   8
HETATM    8  O   UNK N   1      45.190  24.959   2.815  0.00  0.00    -0.390 OA
HETATM    9  H   UNK N   1      45.158  25.928   2.757  0.00  0.00     0.210 HD
ENDBRANCH   3   8
BRANCH   4  10
HETATM   10  O   UNK N   1      45.840  22.573   4.103  0.00  0.00    -0.390 OA
HETATM   11  H   UNK N   1      46.245  23.397   4.415  0.00  0.00     0.210 HD
ENDBRANCH   4  10
BRANCH   5  12
HETATM   12  O   UNK N   1      43.417  23.943   4.535  0.00  0.00    -0.388 OA
HETATM   13  H   UNK N   1      43.618  24.432   5.347  0.00  0.00     0.210 HD
ENDBRANCH   5  12
BRANCH   6  14
HETATM   14  O   UNK N   1      42.302  21.601   1.998  0.00  0.00    -0.363 OA
HETATM   15  C   UNK N   1      40.996  21.114   2.161  0.00  0.00     0.204 C 
ENDBRANCH   6  14
TORSDOF 4
ENDMDL
MODEL 3
REMARK VINA RESULT:      -4.5     22.051     23.525
REMARK  4 active torsions:
REMARK  status: ('A' for Active; 'I' for Inactive)
REMARK    1  A    between atoms: C_4  and  O_8 
REMARK    2  A    between atoms: C_5  and  O_9 
REMARK    3  A    between atoms: C_6  and  O_10 
REMARK    4  A    between atoms: C_7  and  O_11 
ROOT
HETATM    1  C   UNK N   1      42.966  19.952   3.166  0.00  0.00     0.042 C 
HETATM    2  C   UNK N   1      44.322  20.650   3.176  0.00  0.00     0.152 C 
HETATM    3  C   UNK N   1      44.339  21.888   4.097  0.00  0.00     0.178 C 
HETATM    4  C   UNK N   1      43.560  23.038   3.441  0.00  0.00     0.183 C 
HETATM    5  C   UNK N   1      44.118  23.299   2.035  0.00  0.00     0.204 C 
HETATM    6  C   UNK N   1      44.056  21.996   1.218  0.00  0.00     0.290 C 
HETATM    7  O   UNK N   1      44.783  20.940   1.856  0.00  0.00    -0.351 OA
ENDROOT
BRANCH   3   8
HETATM    8  O   UNK N   1      45.664  22.274   4.323  0.00  0.00    -0.390 OA
HETATM    9  H   UNK N   1      46.265  22.974   4.624  0.00  0.00     0.210 HD
ENDBRANCH   3   8
BRANCH   4  10
HETATM   10  O   UNK N   1      43.643  24.193   4.224  0.00  0.00    -0.390 OA
HETATM   11  H   UNK N   1      43.670  24.131   5.191  0.00  0.00     0.210 HD
ENDBRANCH   4  10
BRANCH   5  12
HETATM   12  O   UNK N   1      45.442  23.745   2.104  0.00  0.00    -0.388 OA
HETATM   13  H   UNK N   1      46.095  24.459   2.172  0.00  0.00     0.210 HD
ENDBRANCH   5  12
BRANCH   6  14
HETATM   14  O   UNK N   1      42.709  21.639   0.984  0.00  0.00    -0.363 OA
HETATM   15  C   UNK N   1      42.584  21.256  -0.360  0.00  0.00     0.204 C 
ENDBRANCH   6  14
TORSDOF 4
ENDMDL
MODEL 4
REMARK VINA RESULT:      -4.4     12.698     15.061
REMARK  4 active torsions:
REMARK  status: ('A' for Active; 'I' for Inactive)
REMARK    1  A    between atoms: C_4  and  O_8 
REMARK    2  A    between atoms: C_5  and  O_9 
REMARK    3  A    between atoms: C_6  and  O_10 
REMARK    4  A    between atoms: C_7  and  O_11 
ROOT
HETATM    1  C   UNK N   1      34.167  17.522   7.114  0.00  0.00     0.042 C 
HETATM    2  C   UNK N   1      33.859  17.524   8.609  0.00  0.00     0.152 C 
HETATM    3  C   UNK N   1      34.920  16.762   9.429  0.00  0.00     0.178 C 
HETATM    4  C   UNK N   1      34.753  15.249   9.222  0.00  0.00     0.183 C 
HETATM    5  C   UNK N   1      33.308  14.844   9.544  0.00  0.00     0.204 C 
HETATM    6  C   UNK N   1      32.347  15.673   8.674  0.00  0.00     0.290 C 
HETATM    7  O   UNK N   1      32.530  17.078   8.881  0.00  0.00    -0.351 OA
ENDROOT
BRANCH   3   8
HETATM    8  O   UNK N   1      34.772  17.081  10.782  0.00  0.00    -0.390 OA
HETATM    9  H   UNK N   1      34.404  17.697  11.436  0.00  0.00     0.210 HD
ENDBRANCH   3   8
BRANCH   4  10
HETATM   10  O   UNK N   1      35.651  14.544  10.029  0.00  0.00    -0.390 OA
HETATM   11  H   UNK N   1      36.138  13.784   9.675  0.00  0.00     0.210 HD
ENDBRANCH   4  10
BRANCH   5  12
HETATM   12  O   UNK N   1      33.023  15.064  10.896  0.00  0.00    -0.388 OA
HETATM   13  H   UNK N   1      32.427  15.002  11.658  0.00  0.00     0.210 HD
ENDBRANCH   5  12
BRANCH   6  14
HETATM   14  O   UNK N   1      32.501  15.318   7.315  0.00  0.00    -0.363 OA
HETATM   15  C   UNK N   1      31.235  15.340   6.710  0.00  0.00     0.204 C 
ENDBRANCH   6  14
TORSDOF 4
ENDMDL
MODEL 5
REMARK VINA RESULT:      -4.3     16.621     18.578
REMARK  4 active torsions:
REMARK  status: ('A' for Active; 'I' for Inactive)
REMARK    1  A    between atoms: C_4  and  O_8 
REMARK    2  A    between atoms: C_5  and  O_9 
REMARK    3  A    between atoms: C_6  and  O_10 
REMARK    4  A    between atoms: C_7  and  O_11 
ROOT
HETATM    1  C   UNK N   1      34.408  13.869   9.297  0.00  0.00     0.042 C 
HETATM    2  C   UNK N   1      34.983  14.819  10.344  0.00  0.00     0.152 C 
HETATM    3  C   UNK N   1      36.523  14.889  10.290  0.00  0.00     0.178 C 
HETATM    4  C   UNK N   1      37.126  13.604  10.876  0.00  0.00     0.183 C 
HETATM    5  C   UNK N   1      36.562  13.368  12.284  0.00  0.00     0.204 C 
HETATM    6  C   UNK N   1      35.025  13.324  12.210  0.00  0.00     0.290 C 
HETATM    7  O   UNK N   1      34.492  14.531  11.653  0.00  0.00    -0.351 OA
ENDROOT
BRANCH   3   8
HETATM    8  O   UNK N   1      36.958  15.999  11.021  0.00  0.00    -0.390 OA
HETATM    9  H   UNK N   1      37.685  16.616  11.205  0.00  0.00     0.210 HD
ENDBRANCH   3   8
BRANCH   4  10
HETATM   10  O   UNK N   1      38.521  13.692  10.916  0.00  0.00    -0.390 OA
HETATM   11  H   UNK N   1      38.964  14.169  11.634  0.00  0.00     0.210 HD
ENDBRANCH   4  10
BRANCH   5  12
HETATM   12  O   UNK N   1      36.960  14.389  13.153  0.00  0.00    -0.388 OA
HETATM   13  H   UNK N   1      37.176  15.318  13.328  0.00  0.00     0.210 HD
ENDBRANCH   5  12
BRANCH   6  14
HETATM   14  O   UNK N   1      34.610  12.184  11.486  0.00  0.00    -0.363 OA
HETATM   15  C   UNK N   1      34.694  11.071  12.336  0.00  0.00     0.204 C 
ENDBRANCH   6  14
TORSDOF 4
ENDMDL
MODEL 6
REMARK VINA RESULT:      -4.3     15.925     18.066
REMARK  4 active torsions:
REMARK  status: ('A' for Active; 'I' for Inactive)
REMARK    1  A    between atoms: C_4  and  O_8 
REMARK    2  A    between atoms: C_5  and  O_9 
REMARK    3  A    between atoms: C_6  and  O_10 
REMARK    4  A    between atoms: C_7  and  O_11 
ROOT
HETATM    1  C   UNK N   1      34.657  12.131  10.539  0.00  0.00     0.042 C 
HETATM    2  C   UNK N   1      35.958  12.877  10.256  0.00  0.00     0.152 C 
HETATM    3  C   UNK N   1      36.719  13.242  11.547  0.00  0.00     0.178 C 
HETATM    4  C   UNK N   1      36.009  14.402  12.262  0.00  0.00     0.183 C 
HETATM    5  C   UNK N   1      35.835  15.576  11.287  0.00  0.00     0.204 C 
HETATM    6  C   UNK N   1      35.073  15.087  10.042  0.00  0.00     0.290 C 
HETATM    7  O   UNK N   1      35.753  14.002   9.402  0.00  0.00    -0.351 OA
ENDROOT
BRANCH   3   8
HETATM    8  O   UNK N   1      38.028  13.609  11.221  0.00  0.00    -0.390 OA
HETATM    9  H   UNK N   1      38.774  13.499  10.610  0.00  0.00     0.210 HD
ENDBRANCH   3   8
BRANCH   4  10
HETATM   10  O   UNK N   1      36.737  14.802  13.386  0.00  0.00    -0.390 OA
HETATM   11  H   UNK N   1      36.922  15.740  13.544  0.00  0.00     0.210 HD
ENDBRANCH   4  10
BRANCH   5  12
HETATM   12  O   UNK N   1      37.080  16.087  10.904  0.00  0.00    -0.388 OA
HETATM   13  H   UNK N   1      38.020  16.249  11.076  0.00  0.00     0.210 HD
ENDBRANCH   5  12
BRANCH   6  14
HETATM   14  O   UNK N   1      33.748  14.743  10.393  0.00  0.00    -0.363 OA
HETATM   15  C   UNK N   1      32.894  15.197   9.377  0.00  0.00     0.204 C 
ENDBRANCH   6  14
TORSDOF 4
ENDMDL
MODEL 7
REMARK VINA RESULT:      -4.3     19.302     20.664
REMARK  4 active torsions:
REMARK  status: ('A' for Active; 'I' for Inactive)
REMARK    1  A    between atoms: C_4  and  O_8 
REMARK    2  A    between atoms: C_5  and  O_9 
REMARK    3  A    between atoms: C_6  and  O_10 
REMARK    4  A    between atoms: C_7  and  O_11 
ROOT
HETATM    1  C   UNK N   1      34.130  10.612  14.704  0.00  0.00     0.042 C 
HETATM    2  C   UNK N   1      34.671  11.712  13.794  0.00  0.00     0.152 C 
HETATM    3  C   UNK N   1      36.152  11.493  13.424  0.00  0.00     0.178 C 
HETATM    4  C   UNK N   1      37.045  11.817  14.631  0.00  0.00     0.183 C 
HETATM    5  C   UNK N   1      36.731  13.232  15.137  0.00  0.00     0.204 C 
HETATM    6  C   UNK N   1      35.230  13.328  15.464  0.00  0.00     0.290 C 
HETATM    7  O   UNK N   1      34.422  13.014  14.324  0.00  0.00    -0.351 OA
ENDROOT
BRANCH   3   8
HETATM    8  O   UNK N   1      36.484  12.320  12.347  0.00  0.00    -0.390 OA
HETATM    9  H   UNK N   1      36.900  13.148  12.057  0.00  0.00     0.210 HD
ENDBRANCH   3   8
BRANCH   4  10
HETATM   10  O   UNK N   1      38.395  11.709  14.283  0.00  0.00    -0.390 OA
HETATM   11  H   UNK N   1      38.708  12.027  13.423  0.00  0.00     0.210 HD
ENDBRANCH   4  10
BRANCH   5  12
HETATM   12  O   UNK N   1      37.061  14.187  14.169  0.00  0.00    -0.388 OA
HETATM   13  H   UNK N   1      37.591  14.940  13.866  0.00  0.00     0.210 HD
ENDBRANCH   5  12
BRANCH   6  14
HETATM   14  O   UNK N   1      34.924  12.501  16.568  0.00  0.00    -0.363 OA
HETATM   15  C   UNK N   1      35.107  13.250  17.740  0.00  0.00     0.204 C 
ENDBRANCH   6  14
TORSDOF 4
ENDMDL
MODEL 8
REMARK VINA RESULT:      -4.2     14.201     15.813
REMARK  4 active torsions:
REMARK  status: ('A' for Active; 'I' for Inactive)
REMARK    1  A    between atoms: C_4  and  O_8 
REMARK    2  A    between atoms: C_5  and  O_9 
REMARK    3  A    between atoms: C_6  and  O_10 
REMARK    4  A    between atoms: C_7  and  O_11 
ROOT
HETATM    1  C   UNK N   1      34.911  15.538   6.762  0.00  0.00     0.042 C 
HETATM    2  C   UNK N   1      33.694  15.730   7.663  0.00  0.00     0.152 C 
HETATM    3  C   UNK N   1      33.940  16.782   8.764  0.00  0.00     0.178 C 
HETATM    4  C   UNK N   1      34.863  16.201   9.846  0.00  0.00     0.183 C 
HETATM    5  C   UNK N   1      34.277  14.880  10.365  0.00  0.00     0.204 C 
HETATM    6  C   UNK N   1      34.072  13.920   9.179  0.00  0.00     0.290 C 
HETATM    7  O   UNK N   1      33.214  14.490   8.183  0.00  0.00    -0.351 OA
ENDROOT
BRANCH   3   8
HETATM    8  O   UNK N   1      32.714  17.151   9.328  0.00  0.00    -0.390 OA
HETATM    9  H   UNK N   1      32.257  17.674  10.007  0.00  0.00     0.210 HD
ENDBRANCH   3   8
BRANCH   4  10
HETATM   10  O   UNK N   1      35.021  17.112  10.894  0.00  0.00    -0.390 OA
HETATM   11  H   UNK N   1      35.024  16.807  11.815  0.00  0.00     0.210 HD
ENDBRANCH   4  10
BRANCH   5  12
HETATM   12  O   UNK N   1      33.054  15.100  11.005  0.00  0.00    -0.388 OA
HETATM   13  H   UNK N   1      32.408  14.889  11.698  0.00  0.00     0.210 HD
ENDBRANCH   5  12
BRANCH   6  14
HETATM   14  O   UNK N   1      35.323  13.545   8.641  0.00  0.00    -0.363 OA
HETATM   15  C   UNK N   1      35.906  12.603   9.503  0.00  0.00     0.204 C 
ENDBRANCH   6  14
TORSDOF 4
ENDMDL
MODEL 9
REMARK VINA RESULT:      -4.2     13.114     14.780
REMARK  4 active torsions:
REMARK  status: ('A' for Active; 'I' for Inactive)
REMARK    1  A    between atoms: C_4  and  O_8 
REMARK    2  A    between atoms: C_5  and  O_9 
REMARK    3  A    between atoms: C_6  and  O_10 
REMARK    4  A    between atoms: C_7  and  O_11 
ROOT
HETATM    1  C   UNK N   1      32.906  16.036   5.873  0.00  0.00     0.042 C 
HETATM    2  C   UNK N   1      32.524  16.377   7.311  0.00  0.00     0.152 C 
HETATM    3  C   UNK N   1      32.940  17.808   7.706  0.00  0.00     0.178 C 
HETATM    4  C   UNK N   1      34.460  17.872   7.914  0.00  0.00     0.183 C 
HETATM    5  C   UNK N   1      34.885  16.798   8.926  0.00  0.00     0.204 C 
HETATM    6  C   UNK N   1      34.409  15.421   8.427  0.00  0.00     0.290 C 
HETATM    7  O   UNK N   1      32.991  15.393   8.235  0.00  0.00    -0.351 OA
ENDROOT
BRANCH   3   8
HETATM    8  O   UNK N   1      32.279  18.170   8.884  0.00  0.00    -0.390 OA
HETATM    9  H   UNK N   1      32.098  18.871   9.531  0.00  0.00     0.210 HD
ENDBRANCH   3   8
BRANCH   4  10
HETATM   10  O   UNK N   1      34.839  19.142   8.360  0.00  0.00    -0.390 OA
HETATM   11  H   UNK N   1      34.172  19.826   8.522  0.00  0.00     0.210 HD
ENDBRANCH   4  10
BRANCH   5  12
HETATM   12  O   UNK N   1      34.330  17.057  10.184  0.00  0.00    -0.388 OA
HETATM   13  H   UNK N   1      33.672  17.492  10.747  0.00  0.00     0.210 HD
ENDBRANCH   5  12
BRANCH   6  14
HETATM   14  O   UNK N   1      35.106  15.069   7.250  0.00  0.00    -0.363 OA
HETATM   15  C   UNK N   1      36.097  14.135   7.590  0.00  0.00     0.204 C 
ENDBRANCH   6  14
TORSDOF 4
ENDMDL
