MODEL 1
REMARK VINA RESULT:      -7.1      0.000      0.000
REMARK  3 active torsions:
REMARK  status: ('A' for Active; 'I' for Inactive)
REMARK    1  A    between atoms: N_2  and  C_4 
REMARK    2  A    between atoms: C_7  and  C_10 
REMARK    3  A    between atoms: C_10  and  C_11 
ROOT
HETATM    1  C   UNK N   1      28.700  17.497   4.891  0.00  0.00    -0.005 C 
HETATM    2  C   UNK N   1      28.050  16.511   4.155  0.00  0.00    -0.024 A 
HETATM    3  C   UNK N   1      26.674  16.685   3.602  0.00  0.00     0.014 A 
HETATM    4  C   UNK N   1      26.048  15.709   2.925  0.00  0.00     0.030 A 
HETATM    5  C   UNK N   1      26.708  14.395   2.691  0.00  0.00     0.029 A 
HETATM    6  C   UNK N   1      28.070  14.204   3.235  0.00  0.00     0.030 A 
HETATM    7  C   UNK N   1      28.681  15.182   3.906  0.00  0.00     0.014 A 
HETATM    8  N   UNK N   1      26.114  13.446   2.029  0.00  0.00    -0.390 N 
HETATM    9  C   UNK N   1      26.765  12.175   1.804  0.00  0.00     0.149 C 
HETATM   10  C   UNK N   1      24.788  13.625   1.491  0.00  0.00     0.149 C 
ENDROOT
BRANCH   1  11
HETATM   11  C   UNK N   1      30.113  17.243   5.433  0.00  0.00    -0.024 A 
HETATM   12  C   UNK N   1      31.250  17.540   4.660  0.00  0.00     0.014 A 
HETATM   13  C   UNK N   1      32.540  17.411   5.182  0.00  0.00     0.030 A 
HETATM   14  C   UNK N   1      32.733  16.975   6.502  0.00  0.00     0.029 A 
HETATM   15  C   UNK N   1      31.614  16.635   7.268  0.00  0.00     0.030 A 
HETATM   16  C   UNK N   1      30.333  16.768   6.739  0.00  0.00     0.014 A 
BRANCH  14  17
HETATM   17  N   UNK N   1      34.042  16.912   7.067  0.00  0.00    -0.390 N 
HETATM   18  C   UNK N   1      34.888  15.767   6.840  0.00  0.00     0.149 C 
HETATM   19  C   UNK N   1      34.516  17.947   7.951  0.00  0.00     0.149 C 
ENDBRANCH  14  17
ENDBRANCH   1  11
BRANCH   1  20
HETATM   20  C   UNK N   1      28.016  18.831   5.220  0.00  0.00    -0.024 A 
HETATM   21  C   UNK N   1      27.804  19.220   6.558  0.00  0.00     0.012 A 
HETATM   22  C   UNK N   1      27.167  20.422   6.880  0.00  0.00     0.001 A 
HETATM   23  C   UNK N   1      26.729  21.271   5.867  0.00  0.00     0.000 A 
HETATM   24  C   UNK N   1      26.933  20.919   4.534  0.00  0.00     0.001 A 
HETATM   25  C   UNK N   1      27.569  19.716   4.219  0.00  0.00     0.012 A 
ENDBRANCH   1  20
TORSDOF 3
ENDMDL
MODEL 2
REMARK VINA RESULT:      -7.0     11.509     15.656
REMARK  3 active torsions:
REMARK  status: ('A' for Active; 'I' for Inactive)
REMARK    1  A    between atoms: N_2  and  C_4 
REMARK    2  A    between atoms: C_7  and  C_10 
REMARK    3  A    between atoms: C_10  and  C_11 
ROOT
HETATM    1  C   UNK N   1      35.371  11.765  16.637  0.00  0.00    -0.005 C 
HETATM    2  C   UNK N   1      35.104  11.055  17.804  0.00  0.00    -0.024 A 
HETATM    3  C   UNK N   1      35.287  11.635  19.167  0.00  0.00     0.014 A 
HETATM    4  C   UNK N   1      35.059  10.923  20.282  0.00  0.00     0.030 A 
HETATM    5  C   UNK N   1      34.605   9.507  20.207  0.00  0.00     0.029 A 
HETATM    6  C   UNK N   1      34.421   8.915  18.865  0.00  0.00     0.030 A 
HETATM    7  C   UNK N   1      34.652   9.633  17.764  0.00  0.00     0.014 A 
HETATM    8  N   UNK N   1      34.372   8.812  21.281  0.00  0.00    -0.390 N 
HETATM    9  C   UNK N   1      33.927   7.438  21.198  0.00  0.00     0.149 C 
HETATM   10  C   UNK N   1      34.544   9.382  22.595  0.00  0.00     0.149 C 
ENDROOT
BRANCH   1  11
HETATM   11  C   UNK N   1      35.165  11.099  15.271  0.00  0.00    -0.024 A 
HETATM   12  C   UNK N   1      36.196  10.362  14.660  0.00  0.00     0.014 A 
HETATM   13  C   UNK N   1      35.986   9.665  13.467  0.00  0.00     0.030 A 
HETATM   14  C   UNK N   1      34.730   9.685  12.843  0.00  0.00     0.029 A 
HETATM   15  C   UNK N   1      33.707  10.448  13.415  0.00  0.00     0.030 A 
HETATM   16  C   UNK N   1      33.926  11.138  14.604  0.00  0.00     0.014 A 
BRANCH  14  17
HETATM   17  N   UNK N   1      34.485   8.916  11.666  0.00  0.00    -0.390 N 
HETATM   18  C   UNK N   1      34.582   7.478  11.691  0.00  0.00     0.149 C 
HETATM   19  C   UNK N   1      34.223   9.561  10.404  0.00  0.00     0.149 C 
ENDBRANCH  14  17
ENDBRANCH   1  11
BRANCH   1  20
HETATM   20  C   UNK N   1      35.919  13.198  16.681  0.00  0.00    -0.024 A 
HETATM   21  C   UNK N   1      36.732  13.689  15.640  0.00  0.00     0.012 A 
HETATM   22  C   UNK N   1      37.256  14.985  15.668  0.00  0.00     0.001 A 
HETATM   23  C   UNK N   1      36.974  15.827  16.741  0.00  0.00     0.000 A 
HETATM   24  C   UNK N   1      36.164  15.374  17.780  0.00  0.00     0.001 A 
HETATM   25  C   UNK N   1      35.645  14.077  17.747  0.00  0.00     0.012 A 
ENDBRANCH   1  20
TORSDOF 3
ENDMDL
MODEL 3
REMARK VINA RESULT:      -7.0      8.801     13.246
REMARK  3 active torsions:
REMARK  status: ('A' for Active; 'I' for Inactive)
REMARK    1  A    between atoms: N_2  and  C_4 
REMARK    2  A    between atoms: C_7  and  C_10 
REMARK    3  A    between atoms: C_10  and  C_11 
ROOT
HETATM    1  C   UNK N   1      36.556  12.943  14.284  0.00  0.00    -0.005 C 
HETATM    2  C   UNK N   1      36.238  13.457  13.030  0.00  0.00    -0.024 A 
HETATM    3  C   UNK N   1      35.846  14.880  12.811  0.00  0.00     0.014 A 
HETATM    4  C   UNK N   1      35.509  15.350  11.600  0.00  0.00     0.030 A 
HETATM    5  C   UNK N   1      35.514  14.461  10.405  0.00  0.00     0.029 A 
HETATM    6  C   UNK N   1      35.897  13.047  10.604  0.00  0.00     0.030 A 
HETATM    7  C   UNK N   1      36.230  12.593  11.813  0.00  0.00     0.014 A 
HETATM    8  N   UNK N   1      35.198  14.909   9.226  0.00  0.00    -0.390 N 
HETATM    9  C   UNK N   1      35.210  14.038   8.071  0.00  0.00     0.149 C 
HETATM   10  C   UNK N   1      34.827  16.287   9.022  0.00  0.00     0.149 C 
ENDROOT
BRANCH   1  11
HETATM   11  C   UNK N   1      36.944  11.466  14.431  0.00  0.00    -0.024 A 
HETATM   12  C   UNK N   1      38.294  11.068  14.422  0.00  0.00     0.014 A 
HETATM   13  C   UNK N   1      38.663   9.740  14.659  0.00  0.00     0.030 A 
HETATM   14  C   UNK N   1      37.687   8.765  14.913  0.00  0.00     0.029 A 
HETATM   15  C   UNK N   1      36.340   9.138  14.882  0.00  0.00     0.030 A 
HETATM   16  C   UNK N   1      35.982  10.462  14.646  0.00  0.00     0.014 A 
BRANCH  14  17
HETATM   17  N   UNK N   1      38.058   7.424  15.230  0.00  0.00    -0.390 N 
HETATM   18  C   UNK N   1      37.290   6.309  14.732  0.00  0.00     0.149 C 
HETATM   19  C   UNK N   1      39.154   7.153  16.126  0.00  0.00     0.149 C 
ENDBRANCH  14  17
ENDBRANCH   1  11
BRANCH   1  20
HETATM   20  C   UNK N   1      36.480  13.812  15.547  0.00  0.00    -0.024 A 
HETATM   21  C   UNK N   1      35.591  13.488  16.591  0.00  0.00     0.012 A 
HETATM   22  C   UNK N   1      35.493  14.275  17.742  0.00  0.00     0.001 A 
HETATM   23  C   UNK N   1      36.290  15.409  17.879  0.00  0.00     0.000 A 
HETATM   24  C   UNK N   1      37.186  15.750  16.869  0.00  0.00     0.001 A 
HETATM   25  C   UNK N   1      37.278  14.960  15.720  0.00  0.00     0.012 A 
ENDBRANCH   1  20
TORSDOF 3
ENDMDL
MODEL 4
REMARK VINA RESULT:      -6.8      8.078     13.138
REMARK  3 active torsions:
REMARK  status: ('A' for Active; 'I' for Inactive)
REMARK    1  A    between atoms: N_2  and  C_4 
REMARK    2  A    between atoms: C_7  and  C_10 
REMARK    3  A    between atoms: C_10  and  C_11 
ROOT
HETATM    1  C   UNK N   1      36.351  13.104  13.893  0.00  0.00    -0.005 C 
HETATM    2  C   UNK N   1      36.990  11.886  13.676  0.00  0.00    -0.024 A 
HETATM    3  C   UNK N   1      37.610  11.088  14.774  0.00  0.00     0.014 A 
HETATM    4  C   UNK N   1      38.253   9.933  14.542  0.00  0.00     0.030 A 
HETATM    5  C   UNK N   1      38.374   9.388  13.161  0.00  0.00     0.029 A 
HETATM    6  C   UNK N   1      37.768  10.168  12.060  0.00  0.00     0.030 A 
HETATM    7  C   UNK N   1      37.132  11.315  12.305  0.00  0.00     0.014 A 
HETATM    8  N   UNK N   1      38.986   8.265  12.926  0.00  0.00    -0.390 N 
HETATM    9  C   UNK N   1      39.096   7.744  11.582  0.00  0.00     0.149 C 
HETATM   10  C   UNK N   1      39.577   7.497  13.994  0.00  0.00     0.149 C 
ENDROOT
BRANCH   1  11
HETATM   11  C   UNK N   1      35.742  13.871  12.712  0.00  0.00    -0.024 A 
HETATM   12  C   UNK N   1      36.127  15.195  12.432  0.00  0.00     0.014 A 
HETATM   13  C   UNK N   1      35.657  15.865  11.299  0.00  0.00     0.030 A 
HETATM   14  C   UNK N   1      34.782  15.228  10.407  0.00  0.00     0.029 A 
HETATM   15  C   UNK N   1      34.356  13.928  10.695  0.00  0.00     0.030 A 
HETATM   16  C   UNK N   1      34.830  13.268  11.826  0.00  0.00     0.014 A 
BRANCH  14  17
HETATM   17  N   UNK N   1      34.356  15.878   9.209  0.00  0.00    -0.390 N 
HETATM   18  C   UNK N   1      33.767  15.124   8.131  0.00  0.00     0.149 C 
HETATM   19  C   UNK N   1      34.587  17.287   9.012  0.00  0.00     0.149 C 
ENDBRANCH  14  17
ENDBRANCH   1  11
BRANCH   1  20
HETATM   20  C   UNK N   1      36.281  13.732  15.292  0.00  0.00    -0.024 A 
HETATM   21  C   UNK N   1      35.347  13.272  16.241  0.00  0.00     0.012 A 
HETATM   22  C   UNK N   1      35.254  13.841  17.515  0.00  0.00     0.001 A 
HETATM   23  C   UNK N   1      36.100  14.887  17.873  0.00  0.00     0.000 A 
HETATM   24  C   UNK N   1      37.041  15.358  16.960  0.00  0.00     0.001 A 
HETATM   25  C   UNK N   1      37.128  14.786  15.688  0.00  0.00     0.012 A 
ENDBRANCH   1  20
TORSDOF 3
ENDMDL
MODEL 5
REMARK VINA RESULT:      -6.7      9.764     14.170
REMARK  3 active torsions:
REMARK  status: ('A' for Active; 'I' for Inactive)
REMARK    1  A    between atoms: N_2  and  C_4 
REMARK    2  A    between atoms: C_7  and  C_10 
REMARK    3  A    between atoms: C_10  and  C_11 
ROOT
HETATM    1  C   UNK N   1      35.995  12.194  15.223  0.00  0.00    -0.005 C 
HETATM    2  C   UNK N   1      35.831  10.921  15.764  0.00  0.00    -0.024 A 
HETATM    3  C   UNK N   1      35.728  10.670  17.231  0.00  0.00     0.014 A 
HETATM    4  C   UNK N   1      35.607   9.433  17.737  0.00  0.00     0.030 A 
HETATM    5  C   UNK N   1      35.566   8.241  16.844  0.00  0.00     0.029 A 
HETATM    6  C   UNK N   1      35.670   8.472  15.386  0.00  0.00     0.030 A 
HETATM    7  C   UNK N   1      35.790   9.707  14.898  0.00  0.00     0.014 A 
HETATM    8  N   UNK N   1      35.439   7.039  17.322  0.00  0.00    -0.390 N 
HETATM    9  C   UNK N   1      35.397   5.889  16.446  0.00  0.00     0.149 C 
HETATM   10  C   UNK N   1      35.333   6.805  18.741  0.00  0.00     0.149 C 
ENDROOT
BRANCH   1  11
HETATM   11  C   UNK N   1      36.099  12.373  13.703  0.00  0.00    -0.024 A 
HETATM   12  C   UNK N   1      35.010  12.855  12.954  0.00  0.00     0.014 A 
HETATM   13  C   UNK N   1      35.127  13.120  11.586  0.00  0.00     0.030 A 
HETATM   14  C   UNK N   1      36.345  12.910  10.923  0.00  0.00     0.029 A 
HETATM   15  C   UNK N   1      37.424  12.391  11.645  0.00  0.00     0.030 A 
HETATM   16  C   UNK N   1      37.298  12.130  13.007  0.00  0.00     0.014 A 
BRANCH  14  17
HETATM   17  N   UNK N   1      36.495  13.249   9.544  0.00  0.00    -0.390 N 
HETATM   18  C   UNK N   1      35.527  12.814   8.568  0.00  0.00     0.149 C 
HETATM   19  C   UNK N   1      37.662  13.956   9.080  0.00  0.00     0.149 C 
ENDBRANCH  14  17
ENDBRANCH   1  11
BRANCH   1  20
HETATM   20  C   UNK N   1      36.123  13.433  16.119  0.00  0.00    -0.024 A 
HETATM   21  C   UNK N   1      37.041  14.455  15.807  0.00  0.00     0.012 A 
HETATM   22  C   UNK N   1      37.187  15.584  16.619  0.00  0.00     0.001 A 
HETATM   23  C   UNK N   1      36.410  15.721  17.767  0.00  0.00     0.000 A 
HETATM   24  C   UNK N   1      35.487  14.731  18.098  0.00  0.00     0.001 A 
HETATM   25  C   UNK N   1      35.347  13.605  17.283  0.00  0.00     0.012 A 
ENDBRANCH   1  20
TORSDOF 3
ENDMDL
MODEL 6
REMARK VINA RESULT:      -6.6     14.801     19.013
REMARK  3 active torsions:
REMARK  status: ('A' for Active; 'I' for Inactive)
REMARK    1  A    between atoms: N_2  and  C_4 
REMARK    2  A    between atoms: C_7  and  C_10 
REMARK    3  A    between atoms: C_10  and  C_11 
ROOT
HETATM    1  C   UNK N   1      35.114   9.913  20.131  0.00  0.00    -0.005 C 
HETATM    2  C   UNK N   1      36.018   9.868  21.189  0.00  0.00    -0.024 A 
HETATM    3  C   UNK N   1      35.786   9.058  22.421  0.00  0.00     0.014 A 
HETATM    4  C   UNK N   1      36.651   9.055  23.447  0.00  0.00     0.030 A 
HETATM    5  C   UNK N   1      37.898   9.867  23.399  0.00  0.00     0.029 A 
HETATM    6  C   UNK N   1      38.143  10.679  22.187  0.00  0.00     0.030 A 
HETATM    7  C   UNK N   1      37.274  10.673  21.175  0.00  0.00     0.014 A 
HETATM    8  N   UNK N   1      38.747   9.864  24.384  0.00  0.00    -0.390 N 
HETATM    9  C   UNK N   1      39.957  10.655  24.327  0.00  0.00     0.149 C 
HETATM   10  C   UNK N   1      38.519   9.073  25.568  0.00  0.00     0.149 C 
ENDROOT
BRANCH   1  11
HETATM   11  C   UNK N   1      35.420  10.774  18.899  0.00  0.00    -0.024 A 
HETATM   12  C   UNK N   1      35.989  10.210  17.743  0.00  0.00     0.014 A 
HETATM   13  C   UNK N   1      36.175  10.963  16.580  0.00  0.00     0.030 A 
HETATM   14  C   UNK N   1      35.795  12.312  16.538  0.00  0.00     0.029 A 
HETATM   15  C   UNK N   1      35.267  12.898  17.692  0.00  0.00     0.030 A 
HETATM   16  C   UNK N   1      35.086  12.140  18.846  0.00  0.00     0.014 A 
BRANCH  14  17
HETATM   17  N   UNK N   1      35.911  13.068  15.333  0.00  0.00    -0.390 N 
HETATM   18  C   UNK N   1      35.188  12.681  14.147  0.00  0.00     0.149 C 
HETATM   19  C   UNK N   1      36.821  14.182  15.244  0.00  0.00     0.149 C 
ENDBRANCH  14  17
ENDBRANCH   1  11
BRANCH   1  20
HETATM   20  C   UNK N   1      33.783   9.152  20.184  0.00  0.00    -0.024 A 
HETATM   21  C   UNK N   1      32.691   9.663  20.913  0.00  0.00     0.012 A 
HETATM   22  C   UNK N   1      31.474   8.979  20.990  0.00  0.00     0.001 A 
HETATM   23  C   UNK N   1      31.318   7.762  20.331  0.00  0.00     0.000 A 
HETATM   24  C   UNK N   1      32.376   7.234  19.594  0.00  0.00     0.001 A 
HETATM   25  C   UNK N   1      33.590   7.923  19.523  0.00  0.00     0.012 A 
ENDBRANCH   1  20
TORSDOF 3
ENDMDL
MODEL 7
REMARK VINA RESULT:      -6.6      1.514      6.804
REMARK  3 active torsions:
REMARK  status: ('A' for Active; 'I' for Inactive)
REMARK    1  A    between atoms: N_2  and  C_4 
REMARK    2  A    between atoms: C_7  and  C_10 
REMARK    3  A    between atoms: C_10  and  C_11 
ROOT
HETATM    1  C   UNK N   1      29.364  16.769   5.855  0.00  0.00    -0.005 C 
HETATM    2  C   UNK N   1      30.517  16.519   6.594  0.00  0.00    -0.024 A 
HETATM    3  C   UNK N   1      31.127  17.526   7.511  0.00  0.00     0.014 A 
HETATM    4  C   UNK N   1      32.259  17.282   8.189  0.00  0.00     0.030 A 
HETATM    5  C   UNK N   1      32.964  15.976   8.057  0.00  0.00     0.029 A 
HETATM    6  C   UNK N   1      32.375  14.967   7.149  0.00  0.00     0.030 A 
HETATM    7  C   UNK N   1      31.249  15.224   6.481  0.00  0.00     0.014 A 
HETATM    8  N   UNK N   1      34.056  15.725   8.716  0.00  0.00    -0.390 N 
HETATM    9  C   UNK N   1      34.731  14.453   8.583  0.00  0.00     0.149 C 
HETATM   10  C   UNK N   1      34.635  16.701   9.606  0.00  0.00     0.149 C 
ENDROOT
BRANCH   1  11
HETATM   11  C   UNK N   1      28.800  15.685   4.927  0.00  0.00    -0.024 A 
HETATM   12  C   UNK N   1      27.798  14.802   5.370  0.00  0.00     0.014 A 
HETATM   13  C   UNK N   1      27.203  13.881   4.502  0.00  0.00     0.030 A 
HETATM   14  C   UNK N   1      27.596  13.814   3.158  0.00  0.00     0.029 A 
HETATM   15  C   UNK N   1      28.621  14.655   2.714  0.00  0.00     0.030 A 
HETATM   16  C   UNK N   1      29.207  15.570   3.585  0.00  0.00     0.014 A 
BRANCH  14  17
HETATM   17  N   UNK N   1      26.943  12.929   2.247  0.00  0.00    -0.390 N 
HETATM   18  C   UNK N   1      25.526  13.037   2.003  0.00  0.00     0.149 C 
HETATM   19  C   UNK N   1      27.665  11.852   1.619  0.00  0.00     0.149 C 
ENDBRANCH  14  17
ENDBRANCH   1  11
BRANCH   1  20
HETATM   20  C   UNK N   1      28.661  18.132   5.906  0.00  0.00    -0.024 A 
HETATM   21  C   UNK N   1      28.500  18.903   4.738  0.00  0.00     0.012 A 
HETATM   22  C   UNK N   1      27.878  20.155   4.765  0.00  0.00     0.001 A 
HETATM   23  C   UNK N   1      27.395  20.666   5.967  0.00  0.00     0.000 A 
HETATM   24  C   UNK N   1      27.530  19.923   7.138  0.00  0.00     0.001 A 
HETATM   25  C   UNK N   1      28.154  18.673   7.104  0.00  0.00     0.012 A 
ENDBRANCH   1  20
TORSDOF 3
ENDMDL
MODEL 8
REMARK VINA RESULT:      -6.5      6.100      9.113
REMARK  3 active torsions:
REMARK  status: ('A' for Active; 'I' for Inactive)
REMARK    1  A    between atoms: N_2  and  C_4 
REMARK    2  A    between atoms: C_7  and  C_10 
REMARK    3  A    between atoms: C_10  and  C_11 
ROOT
HETATM    1  C   UNK N   1      35.052  15.018   9.074  0.00  0.00    -0.005 C 
HETATM    2  C   UNK N   1      35.823  14.514   8.029  0.00  0.00    -0.024 A 
HETATM    3  C   UNK N   1      35.605  14.896   6.603  0.00  0.00     0.014 A 
HETATM    4  C   UNK N   1      36.334  14.373   5.605  0.00  0.00     0.030 A 
HETATM    5  C   UNK N   1      37.408  13.379   5.880  0.00  0.00     0.029 A 
HETATM    6  C   UNK N   1      37.636  12.987   7.288  0.00  0.00     0.030 A 
HETATM    7  C   UNK N   1      36.903  13.514   8.271  0.00  0.00     0.014 A 
HETATM    8  N   UNK N   1      38.126  12.874   4.921  0.00  0.00    -0.390 N 
HETATM    9  C   UNK N   1      39.170  11.912   5.200  0.00  0.00     0.149 C 
HETATM   10  C   UNK N   1      37.914  13.253   3.547  0.00  0.00     0.149 C 
ENDROOT
BRANCH   1  11
HETATM   11  C   UNK N   1      35.332  14.573  10.516  0.00  0.00    -0.024 A 
HETATM   12  C   UNK N   1      36.020  15.412  11.412  0.00  0.00     0.014 A 
HETATM   13  C   UNK N   1      36.189  15.061  12.754  0.00  0.00     0.030 A 
HETATM   14  C   UNK N   1      35.672  13.852  13.244  0.00  0.00     0.029 A 
HETATM   15  C   UNK N   1      35.024  12.989  12.356  0.00  0.00     0.030 A 
HETATM   16  C   UNK N   1      34.860  13.347  11.020  0.00  0.00     0.014 A 
BRANCH  14  17
HETATM   17  N   UNK N   1      35.774  13.521  14.629  0.00  0.00    -0.390 N 
HETATM   18  C   UNK N   1      34.770  12.706  15.267  0.00  0.00     0.149 C 
HETATM   19  C   UNK N   1      36.832  14.064  15.442  0.00  0.00     0.149 C 
ENDBRANCH  14  17
ENDBRANCH   1  11
BRANCH   1  20
HETATM   20  C   UNK N   1      33.885  15.980   8.815  0.00  0.00    -0.024 A 
HETATM   21  C   UNK N   1      32.554  15.516   8.828  0.00  0.00     0.012 A 
HETATM   22  C   UNK N   1      31.477  16.372   8.577  0.00  0.00     0.001 A 
HETATM   23  C   UNK N   1      31.706  17.719   8.311  0.00  0.00     0.000 A 
HETATM   24  C   UNK N   1      33.010  18.210   8.301  0.00  0.00     0.001 A 
HETATM   25  C   UNK N   1      34.082  17.350   8.551  0.00  0.00     0.012 A 
ENDBRANCH   1  20
TORSDOF 3
ENDMDL
MODEL 9
REMARK VINA RESULT:      -6.5     12.742     15.510
REMARK  3 active torsions:
REMARK  status: ('A' for Active; 'I' for Inactive)
REMARK    1  A    between atoms: N_2  and  C_4 
REMARK    2  A    between atoms: C_7  and  C_10 
REMARK    3  A    between atoms: C_10  and  C_11 
ROOT
HETATM    1  C   UNK N   1      27.228  25.619  -6.249  0.00  0.00    -0.005 C 
HETATM    2  C   UNK N   1      28.086  24.658  -5.719  0.00  0.00    -0.024 A 
HETATM    3  C   UNK N   1      28.684  24.767  -4.356  0.00  0.00     0.014 A 
HETATM    4  C   UNK N   1      29.537  23.849  -3.876  0.00  0.00     0.030 A 
HETATM    5  C   UNK N   1      29.927  22.665  -4.692  0.00  0.00     0.029 A 
HETATM    6  C   UNK N   1      29.347  22.543  -6.046  0.00  0.00     0.030 A 
HETATM    7  C   UNK N   1      28.500  23.464  -6.511  0.00  0.00     0.014 A 
HETATM    8  N   UNK N   1      30.746  21.765  -4.232  0.00  0.00    -0.390 N 
HETATM    9  C   UNK N   1      31.116  20.618  -5.031  0.00  0.00     0.149 C 
HETATM   10  C   UNK N   1      31.313  21.873  -2.911  0.00  0.00     0.149 C 
ENDROOT
BRANCH   1  11
HETATM   11  C   UNK N   1      26.657  25.442  -7.661  0.00  0.00    -0.024 A 
HETATM   12  C   UNK N   1      27.176  26.168  -8.749  0.00  0.00     0.014 A 
HETATM   13  C   UNK N   1      26.735  25.938 -10.055  0.00  0.00     0.030 A 
HETATM   14  C   UNK N   1      25.754  24.969 -10.314  0.00  0.00     0.029 A 
HETATM   15  C   UNK N   1      25.198  24.270  -9.239  0.00  0.00     0.030 A 
HETATM   16  C   UNK N   1      25.644  24.506  -7.941  0.00  0.00     0.014 A 
BRANCH  14  17
HETATM   17  N   UNK N   1      25.352  24.675 -11.652  0.00  0.00    -0.390 N 
HETATM   18  C   UNK N   1      25.925  23.561 -12.366  0.00  0.00     0.149 C 
HETATM   19  C   UNK N   1      24.431  25.534 -12.352  0.00  0.00     0.149 C 
ENDBRANCH  14  17
ENDBRANCH   1  11
BRANCH   1  20
HETATM   20  C   UNK N   1      26.872  26.890  -5.466  0.00  0.00    -0.024 A 
HETATM   21  C   UNK N   1      27.504  28.116  -5.758  0.00  0.00     0.012 A 
HETATM   22  C   UNK N   1      27.207  29.282  -5.046  0.00  0.00     0.001 A 
HETATM   23  C   UNK N   1      26.263  29.252  -4.023  0.00  0.00     0.000 A 
HETATM   24  C   UNK N   1      25.613  28.057  -3.717  0.00  0.00     0.001 A 
HETATM   25  C   UNK N   1      25.916  26.895  -4.431  0.00  0.00     0.012 A 
ENDBRANCH   1  20
TORSDOF 3
ENDMDL
