MODEL 1
REMARK VINA RESULT:      -6.1      0.000      0.000
REMARK  9 active torsions:
REMARK  status: ('A' for Active; 'I' for Inactive)
REMARK    1  A    between atoms: C_4  and  C_1 
REMARK    2  A    between atoms: O_24  and  C_1 
REMARK    3  A    between atoms: C_6  and  O_19 
REMARK    4  A    between atoms: C_7  and  O_20 
REMARK    5  A    between atoms: N_11  and  C_8 
REMARK    6  A    between atoms: C_10  and  N_18 
REMARK    7  A    between atoms: P_26  and  O_21 
REMARK    8  A    between atoms: P_26  and  O_22 
REMARK    9  A    between atoms: P_26  and  O_24 
ROOT
HETATM    1  C   UNK N   1      33.509  14.857   6.726  0.00  0.00     0.180 C 
HETATM    2  C   UNK N   1      33.910  16.094   5.895  0.00  0.00     0.182 C 
HETATM    3  C   UNK N   1      32.603  16.856   5.824  0.00  0.00     0.198 C 
HETATM    4  C   UNK N   1      31.585  15.759   6.073  0.00  0.00     0.261 C 
HETATM    5  O   UNK N   1      32.169  15.045   7.131  0.00  0.00    -0.353 OA
ENDROOT
BRANCH   4   6
HETATM    6  N   UNK N   1      30.258  16.294   6.436  0.00  0.00    -0.307 N 
HETATM    7  C   UNK N   1      29.141  16.140   5.672  0.00  0.00     0.187 A 
HETATM    8  N   UNK N   1      28.050  16.703   6.251  0.00  0.00    -0.336 N 
HETATM    9  C   UNK N   1      28.508  17.201   7.408  0.00  0.00     0.138 A 
ATOM     10  HN  UNK N   1      27.098  16.739   5.887  1.00  0.00     0.168 HD
HETATM   11  C   UNK N   1      29.836  16.956   7.544  0.00  0.00     0.126 A 
HETATM   12  N   UNK N   1      27.775  17.843   8.346  0.00  0.00    -0.337 N 
HETATM   13  C   UNK N   1      30.483  17.376   8.720  0.00  0.00     0.131 A 
HETATM   14  N   UNK N   1      29.739  18.027   9.663  0.00  0.00    -0.337 N 
HETATM   15  C   UNK N   1      28.403  18.265   9.481  0.00  0.00     0.183 A 
ATOM     16  HN  UNK N   1      30.189  18.343  10.522  1.00  0.00     0.168 HD
ATOM     17  HN  UNK N   1      26.778  18.009   8.207  1.00  0.00     0.168 HD
BRANCH  13  18
HETATM   18  N   UNK N   1      31.846  17.131   8.970  0.00  0.00    -0.383 N 
HETATM   19  H   UNK N   1      32.189  16.302   9.374  0.00  0.00     0.157 HD
HETATM   20  H   UNK N   1      32.493  17.830   8.725  0.00  0.00     0.157 HD
ENDBRANCH  13  18
ENDBRANCH   4   6
BRANCH   3  21
HETATM   21  O   UNK N   1      32.432  17.520   4.607  0.00  0.00    -0.388 OA
HETATM   22  H   UNK N   1      31.726  17.313   3.974  0.00  0.00     0.210 HD
ENDBRANCH   3  21
BRANCH   2  23
HETATM   23  O   UNK N   1      34.885  16.891   6.510  0.00  0.00    -0.390 OA
HETATM   24  H   UNK N   1      35.764  16.856   6.916  0.00  0.00     0.210 HD
ENDBRANCH   2  23
BRANCH   1  25
HETATM   25  C   UNK N   1      34.429  14.611   7.920  0.00  0.00     0.215 C 
BRANCH  25  26
HETATM   26  O   UNK N   1      33.870  15.106   9.110  0.00  0.00    -0.294 OA
BRANCH  26  27
HETATM   27  P   UNK N   1      35.178  15.705  10.096  0.00  0.00     0.390 P 
HETATM   28  O   UNK N   1      34.905  16.971   9.235  0.00  0.00    -0.632 OA
BRANCH  27  29
HETATM   29  O   UNK N   1      34.905  16.932  11.296  0.00  0.00    -0.307 OA
HETATM   30  H   UNK N   1      34.989  16.786  12.251  0.00  0.00     0.222 HD
ENDBRANCH  27  29
BRANCH  27  31
HETATM   31  O   UNK N   1      33.767  15.381  11.056  0.00  0.00    -0.307 OA
HETATM   32  H   UNK N   1      32.958  15.899  10.926  0.00  0.00     0.222 HD
ENDBRANCH  27  31
ENDBRANCH  26  27
ENDBRANCH  25  26
ENDBRANCH   1  25
TORSDOF 9
ENDMDL
MODEL 2
REMARK VINA RESULT:      -6.0      5.960      8.146
REMARK  9 active torsions:
REMARK  status: ('A' for Active; 'I' for Inactive)
REMARK    1  A    between atoms: C_4  and  C_1 
REMARK    2  A    between atoms: O_24  and  C_1 
REMARK    3  A    between atoms: C_6  and  O_19 
REMARK    4  A    between atoms: C_7  and  O_20 
REMARK    5  A    between atoms: N_11  and  C_8 
REMARK    6  A    between atoms: C_10  and  N_18 
REMARK    7  A    between atoms: P_26  and  O_21 
REMARK    8  A    between atoms: P_26  and  O_22 
REMARK    9  A    between atoms: P_26  and  O_24 
ROOT
HETATM    1  C   UNK N   1      35.404  15.667  11.252  0.00  0.00     0.180 C 
HETATM    2  C   UNK N   1      36.683  14.979  10.732  0.00  0.00     0.182 C 
HETATM    3  C   UNK N   1      36.615  13.635  11.426  0.00  0.00     0.198 C 
HETATM    4  C   UNK N   1      35.718  13.937  12.612  0.00  0.00     0.261 C 
HETATM    5  O   UNK N   1      34.706  14.716  12.029  0.00  0.00    -0.353 OA
ENDROOT
BRANCH   4   6
HETATM    6  N   UNK N   1      35.179  12.713  13.238  0.00  0.00    -0.307 N 
HETATM    7  C   UNK N   1      34.532  11.731  12.552  0.00  0.00     0.187 A 
HETATM    8  N   UNK N   1      34.167  10.704  13.362  0.00  0.00    -0.336 N 
HETATM    9  C   UNK N   1      34.617  11.061  14.573  0.00  0.00     0.138 A 
ATOM     10  HN  UNK N   1      33.664   9.855  13.106  1.00  0.00     0.168 HD
HETATM   11  C   UNK N   1      35.239  12.266  14.519  0.00  0.00     0.126 A 
HETATM   12  N   UNK N   1      34.505  10.338  15.711  0.00  0.00    -0.337 N 
HETATM   13  C   UNK N   1      35.810  12.785  15.694  0.00  0.00     0.131 A 
HETATM   14  N   UNK N   1      35.693  12.053  16.841  0.00  0.00    -0.337 N 
HETATM   15  C   UNK N   1      35.044  10.847  16.857  0.00  0.00     0.183 A 
ATOM     16  HN  UNK N   1      36.096  12.413  17.706  1.00  0.00     0.168 HD
ATOM     17  HN  UNK N   1      34.029   9.436  15.713  1.00  0.00     0.168 HD
BRANCH  13  18
HETATM   18  N   UNK N   1      36.511  14.005  15.728  0.00  0.00    -0.383 N 
HETATM   19  H   UNK N   1      37.200  14.223  16.396  0.00  0.00     0.157 HD
HETATM   20  H   UNK N   1      36.300  14.678  15.043  0.00  0.00     0.157 HD
ENDBRANCH  13  18
ENDBRANCH   4   6
BRANCH   3  21
HETATM   21  O   UNK N   1      37.875  13.147  11.781  0.00  0.00    -0.388 OA
HETATM   22  H   UNK N   1      38.089  12.203  11.848  0.00  0.00     0.210 HD
ENDBRANCH   3  21
BRANCH   2  23
HETATM   23  O   UNK N   1      36.695  14.791   9.344  0.00  0.00    -0.390 OA
HETATM   24  H   UNK N   1      36.175  14.949   8.542  0.00  0.00     0.210 HD
ENDBRANCH   2  23
BRANCH   1  25
HETATM   25  C   UNK N   1      34.529  16.232  10.134  0.00  0.00     0.215 C 
BRANCH  25  26
HETATM   26  O   UNK N   1      35.100  17.382   9.566  0.00  0.00    -0.294 OA
BRANCH  26  27
HETATM   27  P   UNK N   1      34.019  17.943   8.318  0.00  0.00     0.390 P 
HETATM   28  O   UNK N   1      35.046  19.110   8.311  0.00  0.00    -0.632 OA
BRANCH  27  29
HETATM   29  O   UNK N   1      34.522  18.000   6.656  0.00  0.00    -0.307 OA
HETATM   30  H   UNK N   1      35.364  17.646   6.330  0.00  0.00     0.222 HD
ENDBRANCH  27  29
BRANCH  27  31
HETATM   31  O   UNK N   1      34.836  16.490   7.831  0.00  0.00    -0.307 OA
HETATM   32  H   UNK N   1      35.538  16.525   7.163  0.00  0.00     0.222 HD
ENDBRANCH  27  31
ENDBRANCH  26  27
ENDBRANCH  25  26
ENDBRANCH   1  25
TORSDOF 9
ENDMDL
MODEL 3
REMARK VINA RESULT:      -5.9      2.202      3.394
REMARK  9 active torsions:
REMARK  status: ('A' for Active; 'I' for Inactive)
REMARK    1  A    between atoms: C_4  and  C_1 
REMARK    2  A    between atoms: O_24  and  C_1 
REMARK    3  A    between atoms: C_6  and  O_19 
REMARK    4  A    between atoms: C_7  and  O_20 
REMARK    5  A    between atoms: N_11  and  C_8 
REMARK    6  A    between atoms: C_10  and  N_18 
REMARK    7  A    between atoms: P_26  and  O_21 
REMARK    8  A    between atoms: P_26  and  O_22 
REMARK    9  A    between atoms: P_26  and  O_24 
ROOT
HETATM    1  C   UNK N   1      35.144  15.470   9.024  0.00  0.00     0.180 C 
HETATM    2  C   UNK N   1      35.286  16.911   9.556  0.00  0.00     0.182 C 
HETATM    3  C   UNK N   1      34.392  17.681   8.606  0.00  0.00     0.198 C 
HETATM    4  C   UNK N   1      34.350  16.762   7.399  0.00  0.00     0.261 C 
HETATM    5  O   UNK N   1      34.182  15.500   7.991  0.00  0.00    -0.353 OA
ENDROOT
BRANCH   4   6
HETATM    6  N   UNK N   1      33.243  17.091   6.479  0.00  0.00    -0.307 N 
HETATM    7  C   UNK N   1      33.415  17.410   5.167  0.00  0.00     0.187 A 
HETATM    8  N   UNK N   1      32.231  17.639   4.542  0.00  0.00    -0.336 N 
HETATM    9  C   UNK N   1      31.310  17.439   5.494  0.00  0.00     0.138 A 
ATOM     10  HN  UNK N   1      32.080  17.904   3.569  1.00  0.00     0.168 HD
HETATM   11  C   UNK N   1      31.898  17.098   6.669  0.00  0.00     0.126 A 
HETATM   12  N   UNK N   1      29.969  17.532   5.339  0.00  0.00    -0.337 N 
HETATM   13  C   UNK N   1      31.081  16.812   7.776  0.00  0.00     0.131 A 
HETATM   14  N   UNK N   1      29.727  16.910   7.616  0.00  0.00    -0.337 N 
HETATM   15  C   UNK N   1      29.173  17.271   6.416  0.00  0.00     0.183 A 
ATOM     16  HN  UNK N   1      29.116  16.711   8.407  1.00  0.00     0.168 HD
ATOM     17  HN  UNK N   1      29.563  17.793   4.440  1.00  0.00     0.168 HD
BRANCH  13  18
HETATM   18  N   UNK N   1      31.596  16.410   9.022  0.00  0.00    -0.383 N 
HETATM   19  H   UNK N   1      32.502  16.047   9.150  0.00  0.00     0.157 HD
HETATM   20  H   UNK N   1      31.016  16.498   9.812  0.00  0.00     0.157 HD
ENDBRANCH  13  18
ENDBRANCH   4   6
BRANCH   3  21
HETATM   21  O   UNK N   1      34.879  18.960   8.325  0.00  0.00    -0.388 OA
HETATM   22  H   UNK N   1      34.338  19.764   8.371  0.00  0.00     0.210 HD
ENDBRANCH   3  21
BRANCH   2  23
HETATM   23  O   UNK N   1      34.824  17.072  10.869  0.00  0.00    -0.390 OA
HETATM   24  H   UNK N   1      34.287  16.646  11.554  0.00  0.00     0.210 HD
ENDBRANCH   2  23
BRANCH   1  25
HETATM   25  C   UNK N   1      34.773  14.462  10.110  0.00  0.00     0.215 C 
BRANCH  25  26
HETATM   26  O   UNK N   1      35.853  14.216  10.973  0.00  0.00    -0.294 OA
BRANCH  26  27
HETATM   27  P   UNK N   1      35.356  12.976  12.096  0.00  0.00     0.390 P 
HETATM   28  O   UNK N   1      36.568  13.557  12.876  0.00  0.00    -0.632 OA
BRANCH  27  29
HETATM   29  O   UNK N   1      34.660  13.388  13.634  0.00  0.00    -0.307 OA
HETATM   30  H   UNK N   1      34.498  12.750  14.345  0.00  0.00     0.222 HD
ENDBRANCH  27  29
BRANCH  27  31
HETATM   31  O   UNK N   1      34.148  14.217  11.958  0.00  0.00    -0.307 OA
HETATM   32  H   UNK N   1      33.536  14.222  11.205  0.00  0.00     0.222 HD
ENDBRANCH  27  31
ENDBRANCH  26  27
ENDBRANCH  25  26
ENDBRANCH   1  25
TORSDOF 9
ENDMDL
MODEL 4
REMARK VINA RESULT:      -5.8      3.813      6.520
REMARK  9 active torsions:
REMARK  status: ('A' for Active; 'I' for Inactive)
REMARK    1  A    between atoms: C_4  and  C_1 
REMARK    2  A    between atoms: O_24  and  C_1 
REMARK    3  A    between atoms: C_6  and  O_19 
REMARK    4  A    between atoms: C_7  and  O_20 
REMARK    5  A    between atoms: N_11  and  C_8 
REMARK    6  A    between atoms: C_10  and  N_18 
REMARK    7  A    between atoms: P_26  and  O_21 
REMARK    8  A    between atoms: P_26  and  O_22 
REMARK    9  A    between atoms: P_26  and  O_24 
ROOT
HETATM    1  C   UNK N   1      32.459  16.783   7.587  0.00  0.00     0.180 C 
HETATM    2  C   UNK N   1      33.367  17.958   7.168  0.00  0.00     0.182 C 
HETATM    3  C   UNK N   1      34.595  17.720   8.020  0.00  0.00     0.198 C 
HETATM    4  C   UNK N   1      34.036  16.877   9.152  0.00  0.00     0.261 C 
HETATM    5  O   UNK N   1      33.209  15.972   8.468  0.00  0.00    -0.353 OA
ENDROOT
BRANCH   4   6
HETATM    6  N   UNK N   1      35.093  16.187   9.917  0.00  0.00    -0.307 N 
HETATM    7  C   UNK N   1      35.372  16.442  11.225  0.00  0.00     0.187 A 
HETATM    8  N   UNK N   1      36.369  15.647  11.693  0.00  0.00    -0.336 N 
HETATM    9  C   UNK N   1      36.698  14.877  10.648  0.00  0.00     0.138 A 
ATOM     10  HN  UNK N   1      36.775  15.641  12.629  1.00  0.00     0.168 HD
HETATM   11  C   UNK N   1      35.933  15.179   9.568  0.00  0.00     0.126 A 
HETATM   12  N   UNK N   1      37.639  13.905  10.637  0.00  0.00    -0.337 N 
HETATM   13  C   UNK N   1      36.113  14.443   8.384  0.00  0.00     0.131 A 
HETATM   14  N   UNK N   1      37.067  13.464   8.377  0.00  0.00    -0.337 N 
HETATM   15  C   UNK N   1      37.827  13.199   9.485  0.00  0.00     0.183 A 
ATOM     16  HN  UNK N   1      37.217  12.920   7.528  1.00  0.00     0.168 HD
ATOM     17  HN  UNK N   1      38.196  13.707  11.469  1.00  0.00     0.168 HD
BRANCH  13  18
HETATM   18  N   UNK N   1      35.341  14.655   7.228  0.00  0.00    -0.383 N 
HETATM   19  H   UNK N   1      34.656  15.357   7.147  0.00  0.00     0.157 HD
HETATM   20  H   UNK N   1      35.495  14.067   6.455  0.00  0.00     0.157 HD
ENDBRANCH  13  18
ENDBRANCH   4   6
BRANCH   3  21
HETATM   21  O   UNK N   1      35.196  18.907   8.444  0.00  0.00    -0.388 OA
HETATM   22  H   UNK N   1      36.151  19.011   8.576  0.00  0.00     0.210 HD
ENDBRANCH   3  21
BRANCH   2  23
HETATM   23  O   UNK N   1      33.724  17.936   5.813  0.00  0.00    -0.390 OA
HETATM   24  H   UNK N   1      34.412  18.222   5.194  0.00  0.00     0.210 HD
ENDBRANCH   2  23
BRANCH   1  25
HETATM   25  C   UNK N   1      31.927  15.982   6.400  0.00  0.00     0.215 C 
BRANCH  25  26
HETATM   26  O   UNK N   1      32.877  15.058   5.936  0.00  0.00    -0.294 OA
BRANCH  26  27
HETATM   27  P   UNK N   1      32.709  14.957   4.203  0.00  0.00     0.390 P 
HETATM   28  O   UNK N   1      31.742  16.140   4.486  0.00  0.00    -0.632 OA
BRANCH  27  29
HETATM   29  O   UNK N   1      33.325  16.210   3.169  0.00  0.00    -0.307 OA
HETATM   30  H   UNK N   1      34.075  16.097   2.565  0.00  0.00     0.222 HD
ENDBRANCH  27  29
BRANCH  27  31
HETATM   31  O   UNK N   1      34.316  15.444   4.649  0.00  0.00    -0.307 OA
HETATM   32  H   UNK N   1      34.818  16.050   4.081  0.00  0.00     0.222 HD
ENDBRANCH  27  31
ENDBRANCH  26  27
ENDBRANCH  25  26
ENDBRANCH   1  25
TORSDOF 9
ENDMDL
MODEL 5
REMARK VINA RESULT:      -5.8      2.537      3.219
REMARK  9 active torsions:
REMARK  status: ('A' for Active; 'I' for Inactive)
REMARK    1  A    between atoms: C_4  and  C_1 
REMARK    2  A    between atoms: O_24  and  C_1 
REMARK    3  A    between atoms: C_6  and  O_19 
REMARK    4  A    between atoms: C_7  and  O_20 
REMARK    5  A    between atoms: N_11  and  C_8 
REMARK    6  A    between atoms: C_10  and  N_18 
REMARK    7  A    between atoms: P_26  and  O_21 
REMARK    8  A    between atoms: P_26  and  O_22 
REMARK    9  A    between atoms: P_26  and  O_24 
ROOT
HETATM    1  C   UNK N   1      31.017  16.315   8.020  0.00  0.00     0.180 C 
HETATM    2  C   UNK N   1      31.234  15.520   6.716  0.00  0.00     0.182 C 
HETATM    3  C   UNK N   1      30.441  16.338   5.719  0.00  0.00     0.198 C 
HETATM    4  C   UNK N   1      29.467  17.075   6.620  0.00  0.00     0.261 C 
HETATM    5  O   UNK N   1      30.291  17.479   7.682  0.00  0.00    -0.353 OA
ENDROOT
BRANCH   4   6
HETATM    6  N   UNK N   1      28.835  18.226   5.945  0.00  0.00    -0.307 N 
HETATM    7  C   UNK N   1      28.950  18.482   4.612  0.00  0.00     0.187 A 
HETATM    8  N   UNK N   1      28.247  19.584   4.246  0.00  0.00    -0.336 N 
HETATM    9  C   UNK N   1      27.675  20.006   5.382  0.00  0.00     0.138 A 
ATOM     10  HN  UNK N   1      28.173  19.998   3.317  1.00  0.00     0.168 HD
HETATM   11  C   UNK N   1      28.009  19.195   6.419  0.00  0.00     0.126 A 
HETATM   12  N   UNK N   1      26.854  21.073   5.515  0.00  0.00    -0.337 N 
HETATM   13  C   UNK N   1      27.468  19.462   7.688  0.00  0.00     0.131 A 
HETATM   14  N   UNK N   1      26.642  20.542   7.818  0.00  0.00    -0.337 N 
HETATM   15  C   UNK N   1      26.340  21.344   6.749  0.00  0.00     0.183 A 
ATOM     16  HN  UNK N   1      26.241  20.757   8.731  1.00  0.00     0.168 HD
ATOM     17  HN  UNK N   1      26.627  21.660   4.713  1.00  0.00     0.168 HD
BRANCH  13  18
HETATM   18  N   UNK N   1      27.723  18.655   8.812  0.00  0.00    -0.383 N 
HETATM   19  H   UNK N   1      28.221  18.959   9.604  0.00  0.00     0.157 HD
HETATM   20  H   UNK N   1      27.381  17.733   8.805  0.00  0.00     0.157 HD
ENDBRANCH  13  18
ENDBRANCH   4   6
BRANCH   3  21
HETATM   21  O   UNK N   1      29.823  15.550   4.745  0.00  0.00    -0.388 OA
HETATM   22  H   UNK N   1      28.965  15.113   4.869  0.00  0.00     0.210 HD
ENDBRANCH   3  21
BRANCH   2  23
HETATM   23  O   UNK N   1      32.574  15.459   6.312  0.00  0.00    -0.390 OA
HETATM   24  H   UNK N   1      33.346  16.012   6.120  0.00  0.00     0.210 HD
ENDBRANCH   2  23
BRANCH   1  25
HETATM   25  C   UNK N   1      32.320  16.655   8.741  0.00  0.00     0.215 C 
BRANCH  25  26
HETATM   26  O   UNK N   1      32.920  17.806   8.204  0.00  0.00    -0.294 OA
BRANCH  26  27
HETATM   27  P   UNK N   1      34.648  17.594   8.303  0.00  0.00     0.390 P 
HETATM   28  O   UNK N   1      34.583  19.145   8.241  0.00  0.00    -0.632 OA
BRANCH  27  29
HETATM   29  O   UNK N   1      35.529  18.069   9.722  0.00  0.00    -0.307 OA
HETATM   30  H   UNK N   1      35.720  18.989   9.961  0.00  0.00     0.222 HD
ENDBRANCH  27  29
BRANCH  27  31
HETATM   31  O   UNK N   1      33.868  17.070   9.764  0.00  0.00    -0.307 OA
HETATM   32  H   UNK N   1      34.381  16.964  10.580  0.00  0.00     0.222 HD
ENDBRANCH  27  31
ENDBRANCH  26  27
ENDBRANCH  25  26
ENDBRANCH   1  25
TORSDOF 9
ENDMDL
MODEL 6
REMARK VINA RESULT:      -5.8      2.356      3.454
REMARK  9 active torsions:
REMARK  status: ('A' for Active; 'I' for Inactive)
REMARK    1  A    between atoms: C_4  and  C_1 
REMARK    2  A    between atoms: O_24  and  C_1 
REMARK    3  A    between atoms: C_6  and  O_19 
REMARK    4  A    between atoms: C_7  and  O_20 
REMARK    5  A    between atoms: N_11  and  C_8 
REMARK    6  A    between atoms: C_10  and  N_18 
REMARK    7  A    between atoms: P_26  and  O_21 
REMARK    8  A    between atoms: P_26  and  O_22 
REMARK    9  A    between atoms: P_26  and  O_24 
ROOT
HETATM    1  C   UNK N   1      34.284  15.432   9.616  0.00  0.00     0.180 C 
HETATM    2  C   UNK N   1      34.936  16.763   9.187  0.00  0.00     0.182 C 
HETATM    3  C   UNK N   1      33.769  17.489   8.551  0.00  0.00     0.198 C 
HETATM    4  C   UNK N   1      32.846  16.341   8.184  0.00  0.00     0.261 C 
HETATM    5  O   UNK N   1      32.904  15.534   9.332  0.00  0.00    -0.353 OA
ENDROOT
BRANCH   4   6
HETATM    6  N   UNK N   1      31.470  16.793   7.898  0.00  0.00    -0.307 N 
HETATM    7  C   UNK N   1      30.516  16.976   8.852  0.00  0.00     0.187 A 
HETATM    8  N   UNK N   1      29.350  17.424   8.321  0.00  0.00    -0.336 N 
HETATM    9  C   UNK N   1      29.601  17.533   7.010  0.00  0.00     0.138 A 
ATOM     10  HN  UNK N   1      28.479  17.630   8.811  1.00  0.00     0.168 HD
HETATM   11  C   UNK N   1      30.879  17.166   6.733  0.00  0.00     0.126 A 
HETATM   12  N   UNK N   1      28.736  17.966   6.064  0.00  0.00    -0.337 N 
HETATM   13  C   UNK N   1      31.335  17.252   5.406  0.00  0.00     0.131 A 
HETATM   14  N   UNK N   1      30.457  17.687   4.454  0.00  0.00    -0.337 N 
HETATM   15  C   UNK N   1      29.171  18.035   4.772  0.00  0.00     0.183 A 
ATOM     16  HN  UNK N   1      30.765  17.753   3.484  1.00  0.00     0.168 HD
ATOM     17  HN  UNK N   1      27.783  18.232   6.310  1.00  0.00     0.168 HD
BRANCH  13  18
HETATM   18  N   UNK N   1      32.652  16.934   5.030  0.00  0.00    -0.383 N 
HETATM   19  H   UNK N   1      33.453  17.298   5.472  0.00  0.00     0.157 HD
HETATM   20  H   UNK N   1      32.781  16.309   4.280  0.00  0.00     0.157 HD
ENDBRANCH  13  18
ENDBRANCH   4   6
BRANCH   3  21
HETATM   21  O   UNK N   1      34.152  18.275   7.461  0.00  0.00    -0.388 OA
HETATM   22  H   UNK N   1      35.001  18.181   7.001  0.00  0.00     0.210 HD
ENDBRANCH   3  21
BRANCH   2  23
HETATM   23  O   UNK N   1      35.428  17.518  10.260  0.00  0.00    -0.390 OA
HETATM   24  H   UNK N   1      35.167  18.173  10.925  0.00  0.00     0.210 HD
ENDBRANCH   2  23
BRANCH   1  25
HETATM   25  C   UNK N   1      34.532  15.086  11.083  0.00  0.00     0.215 C 
BRANCH  25  26
HETATM   26  O   UNK N   1      35.888  14.808  11.323  0.00  0.00    -0.294 OA
BRANCH  26  27
HETATM   27  P   UNK N   1      36.049  14.393  13.009  0.00  0.00     0.390 P 
HETATM   28  O   UNK N   1      34.717  13.657  12.690  0.00  0.00    -0.632 OA
BRANCH  27  29
HETATM   29  O   UNK N   1      36.386  12.761  13.501  0.00  0.00    -0.307 OA
HETATM   30  H   UNK N   1      36.133  12.389  14.360  0.00  0.00     0.222 HD
ENDBRANCH  27  29
BRANCH  27  31
HETATM   31  O   UNK N   1      37.314  13.672  12.063  0.00  0.00    -0.307 OA
HETATM   32  H   UNK N   1      37.186  13.514  11.115  0.00  0.00     0.222 HD
ENDBRANCH  27  31
ENDBRANCH  26  27
ENDBRANCH  25  26
ENDBRANCH   1  25
TORSDOF 9
ENDMDL
MODEL 7
REMARK VINA RESULT:      -5.8      4.314      6.425
REMARK  9 active torsions:
REMARK  status: ('A' for Active; 'I' for Inactive)
REMARK    1  A    between atoms: C_4  and  C_1 
REMARK    2  A    between atoms: O_24  and  C_1 
REMARK    3  A    between atoms: C_6  and  O_19 
REMARK    4  A    between atoms: C_7  and  O_20 
REMARK    5  A    between atoms: N_11  and  C_8 
REMARK    6  A    between atoms: C_10  and  N_18 
REMARK    7  A    between atoms: P_26  and  O_21 
REMARK    8  A    between atoms: P_26  and  O_22 
REMARK    9  A    between atoms: P_26  and  O_24 
ROOT
HETATM    1  C   UNK N   1      35.384  12.175  12.362  0.00  0.00     0.180 C 
HETATM    2  C   UNK N   1      36.874  12.532  12.182  0.00  0.00     0.182 C 
HETATM    3  C   UNK N   1      36.789  13.857  11.455  0.00  0.00     0.198 C 
HETATM    4  C   UNK N   1      35.407  13.787  10.832  0.00  0.00     0.261 C 
HETATM    5  O   UNK N   1      34.633  13.270  11.882  0.00  0.00    -0.353 OA
ENDROOT
BRANCH   4   6
HETATM    6  N   UNK N   1      34.922  15.108  10.387  0.00  0.00    -0.307 N 
HETATM    7  C   UNK N   1      35.581  16.277  10.619  0.00  0.00     0.187 A 
HETATM    8  N   UNK N   1      34.931  17.340  10.077  0.00  0.00    -0.336 N 
HETATM    9  C   UNK N   1      33.855  16.805   9.486  0.00  0.00     0.138 A 
ATOM     10  HN  UNK N   1      35.202  18.322  10.114  1.00  0.00     0.168 HD
HETATM   11  C   UNK N   1      33.834  15.458   9.652  0.00  0.00     0.126 A 
HETATM   12  N   UNK N   1      32.909  17.477   8.791  0.00  0.00    -0.337 N 
HETATM   13  C   UNK N   1      32.792  14.720   9.065  0.00  0.00     0.131 A 
HETATM   14  N   UNK N   1      31.838  15.403   8.366  0.00  0.00    -0.337 N 
HETATM   15  C   UNK N   1      31.887  16.765   8.232  0.00  0.00     0.183 A 
ATOM     16  HN  UNK N   1      31.071  14.888   7.935  1.00  0.00     0.168 HD
ATOM     17  HN  UNK N   1      32.958  18.491   8.688  1.00  0.00     0.168 HD
BRANCH  13  18
HETATM   18  N   UNK N   1      32.708  13.318   9.147  0.00  0.00    -0.383 N 
HETATM   19  H   UNK N   1      32.048  12.839   9.699  0.00  0.00     0.157 HD
HETATM   20  H   UNK N   1      33.347  12.785   8.622  0.00  0.00     0.157 HD
ENDBRANCH  13  18
ENDBRANCH   4   6
BRANCH   3  21
HETATM   21  O   UNK N   1      37.819  14.030  10.527  0.00  0.00    -0.388 OA
HETATM   22  H   UNK N   1      38.161  14.896  10.256  0.00  0.00     0.210 HD
ENDBRANCH   3  21
BRANCH   2  23
HETATM   23  O   UNK N   1      37.560  12.703  13.392  0.00  0.00    -0.390 OA
HETATM   24  H   UNK N   1      37.877  13.382  14.007  0.00  0.00     0.210 HD
ENDBRANCH   2  23
BRANCH   1  25
HETATM   25  C   UNK N   1      35.018  11.830  13.805  0.00  0.00     0.215 C 
BRANCH  25  26
HETATM   26  O   UNK N   1      34.843  12.988  14.580  0.00  0.00    -0.294 OA
BRANCH  26  27
HETATM   27  P   UNK N   1      35.382  12.623  16.198  0.00  0.00     0.390 P 
HETATM   28  O   UNK N   1      36.422  13.714  15.821  0.00  0.00    -0.632 OA
BRANCH  27  29
HETATM   29  O   UNK N   1      35.206  13.779  17.483  0.00  0.00    -0.307 OA
HETATM   30  H   UNK N   1      35.844  14.484  17.673  0.00  0.00     0.222 HD
ENDBRANCH  27  29
BRANCH  27  31
HETATM   31  O   UNK N   1      33.805  13.351  16.213  0.00  0.00    -0.307 OA
HETATM   32  H   UNK N   1      33.706  14.300  16.389  0.00  0.00     0.222 HD
ENDBRANCH  27  31
ENDBRANCH  26  27
ENDBRANCH  25  26
ENDBRANCH   1  25
TORSDOF 9
ENDMDL
MODEL 8
REMARK VINA RESULT:      -5.8      4.255      6.688
REMARK  9 active torsions:
REMARK  status: ('A' for Active; 'I' for Inactive)
REMARK    1  A    between atoms: C_4  and  C_1 
REMARK    2  A    between atoms: O_24  and  C_1 
REMARK    3  A    between atoms: C_6  and  O_19 
REMARK    4  A    between atoms: C_7  and  O_20 
REMARK    5  A    between atoms: N_11  and  C_8 
REMARK    6  A    between atoms: C_10  and  N_18 
REMARK    7  A    between atoms: P_26  and  O_21 
REMARK    8  A    between atoms: P_26  and  O_22 
REMARK    9  A    between atoms: P_26  and  O_24 
ROOT
HETATM    1  C   UNK N   1      28.630  17.285   7.371  0.00  0.00     0.180 C 
HETATM    2  C   UNK N   1      28.325  17.210   8.882  0.00  0.00     0.182 C 
HETATM    3  C   UNK N   1      29.716  17.228   9.480  0.00  0.00     0.198 C 
HETATM    4  C   UNK N   1      30.564  16.737   8.321  0.00  0.00     0.261 C 
HETATM    5  O   UNK N   1      30.027  17.448   7.237  0.00  0.00    -0.353 OA
ENDROOT
BRANCH   4   6
HETATM    6  N   UNK N   1      32.000  17.025   8.512  0.00  0.00    -0.307 N 
HETATM    7  C   UNK N   1      32.570  18.237   8.272  0.00  0.00     0.187 A 
HETATM    8  N   UNK N   1      33.897  18.238   8.557  0.00  0.00    -0.336 N 
HETATM    9  C   UNK N   1      34.143  16.996   8.997  0.00  0.00     0.138 A 
ATOM     10  HN  UNK N   1      34.558  19.008   8.457  1.00  0.00     0.168 HD
HETATM   11  C   UNK N   1      33.009  16.250   8.987  0.00  0.00     0.126 A 
HETATM   12  N   UNK N   1      35.336  16.521   9.422  0.00  0.00    -0.337 N 
HETATM   13  C   UNK N   1      33.068  14.925   9.453  0.00  0.00     0.131 A 
HETATM   14  N   UNK N   1      34.275  14.448   9.879  0.00  0.00    -0.337 N 
HETATM   15  C   UNK N   1      35.400  15.230   9.860  0.00  0.00     0.183 A 
ATOM     16  HN  UNK N   1      34.341  13.489  10.218  1.00  0.00     0.168 HD
ATOM     17  HN  UNK N   1      36.167  17.112   9.414  1.00  0.00     0.168 HD
BRANCH  13  18
HETATM   18  N   UNK N   1      31.939  14.088   9.520  0.00  0.00    -0.383 N 
HETATM   19  H   UNK N   1      31.051  14.388   9.822  0.00  0.00     0.157 HD
HETATM   20  H   UNK N   1      32.043  13.149   9.248  0.00  0.00     0.157 HD
ENDBRANCH  13  18
ENDBRANCH   4   6
BRANCH   3  21
HETATM   21  O   UNK N   1      29.819  16.440  10.629  0.00  0.00    -0.388 OA
HETATM   22  H   UNK N   1      30.570  15.854  10.816  0.00  0.00     0.210 HD
ENDBRANCH   3  21
BRANCH   2  23
HETATM   23  O   UNK N   1      27.594  18.304   9.362  0.00  0.00    -0.390 OA
HETATM   24  H   UNK N   1      26.751  18.771   9.258  0.00  0.00     0.210 HD
ENDBRANCH   2  23
BRANCH   1  25
HETATM   25  C   UNK N   1      27.863  18.395   6.658  0.00  0.00     0.215 C 
BRANCH  25  26
HETATM   26  O   UNK N   1      28.269  19.666   7.097  0.00  0.00    -0.294 OA
BRANCH  26  27
HETATM   27  P   UNK N   1      27.257  20.845   6.306  0.00  0.00     0.390 P 
HETATM   28  O   UNK N   1      27.124  19.673   5.294  0.00  0.00    -0.632 OA
BRANCH  27  29
HETATM   29  O   UNK N   1      25.537  20.623   6.202  0.00  0.00    -0.307 OA
HETATM   30  H   UNK N   1      24.885  21.302   6.436  0.00  0.00     0.222 HD
ENDBRANCH  27  29
BRANCH  27  31
HETATM   31  O   UNK N   1      26.568  20.343   7.820  0.00  0.00    -0.307 OA
HETATM   32  H   UNK N   1      25.652  20.576   8.041  0.00  0.00     0.222 HD
ENDBRANCH  27  31
ENDBRANCH  26  27
ENDBRANCH  25  26
ENDBRANCH   1  25
TORSDOF 9
ENDMDL
MODEL 9
REMARK VINA RESULT:      -5.8      1.520      2.537
REMARK  9 active torsions:
REMARK  status: ('A' for Active; 'I' for Inactive)
REMARK    1  A    between atoms: C_4  and  C_1 
REMARK    2  A    between atoms: O_24  and  C_1 
REMARK    3  A    between atoms: C_6  and  O_19 
REMARK    4  A    between atoms: C_7  and  O_20 
REMARK    5  A    between atoms: N_11  and  C_8 
REMARK    6  A    between atoms: C_10  and  N_18 
REMARK    7  A    between atoms: P_26  and  O_21 
REMARK    8  A    between atoms: P_26  and  O_22 
REMARK    9  A    between atoms: P_26  and  O_24 
ROOT
HETATM    1  C   UNK N   1      33.103  15.251   7.743  0.00  0.00     0.180 C 
HETATM    2  C   UNK N   1      33.620  16.124   6.581  0.00  0.00     0.182 C 
HETATM    3  C   UNK N   1      32.505  17.138   6.435  0.00  0.00     0.198 C 
HETATM    4  C   UNK N   1      31.331  16.408   7.062  0.00  0.00     0.261 C 
HETATM    5  O   UNK N   1      31.910  15.845   8.210  0.00  0.00    -0.353 OA
ENDROOT
BRANCH   4   6
HETATM    6  N   UNK N   1      30.216  17.316   7.396  0.00  0.00    -0.307 N 
HETATM    7  C   UNK N   1      30.069  17.927   8.603  0.00  0.00     0.187 A 
HETATM    8  N   UNK N   1      28.975  18.731   8.634  0.00  0.00    -0.336 N 
HETATM    9  C   UNK N   1      28.448  18.620   7.407  0.00  0.00     0.138 A 
ATOM     10  HN  UNK N   1      28.633  19.291   9.414  1.00  0.00     0.168 HD
HETATM   11  C   UNK N   1      29.186  17.778   6.640  0.00  0.00     0.126 A 
HETATM   12  N   UNK N   1      27.346  19.260   6.951  0.00  0.00    -0.337 N 
HETATM   13  C   UNK N   1      28.802  17.568   5.304  0.00  0.00     0.131 A 
HETATM   14  N   UNK N   1      27.688  18.214   4.849  0.00  0.00    -0.337 N 
HETATM   15  C   UNK N   1      26.962  19.046   5.659  0.00  0.00     0.183 A 
ATOM     16  HN  UNK N   1      27.390  18.073   3.884  1.00  0.00     0.168 HD
ATOM     17  HN  UNK N   1      26.816  19.885   7.558  1.00  0.00     0.168 HD
BRANCH  13  18
HETATM   18  N   UNK N   1      29.527  16.747   4.422  0.00  0.00    -0.383 N 
HETATM   19  H   UNK N   1      29.475  16.815   3.441  0.00  0.00     0.157 HD
HETATM   20  H   UNK N   1      30.123  16.066   4.807  0.00  0.00     0.157 HD
ENDBRANCH  13  18
ENDBRANCH   4   6
BRANCH   3  21
HETATM   21  O   UNK N   1      32.291  17.517   5.108  0.00  0.00    -0.388 OA
HETATM   22  H   UNK N   1      32.980  17.889   4.535  0.00  0.00     0.210 HD
ENDBRANCH   3  21
BRANCH   2  23
HETATM   23  O   UNK N   1      34.821  16.786   6.867  0.00  0.00    -0.390 OA
HETATM   24  H   UNK N   1      35.691  16.999   6.494  0.00  0.00     0.210 HD
ENDBRANCH   2  23
BRANCH   1  25
HETATM   25  C   UNK N   1      34.124  15.081   8.867  0.00  0.00     0.215 C 
BRANCH  25  26
HETATM   26  O   UNK N   1      34.195  16.228   9.674  0.00  0.00    -0.294 OA
BRANCH  26  27
HETATM   27  P   UNK N   1      35.293  15.881  10.984  0.00  0.00     0.390 P 
HETATM   28  O   UNK N   1      35.748  14.791   9.973  0.00  0.00    -0.632 OA
BRANCH  27  29
HETATM   29  O   UNK N   1      36.997  16.188  10.831  0.00  0.00    -0.307 OA
HETATM   30  H   UNK N   1      37.563  16.485  11.559  0.00  0.00     0.222 HD
ENDBRANCH  27  29
BRANCH  27  31
HETATM   31  O   UNK N   1      35.618  17.440  10.292  0.00  0.00    -0.307 OA
HETATM   32  H   UNK N   1      36.473  17.619   9.869  0.00  0.00     0.222 HD
ENDBRANCH  27  31
ENDBRANCH  26  27
ENDBRANCH  25  26
ENDBRANCH   1  25
TORSDOF 9
ENDMDL
