REMARK  9 active torsions:
REMARK  status: ('A' for Active; 'I' for Inactive)
REMARK    1  A    between atoms: C_4  and  C_1 
REMARK    2  A    between atoms: O_24  and  C_1 
REMARK    3  A    between atoms: C_6  and  O_19 
REMARK    4  A    between atoms: C_7  and  O_20 
REMARK    5  A    between atoms: N_11  and  C_8 
REMARK    6  A    between atoms: C_10  and  N_18 
REMARK    7  A    between atoms: P_26  and  O_21 
REMARK    8  A    between atoms: P_26  and  O_22 
REMARK    9  A    between atoms: P_26  and  O_24 
ROOT
HETATM    1  C   UNK N   1       0.311   5.187  -0.564  0.00  0.00     0.180 C 
HETATM    2  C   UNK N   1      -1.165   4.816  -0.310  0.00  0.00     0.182 C 
HETATM    3  C   UNK N   1      -1.060   3.344   0.030  0.00  0.00     0.198 C 
HETATM    4  C   UNK N   1       0.261   2.965  -0.614  0.00  0.00     0.261 C 
HETATM    5  O   UNK N   1       1.085   4.045  -0.261  0.00  0.00    -0.353 OA
ENDROOT
BRANCH   4   6
HETATM    6  N   UNK N   1       0.787   1.682  -0.108  0.00  0.00    -0.307 N 
HETATM    7  C   UNK N   1       0.010   0.599   0.170  0.00  0.00     0.187 A 
HETATM    8  N   UNK N   1       0.749  -0.459   0.592  0.00  0.00    -0.336 N 
HETATM    9  C   UNK N   1       2.013  -0.016   0.557  0.00  0.00     0.138 A 
ATOM     10  HN  UNK N   1       0.416  -1.381   0.873  1.00  0.00     0.168 HD
HETATM   11  C   UNK N   1       2.060   1.271   0.128  0.00  0.00     0.126 A 
HETATM   12  N   UNK N   1       3.118  -0.729   0.875  0.00  0.00    -0.337 N 
HETATM   13  C   UNK N   1       3.313   1.893  -0.008  0.00  0.00     0.131 A 
HETATM   14  N   UNK N   1       4.426   1.170   0.317  0.00  0.00    -0.337 N 
HETATM   15  C   UNK N   1       4.335  -0.123   0.759  0.00  0.00     0.183 A 
ATOM     16  HN  UNK N   1       5.345   1.603   0.229  1.00  0.00     0.168 HD
ATOM     17  HN  UNK N   1       3.043  -1.695   1.195  1.00  0.00     0.168 HD
BRANCH  13  18
HETATM   18  N   UNK N   1       3.465   3.208  -0.484  0.00  0.00    -0.383 N 
HETATM   19  H   UNK N   1       4.315   3.576  -0.818  0.00  0.00     0.157 HD
HETATM   20  H   UNK N   1       2.675   3.794  -0.484  0.00  0.00     0.157 HD
ENDBRANCH  13  18
ENDBRANCH   4   6
BRANCH   3  21
HETATM   21  O   UNK N   1      -2.149   2.604  -0.437  0.00  0.00    -0.388 OA
HETATM   22  H   UNK N   1      -2.972   3.002  -0.761  0.00  0.00     0.210 HD
ENDBRANCH   3  21
BRANCH   2  23
HETATM   23  O   UNK N   1      -1.740   5.506   0.765  0.00  0.00    -0.390 OA
HETATM   24  H   UNK N   1      -1.525   6.089   1.509  0.00  0.00     0.210 HD
ENDBRANCH   2  23
BRANCH   1  25
HETATM   25  C   UNK N   1       0.770   6.406   0.234  0.00  0.00     0.215 C 
BRANCH  25  26
HETATM   26  O   UNK N   1       2.163   6.408   0.413  0.00  0.00    -0.294 OA
BRANCH  26  27
HETATM   27  P   UNK N   1       2.771   7.918  -0.213  0.00  0.00     0.390 P 
HETATM   28  O   UNK N   1       2.364   8.378   1.215  0.00  0.00    -0.632 OA
BRANCH  27  29
HETATM   29  O   UNK N   1       4.241   8.614   0.398  0.00  0.00    -0.307 OA
HETATM   30  H   UNK N   1       4.987   8.097   0.739  0.00  0.00     0.222 HD
ENDBRANCH  27  29
BRANCH  27  31
HETATM   31  O   UNK N   1       4.042   6.743  -0.069  0.00  0.00    -0.307 OA
HETATM   32  H   UNK N   1       3.829   5.800   0.012  0.00  0.00     0.222 HD
ENDBRANCH  27  31
ENDBRANCH  26  27
ENDBRANCH  25  26
ENDBRANCH   1  25
TORSDOF 9
