REMARK  14 active torsions:
REMARK  status: ('A' for Active; 'I' for Inactive)
REMARK    1  A    between atoms: C_2  and  C_4 
REMARK    2  A    between atoms: C_2  and  C_10 
REMARK    3  A    between atoms: C_4  and  O_5 
REMARK    4  A    between atoms: O_5  and  P_6 
REMARK    5  A    between atoms: P_6  and  O_7 
REMARK    6  A    between atoms: P_6  and  O_8 
REMARK    7  A    between atoms: C_10  and  O_11 
REMARK    8  A    between atoms: C_10  and  C_12 
REMARK       I    between atoms: C_12  and  N_14 
REMARK    9  A    between atoms: N_14  and  C_15 
REMARK   10  A    between atoms: C_15  and  C_16 
REMARK   11  A    between atoms: C_16  and  C_17 
REMARK       I    between atoms: C_17  and  N_19 
REMARK   12  A    between atoms: N_19  and  C_20 
REMARK   13  A    between atoms: C_20  and  C_21 
REMARK   14  A    between atoms: C_21  and  S_22 
ROOT
HETATM    1  C   UNK N   1      10.491   1.791  -0.312  0.00  0.00     0.219 C 
ENDROOT
BRANCH   1   2
HETATM    2  C   UNK N   1       9.431   2.513   0.550  0.00  0.00     0.009 C 
HETATM    3  C   UNK N   1       8.532   1.478   1.207  0.00  0.00     0.020 C 
HETATM    4  C   UNK N   1      10.105   3.341   1.638  0.00  0.00     0.020 C 
BRANCH   2   5
HETATM    5  C   UNK N   1       8.590   3.389  -0.379  0.00  0.00     0.192 C 
BRANCH   5   6
HETATM    6  O   UNK N   1       7.732   4.323   0.241  0.00  0.00    -0.296 OA
BRANCH   6   7
HETATM    7  P   UNK N   1       6.156   3.633   0.646  0.00  0.00     0.390 P 
HETATM    8  O   UNK N   1       5.972   5.172   0.739  0.00  0.00    -0.632 OA
BRANCH   7   9
HETATM    9  O   UNK N   1       4.674   4.065  -0.146  0.00  0.00    -0.307 OA
HETATM   10  H   UNK N   1       4.469   4.903  -0.589  0.00  0.00     0.222 HD
ENDBRANCH   7   9
BRANCH   7  11
HETATM   11  O   UNK N   1       6.172   3.177  -1.036  0.00  0.00    -0.307 OA
HETATM   12  H   UNK N   1       5.957   3.043  -1.972  0.00  0.00     0.222 HD
ENDBRANCH   7  11
ENDBRANCH   6   7
ENDBRANCH   5   6
ENDBRANCH   2   5
ENDBRANCH   1   2
BRANCH   1  13
HETATM   13  O   UNK N   1      11.160   0.815   0.430  0.00  0.00    -0.385 OA
HETATM   14  H   UNK N   1      10.805   0.073   0.946  0.00  0.00     0.210 HD
ENDBRANCH   1  13
BRANCH   1  15
HETATM   15  C   UNK N   1      11.433   2.751  -1.047  0.00  0.00     0.247 C 
HETATM   16  O   UNK N   1      10.965   3.477  -1.904  0.00  0.00    -0.271 OA
HETATM   17  N   UNK N   1      12.768   2.834  -0.793  0.00  0.00    -0.358 N 
HETATM   18  H   UNK N   1      13.292   3.464  -1.338  0.00  0.00     0.162 HD
BRANCH  17  19
HETATM   19  C   UNK N   1      13.476   2.077   0.208  0.00  0.00     0.132 C 
BRANCH  19  20
HETATM   20  C   UNK N   1      14.204   3.006   1.173  0.00  0.00     0.122 C 
BRANCH  20  21
HETATM   21  C   UNK N   1      15.109   3.947   0.440  0.00  0.00     0.219 C 
HETATM   22  O   UNK N   1      14.972   5.152   0.591  0.00  0.00    -0.274 OA
HETATM   23  N   UNK N   1      16.045   3.458  -0.408  0.00  0.00    -0.360 N 
HETATM   24  H   UNK N   1      16.139   2.482  -0.502  0.00  0.00     0.162 HD
BRANCH  23  25
HETATM   25  C   UNK N   1      16.909   4.320  -1.176  0.00  0.00     0.132 C 
BRANCH  25  26
HETATM   26  C   UNK N   1      18.358   3.920  -0.975  0.00  0.00     0.090 C 
BRANCH  26  27
HETATM   27  S   UNK N   1      18.957   4.514   0.632  0.00  0.00    -0.181 SA
HETATM   28  H   UNK N   1      19.568   4.348   1.836  0.00  0.00     0.101 HD
ENDBRANCH  26  27
ENDBRANCH  25  26
ENDBRANCH  23  25
ENDBRANCH  20  21
ENDBRANCH  19  20
ENDBRANCH  17  19
ENDBRANCH   1  15
TORSDOF 14
