MODEL 1
REMARK VINA RESULT:      -4.1      0.000      0.000
REMARK  4 active torsions:
REMARK  status: ('A' for Active; 'I' for Inactive)
REMARK    1  A    between atoms: C_2  and  C_4 
REMARK    2  A    between atoms: C_4  and  C_5 
REMARK    3  A    between atoms: C_5  and  C_6 
REMARK    4  A    between atoms: C_6  and  O_7 
ROOT
HETATM    1  C   UNK N   1      23.010  11.567  10.883  0.00  0.00     0.110 C 
ENDROOT
BRANCH   1   2
HETATM    2  C   UNK N   1      22.565  12.661   9.917  0.00  0.00     0.014 C 
BRANCH   2   3
HETATM    3  C   UNK N   1      21.160  13.184  10.200  0.00  0.00    -0.022 C 
HETATM    4  C   UNK N   1      20.297  12.425  11.187  0.00  0.00     0.009 C 
HETATM    5  C   UNK N   1      20.590  14.427   9.537  0.00  0.00     0.009 C 
ENDBRANCH   2   3
ENDBRANCH   1   2
BRANCH   1   6
HETATM    6  C   UNK N   1      23.997  12.072  11.897  0.00  0.00     0.139 C 
HETATM    7  O   UNK N   1      23.755  12.013  13.094  0.00  0.00    -0.650 OA
BRANCH   6   8
HETATM    8  O   UNK N   1      25.164  12.596  11.481  0.00  0.00    -0.776 OA
HETATM    9  H   UNK N   1      25.673  12.150  10.832  0.00  0.00     0.167 HD
ENDBRANCH   6   8
ENDBRANCH   1   6
TORSDOF 4
ENDMDL
MODEL 2
REMARK VINA RESULT:      -4.1      3.118      4.340
REMARK  4 active torsions:
REMARK  status: ('A' for Active; 'I' for Inactive)
REMARK    1  A    between atoms: C_2  and  C_4 
REMARK    2  A    between atoms: C_4  and  C_5 
REMARK    3  A    between atoms: C_5  and  C_6 
REMARK    4  A    between atoms: C_6  and  O_7 
ROOT
HETATM    1  C   UNK N   1      21.751  13.613   9.867  0.00  0.00     0.110 C 
ENDROOT
BRANCH   1   2
HETATM    2  C   UNK N   1      21.700  12.432  10.831  0.00  0.00     0.014 C 
BRANCH   2   3
HETATM    3  C   UNK N   1      23.036  12.143  11.508  0.00  0.00    -0.022 C 
HETATM    4  C   UNK N   1      24.288  12.151  10.655  0.00  0.00     0.009 C 
HETATM    5  C   UNK N   1      23.166  11.849  12.992  0.00  0.00     0.009 C 
ENDBRANCH   2   3
ENDBRANCH   1   2
BRANCH   1   6
HETATM    6  C   UNK N   1      20.408  13.914   9.265  0.00  0.00     0.139 C 
HETATM    7  O   UNK N   1      19.429  14.098   9.973  0.00  0.00    -0.650 OA
BRANCH   6   8
HETATM    8  O   UNK N   1      20.282  13.982   7.928  0.00  0.00    -0.776 OA
HETATM    9  H   UNK N   1      20.051  14.793   7.519  0.00  0.00     0.167 HD
ENDBRANCH   6   8
ENDBRANCH   1   6
TORSDOF 4
ENDMDL
MODEL 3
REMARK VINA RESULT:      -4.0     10.841     11.781
REMARK  4 active torsions:
REMARK  status: ('A' for Active; 'I' for Inactive)
REMARK    1  A    between atoms: C_2  and  C_4 
REMARK    2  A    between atoms: C_4  and  C_5 
REMARK    3  A    between atoms: C_5  and  C_6 
REMARK    4  A    between atoms: C_6  and  O_7 
ROOT
HETATM    1  C   UNK N   1      33.119  17.691   8.603  0.00  0.00     0.110 C 
ENDROOT
BRANCH   1   2
HETATM    2  C   UNK N   1      32.059  17.127   7.663  0.00  0.00     0.014 C 
BRANCH   2   3
HETATM    3  C   UNK N   1      30.649  17.620   7.974  0.00  0.00    -0.022 C 
HETATM    4  C   UNK N   1      29.510  17.133   7.103  0.00  0.00     0.009 C 
HETATM    5  C   UNK N   1      30.339  18.574   9.115  0.00  0.00     0.009 C 
ENDBRANCH   2   3
ENDBRANCH   1   2
BRANCH   1   6
HETATM    6  C   UNK N   1      34.283  18.283   7.859  0.00  0.00     0.139 C 
HETATM    7  O   UNK N   1      35.024  19.095   8.392  0.00  0.00    -0.650 OA
BRANCH   6   8
HETATM    8  O   UNK N   1      34.512  17.912   6.586  0.00  0.00    -0.776 OA
HETATM    9  H   UNK N   1      34.527  17.003   6.359  0.00  0.00     0.167 HD
ENDBRANCH   6   8
ENDBRANCH   1   6
TORSDOF 4
ENDMDL
MODEL 4
REMARK VINA RESULT:      -3.9     20.605     22.057
REMARK  4 active torsions:
REMARK  status: ('A' for Active; 'I' for Inactive)
REMARK    1  A    between atoms: C_2  and  C_4 
REMARK    2  A    between atoms: C_4  and  C_5 
REMARK    3  A    between atoms: C_5  and  C_6 
REMARK    4  A    between atoms: C_6  and  O_7 
ROOT
HETATM    1  C   UNK N   1      26.086  28.026  -5.232  0.00  0.00     0.110 C 
ENDROOT
BRANCH   1   2
HETATM    2  C   UNK N   1      24.981  27.084  -5.698  0.00  0.00     0.014 C 
BRANCH   2   3
HETATM    3  C   UNK N   1      25.490  25.703  -6.096  0.00  0.00    -0.022 C 
HETATM    4  C   UNK N   1      25.858  25.464  -7.546  0.00  0.00     0.009 C 
HETATM    5  C   UNK N   1      25.643  24.560  -5.107  0.00  0.00     0.009 C 
ENDBRANCH   2   3
ENDBRANCH   1   2
BRANCH   1   6
HETATM    6  C   UNK N   1      25.837  28.552  -3.846  0.00  0.00     0.139 C 
HETATM    7  O   UNK N   1      25.488  27.806  -2.943  0.00  0.00    -0.650 OA
BRANCH   6   8
HETATM    8  O   UNK N   1      26.002  29.863  -3.597  0.00  0.00    -0.776 OA
HETATM    9  H   UNK N   1      26.540  30.140  -2.881  0.00  0.00     0.167 HD
ENDBRANCH   6   8
ENDBRANCH   1   6
TORSDOF 4
ENDMDL
MODEL 5
REMARK VINA RESULT:      -3.9     13.597     14.614
REMARK  4 active torsions:
REMARK  status: ('A' for Active; 'I' for Inactive)
REMARK    1  A    between atoms: C_2  and  C_4 
REMARK    2  A    between atoms: C_4  and  C_5 
REMARK    3  A    between atoms: C_5  and  C_6 
REMARK    4  A    between atoms: C_6  and  O_7 
ROOT
HETATM    1  C   UNK N   1      35.942  12.757  15.075  0.00  0.00     0.110 C 
ENDROOT
BRANCH   1   2
HETATM    2  C   UNK N   1      34.750  12.978  16.001  0.00  0.00     0.014 C 
BRANCH   2   3
HETATM    3  C   UNK N   1      35.107  12.887  17.481  0.00  0.00    -0.022 C 
HETATM    4  C   UNK N   1      35.233  14.174  18.269  0.00  0.00     0.009 C 
HETATM    5  C   UNK N   1      35.341  11.568  18.196  0.00  0.00     0.009 C 
ENDBRANCH   2   3
ENDBRANCH   1   2
BRANCH   1   6
HETATM    6  C   UNK N   1      36.636  14.044  14.724  0.00  0.00     0.139 C 
HETATM    7  O   UNK N   1      36.316  14.679  13.730  0.00  0.00    -0.650 OA
BRANCH   6   8
HETATM    8  O   UNK N   1      37.622  14.501  15.516  0.00  0.00    -0.776 OA
HETATM    9  H   UNK N   1      37.416  14.909  16.333  0.00  0.00     0.167 HD
ENDBRANCH   6   8
ENDBRANCH   1   6
TORSDOF 4
ENDMDL
MODEL 6
REMARK VINA RESULT:      -3.8      1.059      2.054
REMARK  4 active torsions:
REMARK  status: ('A' for Active; 'I' for Inactive)
REMARK    1  A    between atoms: C_2  and  C_4 
REMARK    2  A    between atoms: C_4  and  C_5 
REMARK    3  A    between atoms: C_5  and  C_6 
REMARK    4  A    between atoms: C_6  and  O_7 
ROOT
HETATM    1  C   UNK N   1      23.367  11.666  10.004  0.00  0.00     0.110 C 
ENDROOT
BRANCH   1   2
HETATM    2  C   UNK N   1      22.330  12.473   9.228  0.00  0.00     0.014 C 
BRANCH   2   3
HETATM    3  C   UNK N   1      21.169  12.957  10.091  0.00  0.00    -0.022 C 
HETATM    4  C   UNK N   1      20.423  14.201   9.656  0.00  0.00     0.009 C 
HETATM    5  C   UNK N   1      20.730  12.249  11.361  0.00  0.00     0.009 C 
ENDBRANCH   2   3
ENDBRANCH   1   2
BRANCH   1   6
HETATM    6  C   UNK N   1      24.570  12.490  10.370  0.00  0.00     0.139 C 
HETATM    7  O   UNK N   1      25.068  13.266   9.568  0.00  0.00    -0.650 OA
BRANCH   6   8
HETATM    8  O   UNK N   1      25.106  12.368  11.597  0.00  0.00    -0.776 OA
HETATM    9  H   UNK N   1      24.969  13.039  12.237  0.00  0.00     0.167 HD
ENDBRANCH   6   8
ENDBRANCH   1   6
TORSDOF 4
ENDMDL
MODEL 7
REMARK VINA RESULT:      -3.8     11.695     12.666
REMARK  4 active torsions:
REMARK  status: ('A' for Active; 'I' for Inactive)
REMARK    1  A    between atoms: C_2  and  C_4 
REMARK    2  A    between atoms: C_4  and  C_5 
REMARK    3  A    between atoms: C_5  and  C_6 
REMARK    4  A    between atoms: C_6  and  O_7 
ROOT
HETATM    1  C   UNK N   1      34.078  17.619   7.023  0.00  0.00     0.110 C 
ENDROOT
BRANCH   1   2
HETATM    2  C   UNK N   1      32.603  17.231   7.010  0.00  0.00     0.014 C 
BRANCH   2   3
HETATM    3  C   UNK N   1      31.968  17.311   5.626  0.00  0.00    -0.022 C 
HETATM    4  C   UNK N   1      32.876  17.517   4.431  0.00  0.00     0.009 C 
HETATM    5  C   UNK N   1      30.471  17.195   5.394  0.00  0.00     0.009 C 
ENDBRANCH   2   3
ENDBRANCH   1   2
BRANCH   1   6
HETATM    6  C   UNK N   1      34.517  18.142   8.363  0.00  0.00     0.139 C 
HETATM    7  O   UNK N   1      35.219  19.139   8.450  0.00  0.00    -0.650 OA
BRANCH   6   8
HETATM    8  O   UNK N   1      34.130  17.503   9.481  0.00  0.00    -0.776 OA
HETATM    9  H   UNK N   1      33.219  17.386   9.663  0.00  0.00     0.167 HD
ENDBRANCH   6   8
ENDBRANCH   1   6
TORSDOF 4
ENDMDL
MODEL 8
REMARK VINA RESULT:      -3.7     10.790     11.572
REMARK  4 active torsions:
REMARK  status: ('A' for Active; 'I' for Inactive)
REMARK    1  A    between atoms: C_2  and  C_4 
REMARK    2  A    between atoms: C_4  and  C_5 
REMARK    3  A    between atoms: C_5  and  C_6 
REMARK    4  A    between atoms: C_6  and  O_7 
ROOT
HETATM    1  C   UNK N   1      25.072  19.951   4.079  0.00  0.00     0.110 C 
ENDROOT
BRANCH   1   2
HETATM    2  C   UNK N   1      26.589  20.114   4.069  0.00  0.00     0.014 C 
BRANCH   2   3
HETATM    3  C   UNK N   1      27.183  20.335   5.456  0.00  0.00    -0.022 C 
HETATM    4  C   UNK N   1      27.919  19.185   6.113  0.00  0.00     0.009 C 
HETATM    5  C   UNK N   1      27.071  21.652   6.205  0.00  0.00     0.009 C 
ENDBRANCH   2   3
ENDBRANCH   1   2
BRANCH   1   6
HETATM    6  C   UNK N   1      24.419  20.635   2.911  0.00  0.00     0.139 C 
HETATM    7  O   UNK N   1      23.310  21.136   3.015  0.00  0.00    -0.650 OA
BRANCH   6   8
HETATM    8  O   UNK N   1      25.067  20.696   1.734  0.00  0.00    -0.776 OA
HETATM    9  H   UNK N   1      25.663  21.397   1.563  0.00  0.00     0.167 HD
ENDBRANCH   6   8
ENDBRANCH   1   6
TORSDOF 4
ENDMDL
MODEL 9
REMARK VINA RESULT:      -3.6      9.317     10.415
REMARK  4 active torsions:
REMARK  status: ('A' for Active; 'I' for Inactive)
REMARK    1  A    between atoms: C_2  and  C_4 
REMARK    2  A    between atoms: C_4  and  C_5 
REMARK    3  A    between atoms: C_5  and  C_6 
REMARK    4  A    between atoms: C_6  and  O_7 
ROOT
HETATM    1  C   UNK N   1      29.394  18.069   7.863  0.00  0.00     0.110 C 
ENDROOT
BRANCH   1   2
HETATM    2  C   UNK N   1      30.436  16.956   7.907  0.00  0.00     0.014 C 
BRANCH   2   3
HETATM    3  C   UNK N   1      31.799  17.382   7.371  0.00  0.00    -0.022 C 
HETATM    4  C   UNK N   1      32.099  17.146   5.906  0.00  0.00     0.009 C 
HETATM    5  C   UNK N   1      32.865  18.029   8.239  0.00  0.00     0.009 C 
ENDBRANCH   2   3
ENDBRANCH   1   2
BRANCH   1   6
HETATM    6  C   UNK N   1      28.805  18.351   9.217  0.00  0.00     0.139 C 
HETATM    7  O   UNK N   1      29.511  18.712  10.146  0.00  0.00    -0.650 OA
BRANCH   6   8
HETATM    8  O   UNK N   1      27.482  18.204   9.406  0.00  0.00    -0.776 OA
HETATM    9  H   UNK N   1      26.876  18.673   8.868  0.00  0.00     0.167 HD
ENDBRANCH   6   8
ENDBRANCH   1   6
TORSDOF 4
ENDMDL
