MODEL 1
REMARK VINA RESULT:      -5.3      0.000      0.000
REMARK  9 active torsions:
REMARK  status: ('A' for Active; 'I' for Inactive)
REMARK    1  A    between atoms: C_2  and  N_1 
REMARK    2  A    between atoms: C_2  and  C_3 
REMARK    3  A    between atoms: C_2  and  C_11 
REMARK    4  A    between atoms: C_3  and  C_4 
REMARK    5  A    between atoms: C_4  and  C_5 
REMARK    6  A    between atoms: C_4  and  C_8 
REMARK    7  A    between atoms: C_5  and  O_6 
REMARK    8  A    between atoms: C_8  and  O_9 
REMARK    9  A    between atoms: C_11  and  O_12 
ROOT
HETATM    1  C   UNK N   1      34.670  15.934   8.963  0.00  0.00     0.061 C 
ENDROOT
BRANCH   1   2
HETATM    2  C   UNK N   1      34.051  17.325   9.097  0.00  0.00     0.174 C 
BRANCH   2   3
HETATM    3  N   UNK N   1      32.606  17.248   8.935  0.00  0.00    -0.418 N 
HETATM    4  H   UNK N   1      32.064  18.078   8.690  0.00  0.00     0.150 HD
HETATM    5  H   UNK N   1      32.130  16.356   9.068  0.00  0.00     0.150 HD
ENDBRANCH   2   3
BRANCH   2   6
HETATM    6  C   UNK N   1      34.630  18.288   8.102  0.00  0.00     0.163 C 
HETATM    7  O   UNK N   1      35.280  19.250   8.497  0.00  0.00    -0.648 OA
BRANCH   6   8
HETATM    8  O   UNK N   1      34.413  18.133   6.784  0.00  0.00    -0.775 OA
HETATM    9  H   UNK N   1      33.570  18.203   6.383  0.00  0.00     0.167 HD
ENDBRANCH   6   8
ENDBRANCH   2   6
ENDBRANCH   1   2
BRANCH   1  10
HETATM   10  C   UNK N   1      35.347  15.512  10.273  0.00  0.00     0.183 C 
BRANCH  10  11
HETATM   11  C   UNK N   1      36.603  14.716   9.971  0.00  0.00     0.154 C 
HETATM   12  O   UNK N   1      36.512  13.674   9.340  0.00  0.00    -0.649 OA
BRANCH  11  13
HETATM   13  O   UNK N   1      37.822  15.143  10.354  0.00  0.00    -0.776 OA
HETATM   14  H   UNK N   1      37.989  15.517  11.197  0.00  0.00     0.167 HD
ENDBRANCH  11  13
ENDBRANCH  10  11
BRANCH  10  15
HETATM   15  C   UNK N   1      34.364  14.860  11.232  0.00  0.00     0.154 C 
HETATM   16  O   UNK N   1      34.783  14.250  12.204  0.00  0.00    -0.649 OA
BRANCH  15  17
HETATM   17  O   UNK N   1      33.035  14.911  11.023  0.00  0.00    -0.776 OA
HETATM   18  H   UNK N   1      32.638  15.356  10.301  0.00  0.00     0.167 HD
ENDBRANCH  15  17
ENDBRANCH  10  15
ENDBRANCH   1  10
TORSDOF 9
ENDMDL
MODEL 2
REMARK VINA RESULT:      -5.2      1.852      4.665
REMARK  9 active torsions:
REMARK  status: ('A' for Active; 'I' for Inactive)
REMARK    1  A    between atoms: C_2  and  N_1 
REMARK    2  A    between atoms: C_2  and  C_3 
REMARK    3  A    between atoms: C_2  and  C_11 
REMARK    4  A    between atoms: C_3  and  C_4 
REMARK    5  A    between atoms: C_4  and  C_5 
REMARK    6  A    between atoms: C_4  and  C_8 
REMARK    7  A    between atoms: C_5  and  O_6 
REMARK    8  A    between atoms: C_8  and  O_9 
REMARK    9  A    between atoms: C_11  and  O_12 
ROOT
HETATM    1  C   UNK N   1      34.204  15.744   8.628  0.00  0.00     0.061 C 
ENDROOT
BRANCH   1   2
HETATM    2  C   UNK N   1      34.616  15.263  10.020  0.00  0.00     0.174 C 
BRANCH   2   3
HETATM    3  N   UNK N   1      33.436  15.035  10.842  0.00  0.00    -0.418 N 
HETATM    4  H   UNK N   1      33.213  14.100  11.185  0.00  0.00     0.150 HD
HETATM    5  H   UNK N   1      32.827  15.818  11.076  0.00  0.00     0.150 HD
ENDBRANCH   2   3
BRANCH   2   6
HETATM    6  C   UNK N   1      35.533  16.241  10.695  0.00  0.00     0.163 C 
HETATM    7  O   UNK N   1      36.747  16.122  10.566  0.00  0.00    -0.648 OA
BRANCH   6   8
HETATM    8  O   UNK N   1      35.044  17.223  11.473  0.00  0.00    -0.775 OA
HETATM    9  H   UNK N   1      34.167  17.546  11.413  0.00  0.00     0.167 HD
ENDBRANCH   6   8
ENDBRANCH   2   6
ENDBRANCH   1   2
BRANCH   1  10
HETATM   10  C   UNK N   1      33.605  17.154   8.697  0.00  0.00     0.183 C 
BRANCH  10  11
HETATM   11  C   UNK N   1      32.111  17.092   8.438  0.00  0.00     0.154 C 
HETATM   12  O   UNK N   1      31.672  17.505   7.374  0.00  0.00    -0.649 OA
BRANCH  11  13
HETATM   13  O   UNK N   1      31.257  16.565   9.336  0.00  0.00    -0.776 OA
HETATM   14  H   UNK N   1      30.359  16.827   9.399  0.00  0.00     0.167 HD
ENDBRANCH  11  13
ENDBRANCH  10  11
BRANCH  10  15
HETATM   15  C   UNK N   1      34.385  18.141   7.843  0.00  0.00     0.154 C 
HETATM   16  O   UNK N   1      34.993  19.054   8.379  0.00  0.00    -0.649 OA
BRANCH  15  17
HETATM   17  O   UNK N   1      34.400  18.054   6.500  0.00  0.00    -0.776 OA
HETATM   18  H   UNK N   1      33.739  17.618   5.998  0.00  0.00     0.167 HD
ENDBRANCH  15  17
ENDBRANCH  10  15
ENDBRANCH   1  10
TORSDOF 9
ENDMDL
MODEL 3
REMARK VINA RESULT:      -5.2      1.923      4.969
REMARK  9 active torsions:
REMARK  status: ('A' for Active; 'I' for Inactive)
REMARK    1  A    between atoms: C_2  and  N_1 
REMARK    2  A    between atoms: C_2  and  C_3 
REMARK    3  A    between atoms: C_2  and  C_11 
REMARK    4  A    between atoms: C_3  and  C_4 
REMARK    5  A    between atoms: C_4  and  C_5 
REMARK    6  A    between atoms: C_4  and  C_8 
REMARK    7  A    between atoms: C_5  and  O_6 
REMARK    8  A    between atoms: C_8  and  O_9 
REMARK    9  A    between atoms: C_11  and  O_12 
ROOT
HETATM    1  C   UNK N   1      34.886  16.081   9.215  0.00  0.00     0.061 C 
ENDROOT
BRANCH   1   2
HETATM    2  C   UNK N   1      35.297  16.010  10.686  0.00  0.00     0.174 C 
BRANCH   2   3
HETATM    3  N   UNK N   1      36.731  15.788  10.796  0.00  0.00    -0.418 N 
HETATM    4  H   UNK N   1      37.095  14.933  11.220  0.00  0.00     0.150 HD
HETATM    5  H   UNK N   1      37.379  16.493  10.447  0.00  0.00     0.150 HD
ENDBRANCH   2   3
BRANCH   2   6
HETATM    6  C   UNK N   1      34.551  14.932  11.418  0.00  0.00     0.163 C 
HETATM    7  O   UNK N   1      35.172  14.109  12.083  0.00  0.00    -0.648 OA
BRANCH   6   8
HETATM    8  O   UNK N   1      33.213  14.830  11.323  0.00  0.00    -0.775 OA
HETATM    9  H   UNK N   1      32.735  14.052  11.528  0.00  0.00     0.167 HD
ENDBRANCH   6   8
ENDBRANCH   2   6
ENDBRANCH   1   2
BRANCH   1  10
HETATM   10  C   UNK N   1      33.948  17.269   8.970  0.00  0.00     0.183 C 
BRANCH  10  11
HETATM   11  C   UNK N   1      32.581  16.767   8.545  0.00  0.00     0.154 C 
HETATM   12  O   UNK N   1      32.278  15.603   8.761  0.00  0.00    -0.649 OA
BRANCH  11  13
HETATM   13  O   UNK N   1      31.678  17.579   7.962  0.00  0.00    -0.776 OA
HETATM   14  H   UNK N   1      31.794  18.507   7.897  0.00  0.00     0.167 HD
ENDBRANCH  11  13
ENDBRANCH  10  11
BRANCH  10  15
HETATM   15  C   UNK N   1      34.583  18.311   8.063  0.00  0.00     0.154 C 
HETATM   16  O   UNK N   1      34.422  18.238   6.855  0.00  0.00    -0.649 OA
BRANCH  15  17
HETATM   17  O   UNK N   1      35.347  19.304   8.556  0.00  0.00    -0.776 OA
HETATM   18  H   UNK N   1      35.003  20.106   8.896  0.00  0.00     0.167 HD
ENDBRANCH  15  17
ENDBRANCH  10  15
ENDBRANCH   1  10
TORSDOF 9
ENDMDL
MODEL 4
REMARK VINA RESULT:      -5.1     15.700     16.647
REMARK  9 active torsions:
REMARK  status: ('A' for Active; 'I' for Inactive)
REMARK    1  A    between atoms: C_2  and  N_1 
REMARK    2  A    between atoms: C_2  and  C_3 
REMARK    3  A    between atoms: C_2  and  C_11 
REMARK    4  A    between atoms: C_3  and  C_4 
REMARK    5  A    between atoms: C_4  and  C_5 
REMARK    6  A    between atoms: C_4  and  C_8 
REMARK    7  A    between atoms: C_5  and  O_6 
REMARK    8  A    between atoms: C_8  and  O_9 
REMARK    9  A    between atoms: C_11  and  O_12 
ROOT
HETATM    1  C   UNK N   1      21.016  18.166   2.883  0.00  0.00     0.061 C 
ENDROOT
BRANCH   1   2
HETATM    2  C   UNK N   1      20.359  19.547   2.895  0.00  0.00     0.174 C 
BRANCH   2   3
HETATM    3  N   UNK N   1      19.001  19.460   2.377  0.00  0.00    -0.418 N 
HETATM    4  H   UNK N   1      18.769  18.804   1.631  0.00  0.00     0.150 HD
HETATM    5  H   UNK N   1      18.275  20.063   2.762  0.00  0.00     0.150 HD
ENDBRANCH   2   3
BRANCH   2   6
HETATM    6  C   UNK N   1      21.151  20.545   2.101  0.00  0.00     0.163 C 
HETATM    7  O   UNK N   1      21.281  20.390   0.891  0.00  0.00    -0.648 OA
BRANCH   6   8
HETATM    8  O   UNK N   1      21.755  21.584   2.703  0.00  0.00    -0.775 OA
HETATM    9  H   UNK N   1      21.347  22.116   3.358  0.00  0.00     0.167 HD
ENDBRANCH   6   8
ENDBRANCH   2   6
ENDBRANCH   1   2
BRANCH   1  10
HETATM   10  C   UNK N   1      20.062  17.116   2.301  0.00  0.00     0.183 C 
BRANCH  10  11
HETATM   11  C   UNK N   1      19.969  15.928   3.240  0.00  0.00     0.154 C 
HETATM   12  O   UNK N   1      20.668  15.902   4.242  0.00  0.00    -0.649 OA
BRANCH  11  13
HETATM   13  O   UNK N   1      19.112  14.913   3.016  0.00  0.00    -0.776 OA
HETATM   14  H   UNK N   1      18.640  14.485   3.703  0.00  0.00     0.167 HD
ENDBRANCH  11  13
ENDBRANCH  10  11
BRANCH  10  15
HETATM   15  C   UNK N   1      20.395  16.791   0.853  0.00  0.00     0.154 C 
HETATM   16  O   UNK N   1      20.799  15.676   0.562  0.00  0.00    -0.649 OA
BRANCH  15  17
HETATM   17  O   UNK N   1      20.285  17.715  -0.120  0.00  0.00    -0.776 OA
HETATM   18  H   UNK N   1      19.495  18.181  -0.309  0.00  0.00     0.167 HD
ENDBRANCH  15  17
ENDBRANCH  10  15
ENDBRANCH   1  10
TORSDOF 9
ENDMDL
MODEL 5
REMARK VINA RESULT:      -4.9      2.304      4.074
REMARK  9 active torsions:
REMARK  status: ('A' for Active; 'I' for Inactive)
REMARK    1  A    between atoms: C_2  and  N_1 
REMARK    2  A    between atoms: C_2  and  C_3 
REMARK    3  A    between atoms: C_2  and  C_11 
REMARK    4  A    between atoms: C_3  and  C_4 
REMARK    5  A    between atoms: C_4  and  C_5 
REMARK    6  A    between atoms: C_4  and  C_8 
REMARK    7  A    between atoms: C_5  and  O_6 
REMARK    8  A    between atoms: C_8  and  O_9 
REMARK    9  A    between atoms: C_11  and  O_12 
ROOT
HETATM    1  C   UNK N   1      33.075  15.965   8.120  0.00  0.00     0.061 C 
ENDROOT
BRANCH   1   2
HETATM    2  C   UNK N   1      31.923  16.950   8.317  0.00  0.00     0.174 C 
BRANCH   2   3
HETATM    3  N   UNK N   1      31.144  16.583   9.491  0.00  0.00    -0.418 N 
HETATM    4  H   UNK N   1      30.586  15.728   9.500  0.00  0.00     0.150 HD
HETATM    5  H   UNK N   1      31.156  17.186  10.313  0.00  0.00     0.150 HD
ENDBRANCH   2   3
BRANCH   2   6
HETATM    6  C   UNK N   1      31.034  17.011   7.108  0.00  0.00     0.163 C 
HETATM    7  O   UNK N   1      29.836  16.778   7.225  0.00  0.00    -0.648 OA
BRANCH   6   8
HETATM    8  O   UNK N   1      31.540  17.279   5.891  0.00  0.00    -0.775 OA
HETATM    9  H   UNK N   1      32.264  16.819   5.516  0.00  0.00     0.167 HD
ENDBRANCH   6   8
ENDBRANCH   2   6
ENDBRANCH   1   2
BRANCH   1  10
HETATM   10  C   UNK N   1      34.423  16.647   8.382  0.00  0.00     0.183 C 
BRANCH  10  11
HETATM   11  C   UNK N   1      34.719  16.650   9.870  0.00  0.00     0.154 C 
HETATM   12  O   UNK N   1      35.580  17.399  10.307  0.00  0.00    -0.649 OA
BRANCH  11  13
HETATM   13  O   UNK N   1      34.035  15.870  10.730  0.00  0.00    -0.776 OA
HETATM   14  H   UNK N   1      33.436  16.215  11.363  0.00  0.00     0.167 HD
ENDBRANCH  11  13
ENDBRANCH  10  11
BRANCH  10  15
HETATM   15  C   UNK N   1      34.520  17.994   7.685  0.00  0.00     0.154 C 
HETATM   16  O   UNK N   1      34.345  18.064   6.479  0.00  0.00    -0.649 OA
BRANCH  15  17
HETATM   17  O   UNK N   1      34.823  19.118   8.361  0.00  0.00    -0.776 OA
HETATM   18  H   UNK N   1      34.277  19.879   8.379  0.00  0.00     0.167 HD
ENDBRANCH  15  17
ENDBRANCH  10  15
ENDBRANCH   1  10
TORSDOF 9
ENDMDL
MODEL 6
REMARK VINA RESULT:      -4.8     14.089     15.434
REMARK  9 active torsions:
REMARK  status: ('A' for Active; 'I' for Inactive)
REMARK    1  A    between atoms: C_2  and  N_1 
REMARK    2  A    between atoms: C_2  and  C_3 
REMARK    3  A    between atoms: C_2  and  C_11 
REMARK    4  A    between atoms: C_3  and  C_4 
REMARK    5  A    between atoms: C_4  and  C_5 
REMARK    6  A    between atoms: C_4  and  C_8 
REMARK    7  A    between atoms: C_5  and  O_6 
REMARK    8  A    between atoms: C_8  and  O_9 
REMARK    9  A    between atoms: C_11  and  O_12 
ROOT
HETATM    1  C   UNK N   1      21.384  18.677   3.541  0.00  0.00     0.061 C 
ENDROOT
BRANCH   1   2
HETATM    2  C   UNK N   1      20.455  19.736   2.946  0.00  0.00     0.174 C 
BRANCH   2   3
HETATM    3  N   UNK N   1      19.409  19.100   2.158  0.00  0.00    -0.418 N 
HETATM    4  H   UNK N   1      18.658  18.578   2.612  0.00  0.00     0.150 HD
HETATM    5  H   UNK N   1      19.427  19.175   1.141  0.00  0.00     0.150 HD
ENDBRANCH   2   3
BRANCH   2   6
HETATM    6  C   UNK N   1      21.209  20.722   2.100  0.00  0.00     0.163 C 
HETATM    7  O   UNK N   1      21.322  20.524   0.895  0.00  0.00    -0.648 OA
BRANCH   6   8
HETATM    8  O   UNK N   1      21.796  21.798   2.652  0.00  0.00    -0.775 OA
HETATM    9  H   UNK N   1      22.282  21.773   3.452  0.00  0.00     0.167 HD
ENDBRANCH   6   8
ENDBRANCH   2   6
ENDBRANCH   1   2
BRANCH   1  10
HETATM   10  C   UNK N   1      20.711  17.965   4.720  0.00  0.00     0.183 C 
BRANCH  10  11
HETATM   11  C   UNK N   1      21.545  18.145   5.974  0.00  0.00     0.154 C 
HETATM   12  O   UNK N   1      21.061  18.723   6.936  0.00  0.00    -0.649 OA
BRANCH  11  13
HETATM   13  O   UNK N   1      22.797  17.656   6.069  0.00  0.00    -0.776 OA
HETATM   14  H   UNK N   1      23.438  17.766   5.395  0.00  0.00     0.167 HD
ENDBRANCH  11  13
ENDBRANCH  10  11
BRANCH  10  15
HETATM   15  C   UNK N   1      20.333  16.534   4.376  0.00  0.00     0.154 C 
HETATM   16  O   UNK N   1      20.982  15.610   4.841  0.00  0.00    -0.649 OA
BRANCH  15  17
HETATM   17  O   UNK N   1      19.314  16.254   3.542  0.00  0.00    -0.776 OA
HETATM   18  H   UNK N   1      18.762  15.502   3.627  0.00  0.00     0.167 HD
ENDBRANCH  15  17
ENDBRANCH  10  15
ENDBRANCH   1  10
TORSDOF 9
ENDMDL
MODEL 7
REMARK VINA RESULT:      -4.7     11.671     13.016
REMARK  9 active torsions:
REMARK  status: ('A' for Active; 'I' for Inactive)
REMARK    1  A    between atoms: C_2  and  N_1 
REMARK    2  A    between atoms: C_2  and  C_3 
REMARK    3  A    between atoms: C_2  and  C_11 
REMARK    4  A    between atoms: C_3  and  C_4 
REMARK    5  A    between atoms: C_4  and  C_5 
REMARK    6  A    between atoms: C_4  and  C_8 
REMARK    7  A    between atoms: C_5  and  O_6 
REMARK    8  A    between atoms: C_8  and  O_9 
REMARK    9  A    between atoms: C_11  and  O_12 
ROOT
HETATM    1  C   UNK N   1      22.084  12.366   8.962  0.00  0.00     0.061 C 
ENDROOT
BRANCH   1   2
HETATM    2  C   UNK N   1      21.429  13.530   8.217  0.00  0.00     0.174 C 
BRANCH   2   3
HETATM    3  N   UNK N   1      22.447  14.366   7.598  0.00  0.00    -0.418 N 
HETATM    4  H   UNK N   1      23.424  14.295   7.883  0.00  0.00     0.150 HD
HETATM    5  H   UNK N   1      22.181  15.030   6.871  0.00  0.00     0.150 HD
ENDBRANCH   2   3
BRANCH   2   6
HETATM    6  C   UNK N   1      20.568  14.357   9.129  0.00  0.00     0.163 C 
HETATM    7  O   UNK N   1      20.771  15.562   9.225  0.00  0.00    -0.648 OA
BRANCH   6   8
HETATM    8  O   UNK N   1      19.604  13.787   9.872  0.00  0.00    -0.775 OA
HETATM    9  H   UNK N   1      19.148  14.230  10.561  0.00  0.00     0.167 HD
ENDBRANCH   6   8
ENDBRANCH   2   6
ENDBRANCH   1   2
BRANCH   1  10
HETATM   10  C   UNK N   1      22.880  12.874  10.170  0.00  0.00     0.183 C 
BRANCH  10  11
HETATM   11  C   UNK N   1      24.366  12.800   9.877  0.00  0.00     0.154 C 
HETATM   12  O   UNK N   1      24.739  12.556   8.738  0.00  0.00    -0.649 OA
BRANCH  11  13
HETATM   13  O   UNK N   1      25.289  13.026  10.831  0.00  0.00    -0.776 OA
HETATM   14  H   UNK N   1      25.456  13.877  11.186  0.00  0.00     0.167 HD
ENDBRANCH  11  13
ENDBRANCH  10  11
BRANCH  10  15
HETATM   15  C   UNK N   1      22.426  12.214  11.462  0.00  0.00     0.154 C 
HETATM   16  O   UNK N   1      23.235  12.015  12.355  0.00  0.00    -0.649 OA
BRANCH  15  17
HETATM   17  O   UNK N   1      21.153  11.813  11.641  0.00  0.00    -0.776 OA
HETATM   18  H   UNK N   1      20.456  12.014  11.049  0.00  0.00     0.167 HD
ENDBRANCH  15  17
ENDBRANCH  10  15
ENDBRANCH   1  10
TORSDOF 9
ENDMDL
MODEL 8
REMARK VINA RESULT:      -4.7      2.337      3.850
REMARK  9 active torsions:
REMARK  status: ('A' for Active; 'I' for Inactive)
REMARK    1  A    between atoms: C_2  and  N_1 
REMARK    2  A    between atoms: C_2  and  C_3 
REMARK    3  A    between atoms: C_2  and  C_11 
REMARK    4  A    between atoms: C_3  and  C_4 
REMARK    5  A    between atoms: C_4  and  C_5 
REMARK    6  A    between atoms: C_4  and  C_8 
REMARK    7  A    between atoms: C_5  and  O_6 
REMARK    8  A    between atoms: C_8  and  O_9 
REMARK    9  A    between atoms: C_11  and  O_12 
ROOT
HETATM    1  C   UNK N   1      33.701  15.800   8.000  0.00  0.00     0.061 C 
ENDROOT
BRANCH   1   2
HETATM    2  C   UNK N   1      32.219  15.435   8.094  0.00  0.00     0.174 C 
BRANCH   2   3
HETATM    3  N   UNK N   1      31.942  14.252   7.293  0.00  0.00    -0.418 N 
HETATM    4  H   UNK N   1      32.673  13.826   6.722  0.00  0.00     0.150 HD
HETATM    5  H   UNK N   1      31.007  13.844   7.301  0.00  0.00     0.150 HD
ENDBRANCH   2   3
BRANCH   2   6
HETATM    6  C   UNK N   1      31.340  16.571   7.656  0.00  0.00     0.163 C 
HETATM    7  O   UNK N   1      30.458  16.978   8.405  0.00  0.00    -0.648 OA
BRANCH   6   8
HETATM    8  O   UNK N   1      31.480  17.122   6.438  0.00  0.00    -0.775 OA
HETATM    9  H   UNK N   1      32.065  16.797   5.784  0.00  0.00     0.167 HD
ENDBRANCH   6   8
ENDBRANCH   2   6
ENDBRANCH   1   2
BRANCH   1  10
HETATM   10  C   UNK N   1      34.009  17.042   8.845  0.00  0.00     0.183 C 
BRANCH  10  11
HETATM   11  C   UNK N   1      34.507  18.162   7.950  0.00  0.00     0.154 C 
HETATM   12  O   UNK N   1      35.025  19.146   8.457  0.00  0.00    -0.649 OA
BRANCH  11  13
HETATM   13  O   UNK N   1      34.421  18.088   6.608  0.00  0.00    -0.776 OA
HETATM   14  H   UNK N   1      34.960  17.519   6.094  0.00  0.00     0.167 HD
ENDBRANCH  11  13
ENDBRANCH  10  11
BRANCH  10  15
HETATM   15  C   UNK N   1      34.887  16.709  10.040  0.00  0.00     0.154 C 
HETATM   16  O   UNK N   1      34.655  15.707  10.698  0.00  0.00    -0.649 OA
BRANCH  15  17
HETATM   17  O   UNK N   1      35.903  17.510  10.414  0.00  0.00    -0.776 OA
HETATM   18  H   UNK N   1      36.436  17.990   9.812  0.00  0.00     0.167 HD
ENDBRANCH  15  17
ENDBRANCH  10  15
ENDBRANCH   1  10
TORSDOF 9
ENDMDL
MODEL 9
REMARK VINA RESULT:      -4.6     10.655     12.578
REMARK  9 active torsions:
REMARK  status: ('A' for Active; 'I' for Inactive)
REMARK    1  A    between atoms: C_2  and  N_1 
REMARK    2  A    between atoms: C_2  and  C_3 
REMARK    3  A    between atoms: C_2  and  C_11 
REMARK    4  A    between atoms: C_3  and  C_4 
REMARK    5  A    between atoms: C_4  and  C_5 
REMARK    6  A    between atoms: C_4  and  C_8 
REMARK    7  A    between atoms: C_5  and  O_6 
REMARK    8  A    between atoms: C_8  and  O_9 
REMARK    9  A    between atoms: C_11  and  O_12 
ROOT
HETATM    1  C   UNK N   1      42.856  21.947   2.352  0.00  0.00     0.061 C 
ENDROOT
BRANCH   1   2
HETATM    2  C   UNK N   1      43.474  22.270   3.713  0.00  0.00     0.174 C 
BRANCH   2   3
HETATM    3  N   UNK N   1      43.529  23.712   3.909  0.00  0.00    -0.418 N 
HETATM    4  H   UNK N   1      44.090  24.301   3.293  0.00  0.00     0.150 HD
HETATM    5  H   UNK N   1      43.001  24.137   4.671  0.00  0.00     0.150 HD
ENDBRANCH   2   3
BRANCH   2   6
HETATM    6  C   UNK N   1      44.848  21.680   3.852  0.00  0.00     0.163 C 
HETATM    7  O   UNK N   1      45.024  20.491   3.606  0.00  0.00    -0.648 OA
BRANCH   6   8
HETATM    8  O   UNK N   1      45.881  22.426   4.280  0.00  0.00    -0.775 OA
HETATM    9  H   UNK N   1      46.705  22.070   4.547  0.00  0.00     0.167 HD
ENDBRANCH   6   8
ENDBRANCH   2   6
ENDBRANCH   1   2
BRANCH   1  10
HETATM   10  C   UNK N   1      41.345  22.205   2.367  0.00  0.00     0.183 C 
BRANCH  10  11
HETATM   11  C   UNK N   1      40.597  20.885   2.371  0.00  0.00     0.154 C 
HETATM   12  O   UNK N   1      41.211  19.851   2.587  0.00  0.00    -0.649 OA
BRANCH  11  13
HETATM   13  O   UNK N   1      39.266  20.824   2.173  0.00  0.00    -0.776 OA
HETATM   14  H   UNK N   1      38.748  20.083   2.420  0.00  0.00     0.167 HD
ENDBRANCH  11  13
ENDBRANCH  10  11
BRANCH  10  15
HETATM   15  C   UNK N   1      40.931  23.198   1.293  0.00  0.00     0.154 C 
HETATM   16  O   UNK N   1      40.466  22.789   0.240  0.00  0.00    -0.649 OA
BRANCH  15  17
HETATM   17  O   UNK N   1      41.091  24.524   1.458  0.00  0.00    -0.776 OA
HETATM   18  H   UNK N   1      40.566  25.044   2.033  0.00  0.00     0.167 HD
ENDBRANCH  15  17
ENDBRANCH  10  15
ENDBRANCH   1  10
TORSDOF 9
ENDMDL
