REMARK  9 active torsions:
REMARK  status: ('A' for Active; 'I' for Inactive)
REMARK    1  A    between atoms: C_2  and  N_1 
REMARK    2  A    between atoms: C_2  and  C_3 
REMARK    3  A    between atoms: C_2  and  C_13 
REMARK    4  A    between atoms: C_3  and  C_4 
REMARK    5  A    between atoms: C_4  and  C_5 
REMARK    6  A    between atoms: C_5  and  N_6 
REMARK       I    between atoms: N_6  and  C_7 
REMARK       I    between atoms: C_7  and  N_8 
REMARK    7  A    between atoms: N_9  and  C_10 
REMARK    8  A    between atoms: C_10  and  C_11 
REMARK    9  A    between atoms: C_13  and  O_14 
ROOT
HETATM    1  C   UNK N   1       2.396   2.535  -0.440  0.00  0.00     0.138 C 
ENDROOT
BRANCH   1   2
HETATM    2  C   UNK N   1       3.243   1.773   0.562  0.00  0.00     0.023 C 
BRANCH   2   3
HETATM    3  C   UNK N   1       4.501   1.280  -0.130  0.00  0.00     0.037 C 
BRANCH   3   4
HETATM    4  C   UNK N   1       5.736   1.905   0.498  0.00  0.00     0.173 C 
BRANCH   4   5
HETATM    5  N   UNK N   1       5.797   3.319   0.160  0.00  0.00    -0.418 N 
HETATM    6  H   UNK N   1       6.677   3.778  -0.077  0.00  0.00     0.150 HD
HETATM    7  H   UNK N   1       4.937   3.867   0.160  0.00  0.00     0.150 HD
ENDBRANCH   4   5
BRANCH   4   8
HETATM    8  C   UNK N   1       6.977   1.195   0.037  0.00  0.00     0.163 C 
HETATM    9  O   UNK N   1       7.098  -0.005   0.232  0.00  0.00    -0.648 OA
BRANCH   8  10
HETATM   10  O   UNK N   1       7.973   1.873  -0.568  0.00  0.00    -0.775 OA
HETATM   11  H   UNK N   1       8.727   1.509  -0.988  0.00  0.00     0.167 HD
ENDBRANCH   8  10
ENDBRANCH   4   8
ENDBRANCH   3   4
ENDBRANCH   2   3
ENDBRANCH   1   2
BRANCH   1  12
HETATM   12  N   UNK N   1       0.992   2.441  -0.118  0.00  0.00    -0.227 N 
HETATM   13  C   UNK N   1       0.291   1.200  -0.136  0.00  0.00     0.667 C 
HETATM   14  N   UNK N   1       0.994  -0.013  -0.313  0.00  0.00    -0.235 N 
HETATM   15  N   UNK N   1      -0.991   1.169  -0.022  0.00  0.00    -0.223 N 
HETATM   16  H   UNK N   1       0.507  -0.860  -0.437  0.00  0.00     0.174 HD
HETATM   17  H   UNK N   1       1.978  -0.011  -0.313  0.00  0.00     0.174 HD
HETATM   18  H   UNK N   1      -1.447   0.296  -0.039  0.00  0.00     0.178 HD
HETATM   19  H   UNK N   1       0.503   3.261   0.123  0.00  0.00     0.177 HD
BRANCH  15  20
HETATM   20  C   UNK N   1      -1.786   2.365   0.132  0.00  0.00     0.164 C 
BRANCH  20  21
HETATM   21  C   UNK N   1      -3.260   2.065   0.124  0.00  0.00    -0.017 C 
HETATM   22  C   UNK N   1      -3.747   0.831  -0.018  0.00  0.00     0.008 C 
ENDBRANCH  20  21
ENDBRANCH  15  20
ENDBRANCH   1  12
TORSDOF 9
