MODEL 1
REMARK VINA RESULT:      -5.2      0.000      0.000
REMARK  5 active torsions:
REMARK  status: ('A' for Active; 'I' for Inactive)
REMARK    1  A    between atoms: C_3  and  O_8 
REMARK    2  A    between atoms: C_5  and  O_10 
REMARK    3  A    between atoms: C_6  and  C_7 
REMARK    4  A    between atoms: C_6  and  O_11 
REMARK    5  A    between atoms: C_7  and  O_13 
ROOT
HETATM    1  C   UNK N   1      19.842  19.212   2.415  0.00  0.00     0.084 C 
HETATM    2  C   UNK N   1      22.324  19.839   2.587  0.00  0.00     0.130 C 
HETATM    3  C   UNK N   1      20.464  17.816   2.495  0.00  0.00     0.157 C 
HETATM    4  C   UNK N   1      22.352  18.852   3.721  0.00  0.00     0.161 C 
HETATM    5  C   UNK N   1      21.353  17.726   3.737  0.00  0.00     0.216 C 
HETATM    6  C   UNK N   1      20.888  20.357   2.374  0.00  0.00     0.151 C 
HETATM    7  O   UNK N   1      23.142  18.992   4.642  0.00  0.00    -0.295 OA
ENDROOT
BRANCH   6   8
HETATM    8  C   UNK N   1      20.817  21.091   1.057  0.00  0.00     0.176 C 
HETATM    9  O   UNK N   1      21.115  20.530   0.010  0.00  0.00    -0.648 OA
BRANCH   8  10
HETATM   10  O   UNK N   1      20.409  22.374   1.022  0.00  0.00    -0.774 OA
HETATM   11  H   UNK N   1      20.461  22.943   1.766  0.00  0.00     0.167 HD
ENDBRANCH   8  10
ENDBRANCH   6   8
BRANCH   6  12
HETATM   12  O   UNK N   1      20.581  21.257   3.396  0.00  0.00    -0.378 OA
HETATM   13  H   UNK N   1      20.830  21.603   4.268  0.00  0.00     0.211 HD
ENDBRANCH   6  12
BRANCH   3  14
HETATM   14  O   UNK N   1      19.459  16.850   2.540  0.00  0.00    -0.392 OA
HETATM   15  H   UNK N   1      19.604  15.932   2.819  0.00  0.00     0.210 HD
ENDBRANCH   3  14
BRANCH   5  16
HETATM   16  O   UNK N   1      22.008  16.495   3.769  0.00  0.00    -0.385 OA
HETATM   17  H   UNK N   1      21.720  15.636   4.116  0.00  0.00     0.210 HD
ENDBRANCH   5  16
TORSDOF 5
ENDMDL
MODEL 2
REMARK VINA RESULT:      -5.2     20.519     22.196
REMARK  5 active torsions:
REMARK  status: ('A' for Active; 'I' for Inactive)
REMARK    1  A    between atoms: C_3  and  O_8 
REMARK    2  A    between atoms: C_5  and  O_10 
REMARK    3  A    between atoms: C_6  and  C_7 
REMARK    4  A    between atoms: C_6  and  O_11 
REMARK    5  A    between atoms: C_7  and  O_13 
ROOT
HETATM    1  C   UNK N   1      42.370  22.463   2.775  0.00  0.00     0.084 C 
HETATM    2  C   UNK N   1      43.146  20.076   3.309  0.00  0.00     0.130 C 
HETATM    3  C   UNK N   1      43.499  22.765   3.763  0.00  0.00     0.157 C 
HETATM    4  C   UNK N   1      44.527  20.619   3.068  0.00  0.00     0.161 C 
HETATM    5  C   UNK N   1      44.785  22.086   3.288  0.00  0.00     0.216 C 
HETATM    6  C   UNK N   1      42.102  20.947   2.581  0.00  0.00     0.151 C 
HETATM    7  O   UNK N   1      45.414  19.890   2.653  0.00  0.00    -0.295 OA
ENDROOT
BRANCH   6   8
HETATM    8  C   UNK N   1      40.723  20.586   3.079  0.00  0.00     0.176 C 
HETATM    9  O   UNK N   1      40.563  19.661   3.864  0.00  0.00    -0.648 OA
BRANCH   8  10
HETATM   10  O   UNK N   1      39.654  21.294   2.669  0.00  0.00    -0.774 OA
HETATM   11  H   UNK N   1      38.773  20.999   2.794  0.00  0.00     0.167 HD
ENDBRANCH   8  10
ENDBRANCH   6   8
BRANCH   6  12
HETATM   12  O   UNK N   1      42.164  20.670   1.214  0.00  0.00    -0.378 OA
HETATM   13  H   UNK N   1      42.630  20.831   0.379  0.00  0.00     0.211 HD
ENDBRANCH   6  12
BRANCH   3  14
HETATM   14  O   UNK N   1      43.682  24.143   3.869  0.00  0.00    -0.392 OA
HETATM   15  H   UNK N   1      44.499  24.601   3.614  0.00  0.00     0.210 HD
ENDBRANCH   3  14
BRANCH   5  16
HETATM   16  O   UNK N   1      45.798  22.265   4.231  0.00  0.00    -0.385 OA
HETATM   17  H   UNK N   1      46.472  22.959   4.308  0.00  0.00     0.210 HD
ENDBRANCH   5  16
TORSDOF 5
ENDMDL
MODEL 3
REMARK VINA RESULT:      -5.0      7.786     10.539
REMARK  5 active torsions:
REMARK  status: ('A' for Active; 'I' for Inactive)
REMARK    1  A    between atoms: C_3  and  O_8 
REMARK    2  A    between atoms: C_5  and  O_10 
REMARK    3  A    between atoms: C_6  and  C_7 
REMARK    4  A    between atoms: C_6  and  O_11 
REMARK    5  A    between atoms: C_7  and  O_13 
ROOT
HETATM    1  C   UNK N   1      21.379  12.448  10.413  0.00  0.00     0.084 C 
HETATM    2  C   UNK N   1      23.635  13.302   9.536  0.00  0.00     0.130 C 
HETATM    3  C   UNK N   1      20.951  13.809   9.859  0.00  0.00     0.157 C 
HETATM    4  C   UNK N   1      22.864  13.645   8.291  0.00  0.00     0.161 C 
HETATM    5  C   UNK N   1      21.388  13.923   8.398  0.00  0.00     0.216 C 
HETATM    6  C   UNK N   1      22.906  12.190  10.319  0.00  0.00     0.151 C 
HETATM    7  O   UNK N   1      23.418  13.648   7.204  0.00  0.00    -0.295 OA
ENDROOT
BRANCH   6   8
HETATM    8  C   UNK N   1      23.510  12.078  11.697  0.00  0.00     0.176 C 
HETATM    9  O   UNK N   1      22.810  11.826  12.669  0.00  0.00    -0.648 OA
BRANCH   8  10
HETATM   10  O   UNK N   1      24.836  12.241  11.866  0.00  0.00    -0.774 OA
HETATM   11  H   UNK N   1      25.397  12.568  11.191  0.00  0.00     0.167 HD
ENDBRANCH   8  10
ENDBRANCH   6   8
BRANCH   6  12
HETATM   12  O   UNK N   1      23.098  10.977   9.654  0.00  0.00    -0.378 OA
HETATM   13  H   UNK N   1      22.766  10.077   9.506  0.00  0.00     0.211 HD
ENDBRANCH   6  12
BRANCH   3  14
HETATM   14  O   UNK N   1      19.569  13.954   9.971  0.00  0.00    -0.392 OA
HETATM   15  H   UNK N   1      19.115  14.188  10.797  0.00  0.00     0.210 HD
ENDBRANCH   3  14
BRANCH   5  16
HETATM   16  O   UNK N   1      21.097  15.197   7.909  0.00  0.00    -0.385 OA
HETATM   17  H   UNK N   1      21.492  16.057   8.117  0.00  0.00     0.210 HD
ENDBRANCH   5  16
TORSDOF 5
ENDMDL
MODEL 4
REMARK VINA RESULT:      -4.9     14.918     17.372
REMARK  5 active torsions:
REMARK  status: ('A' for Active; 'I' for Inactive)
REMARK    1  A    between atoms: C_3  and  O_8 
REMARK    2  A    between atoms: C_5  and  O_10 
REMARK    3  A    between atoms: C_6  and  C_7 
REMARK    4  A    between atoms: C_6  and  O_11 
REMARK    5  A    between atoms: C_7  and  O_13 
ROOT
HETATM    1  C   UNK N   1      34.875  13.795  10.627  0.00  0.00     0.084 C 
HETATM    2  C   UNK N   1      35.565  15.973  11.796  0.00  0.00     0.130 C 
HETATM    3  C   UNK N   1      33.681  14.681  10.265  0.00  0.00     0.157 C 
HETATM    4  C   UNK N   1      35.201  16.626  10.492  0.00  0.00     0.161 C 
HETATM    5  C   UNK N   1      34.184  15.965   9.601  0.00  0.00     0.216 C 
HETATM    6  C   UNK N   1      35.899  14.485  11.566  0.00  0.00     0.151 C 
HETATM    7  O   UNK N   1      35.760  17.652  10.138  0.00  0.00    -0.295 OA
ENDROOT
BRANCH   6   8
HETATM    8  C   UNK N   1      35.954  13.778  12.899  0.00  0.00     0.176 C 
HETATM    9  O   UNK N   1      34.931  13.553  13.531  0.00  0.00    -0.648 OA
BRANCH   8  10
HETATM   10  O   UNK N   1      37.138  13.375  13.398  0.00  0.00    -0.774 OA
HETATM   11  H   UNK N   1      37.210  12.843  14.166  0.00  0.00     0.167 HD
ENDBRANCH   8  10
ENDBRANCH   6   8
BRANCH   6  12
HETATM   12  O   UNK N   1      37.158  14.396  10.968  0.00  0.00    -0.378 OA
HETATM   13  H   UNK N   1      38.024  13.958  10.972  0.00  0.00     0.211 HD
ENDBRANCH   6  12
BRANCH   3  14
HETATM   14  O   UNK N   1      32.819  13.993   9.413  0.00  0.00    -0.392 OA
HETATM   15  H   UNK N   1      32.673  13.034   9.452  0.00  0.00     0.210 HD
ENDBRANCH   3  14
BRANCH   5  16
HETATM   16  O   UNK N   1      33.115  16.828   9.359  0.00  0.00    -0.385 OA
HETATM   17  H   UNK N   1      32.349  17.054   9.909  0.00  0.00     0.210 HD
ENDBRANCH   5  16
TORSDOF 5
ENDMDL
MODEL 5
REMARK VINA RESULT:      -4.9     15.491     17.563
REMARK  5 active torsions:
REMARK  status: ('A' for Active; 'I' for Inactive)
REMARK    1  A    between atoms: C_3  and  O_8 
REMARK    2  A    between atoms: C_5  and  O_10 
REMARK    3  A    between atoms: C_6  and  C_7 
REMARK    4  A    between atoms: C_6  and  O_11 
REMARK    5  A    between atoms: C_7  and  O_13 
ROOT
HETATM    1  C   UNK N   1      35.361  14.236   9.867  0.00  0.00     0.084 C 
HETATM    2  C   UNK N   1      35.774  15.485  12.070  0.00  0.00     0.130 C 
HETATM    3  C   UNK N   1      36.744  13.689  10.227  0.00  0.00     0.157 C 
HETATM    4  C   UNK N   1      36.178  14.136  12.599  0.00  0.00     0.161 C 
HETATM    5  C   UNK N   1      36.707  13.102  11.640  0.00  0.00     0.216 C 
HETATM    6  C   UNK N   1      34.844  15.317  10.852  0.00  0.00     0.151 C 
HETATM    7  O   UNK N   1      36.031  13.866  13.780  0.00  0.00    -0.295 OA
ENDROOT
BRANCH   6   8
HETATM    8  C   UNK N   1      34.703  16.647  10.151  0.00  0.00     0.176 C 
HETATM    9  O   UNK N   1      35.594  17.485  10.212  0.00  0.00    -0.648 OA
BRANCH   8  10
HETATM   10  O   UNK N   1      33.595  16.916   9.436  0.00  0.00    -0.774 OA
HETATM   11  H   UNK N   1      32.858  17.372   9.794  0.00  0.00     0.167 HD
ENDBRANCH   8  10
ENDBRANCH   6   8
BRANCH   6  12
HETATM   12  O   UNK N   1      33.583  14.922  11.303  0.00  0.00    -0.378 OA
HETATM   13  H   UNK N   1      32.968  14.183  11.433  0.00  0.00     0.211 HD
ENDBRANCH   6  12
BRANCH   3  14
HETATM   14  O   UNK N   1      37.126  12.718   9.303  0.00  0.00    -0.392 OA
HETATM   15  H   UNK N   1      37.783  12.866   8.603  0.00  0.00     0.210 HD
ENDBRANCH   3  14
BRANCH   5  16
HETATM   16  O   UNK N   1      37.984  12.693  12.022  0.00  0.00    -0.385 OA
HETATM   17  H   UNK N   1      38.832  13.162  11.991  0.00  0.00     0.210 HD
ENDBRANCH   5  16
TORSDOF 5
ENDMDL
MODEL 6
REMARK VINA RESULT:      -4.8     13.667     15.852
REMARK  5 active torsions:
REMARK  status: ('A' for Active; 'I' for Inactive)
REMARK    1  A    between atoms: C_3  and  O_8 
REMARK    2  A    between atoms: C_5  and  O_10 
REMARK    3  A    between atoms: C_6  and  C_7 
REMARK    4  A    between atoms: C_6  and  O_11 
REMARK    5  A    between atoms: C_7  and  O_13 
ROOT
HETATM    1  C   UNK N   1      34.752  17.292   9.703  0.00  0.00     0.084 C 
HETATM    2  C   UNK N   1      34.804  15.156   8.282  0.00  0.00     0.130 C 
HETATM    3  C   UNK N   1      34.947  17.902   8.313  0.00  0.00     0.157 C 
HETATM    4  C   UNK N   1      33.833  15.886   7.397  0.00  0.00     0.161 C 
HETATM    5  C   UNK N   1      33.851  17.392   7.376  0.00  0.00     0.216 C 
HETATM    6  C   UNK N   1      34.761  15.741   9.709  0.00  0.00     0.151 C 
HETATM    7  O   UNK N   1      33.008  15.268   6.744  0.00  0.00    -0.295 OA
ENDROOT
BRANCH   6   8
HETATM    8  C   UNK N   1      35.943  15.222  10.492  0.00  0.00     0.176 C 
HETATM    9  O   UNK N   1      36.027  14.037  10.787  0.00  0.00    -0.648 OA
BRANCH   8  10
HETATM   10  O   UNK N   1      36.926  16.063  10.862  0.00  0.00    -0.774 OA
HETATM   11  H   UNK N   1      37.241  16.750  10.308  0.00  0.00     0.167 HD
ENDBRANCH   8  10
ENDBRANCH   6   8
BRANCH   6  12
HETATM   12  O   UNK N   1      33.592  15.305  10.335  0.00  0.00    -0.378 OA
HETATM   13  H   UNK N   1      32.664  15.503  10.539  0.00  0.00     0.211 HD
ENDBRANCH   6  12
BRANCH   3  14
HETATM   14  O   UNK N   1      34.914  19.294   8.396  0.00  0.00    -0.392 OA
HETATM   15  H   UNK N   1      35.059  19.790   9.218  0.00  0.00     0.210 HD
ENDBRANCH   3  14
BRANCH   5  16
HETATM   16  O   UNK N   1      34.075  17.857   6.080  0.00  0.00    -0.385 OA
HETATM   17  H   UNK N   1      33.728  18.638   5.621  0.00  0.00     0.210 HD
ENDBRANCH   5  16
TORSDOF 5
ENDMDL
MODEL 7
REMARK VINA RESULT:      -4.8     11.638     13.805
REMARK  5 active torsions:
REMARK  status: ('A' for Active; 'I' for Inactive)
REMARK    1  A    between atoms: C_3  and  O_8 
REMARK    2  A    between atoms: C_5  and  O_10 
REMARK    3  A    between atoms: C_6  and  C_7 
REMARK    4  A    between atoms: C_6  and  O_11 
REMARK    5  A    between atoms: C_7  and  O_13 
ROOT
HETATM    1  C   UNK N   1      33.922  17.699   6.987  0.00  0.00     0.084 C 
HETATM    2  C   UNK N   1      32.418  16.077   8.289  0.00  0.00     0.130 C 
HETATM    3  C   UNK N   1      34.248  18.125   8.421  0.00  0.00     0.157 C 
HETATM    4  C   UNK N   1      33.645  15.825   9.121  0.00  0.00     0.161 C 
HETATM    5  C   UNK N   1      34.692  16.903   9.226  0.00  0.00     0.216 C 
HETATM    6  C   UNK N   1      32.823  16.607   6.899  0.00  0.00     0.151 C 
HETATM    7  O   UNK N   1      33.813  14.745   9.663  0.00  0.00    -0.295 OA
ENDROOT
BRANCH   6   8
HETATM    8  C   UNK N   1      31.599  17.144   6.198  0.00  0.00     0.176 C 
HETATM    9  O   UNK N   1      30.540  17.274   6.799  0.00  0.00    -0.648 OA
BRANCH   8  10
HETATM   10  O   UNK N   1      31.668  17.501   4.902  0.00  0.00    -0.774 OA
HETATM   11  H   UNK N   1      30.934  17.448   4.322  0.00  0.00     0.167 HD
ENDBRANCH   8  10
ENDBRANCH   6   8
BRANCH   6  12
HETATM   12  O   UNK N   1      33.331  15.546   6.146  0.00  0.00    -0.378 OA
HETATM   13  H   UNK N   1      33.671  14.637   6.160  0.00  0.00     0.211 HD
ENDBRANCH   6  12
BRANCH   3  14
HETATM   14  O   UNK N   1      35.249  19.096   8.411  0.00  0.00    -0.392 OA
HETATM   15  H   UNK N   1      35.420  19.688   7.661  0.00  0.00     0.210 HD
ENDBRANCH   3  14
BRANCH   5  16
HETATM   16  O   UNK N   1      34.894  17.256  10.561  0.00  0.00    -0.385 OA
HETATM   17  H   UNK N   1      34.260  17.514  11.248  0.00  0.00     0.210 HD
ENDBRANCH   5  16
TORSDOF 5
ENDMDL
MODEL 8
REMARK VINA RESULT:      -4.8     19.617     21.269
REMARK  5 active torsions:
REMARK  status: ('A' for Active; 'I' for Inactive)
REMARK    1  A    between atoms: C_3  and  O_8 
REMARK    2  A    between atoms: C_5  and  O_10 
REMARK    3  A    between atoms: C_6  and  C_7 
REMARK    4  A    between atoms: C_6  and  O_11 
REMARK    5  A    between atoms: C_7  and  O_13 
ROOT
HETATM    1  C   UNK N   1      42.444  20.653   3.438  0.00  0.00     0.084 C 
HETATM    2  C   UNK N   1      41.966  22.811   2.132  0.00  0.00     0.130 C 
HETATM    3  C   UNK N   1      40.914  20.625   3.427  0.00  0.00     0.157 C 
HETATM    4  C   UNK N   1      41.017  21.957   1.338  0.00  0.00     0.161 C 
HETATM    5  C   UNK N   1      40.414  20.738   1.985  0.00  0.00     0.216 C 
HETATM    6  C   UNK N   1      43.046  21.928   2.790  0.00  0.00     0.151 C 
HETATM    7  O   UNK N   1      40.778  22.220   0.171  0.00  0.00    -0.295 OA
ENDROOT
BRANCH   6   8
HETATM    8  C   UNK N   1      43.791  22.743   3.820  0.00  0.00     0.176 C 
HETATM    9  O   UNK N   1      44.698  22.246   4.475  0.00  0.00    -0.648 OA
BRANCH   8  10
HETATM   10  O   UNK N   1      43.470  24.036   4.015  0.00  0.00    -0.774 OA
HETATM   11  H   UNK N   1      43.161  24.591   3.326  0.00  0.00     0.167 HD
ENDBRANCH   8  10
ENDBRANCH   6   8
BRANCH   6  12
HETATM   12  O   UNK N   1      43.953  21.525   1.808  0.00  0.00    -0.378 OA
HETATM   13  H   UNK N   1      44.419  21.767   0.992  0.00  0.00     0.211 HD
ENDBRANCH   6  12
BRANCH   3  14
HETATM   14  O   UNK N   1      40.457  19.445   4.013  0.00  0.00    -0.392 OA
HETATM   15  H   UNK N   1      41.033  18.700   4.247  0.00  0.00     0.210 HD
ENDBRANCH   3  14
BRANCH   5  16
HETATM   16  O   UNK N   1      39.021  20.817   1.967  0.00  0.00    -0.385 OA
HETATM   17  H   UNK N   1      38.367  20.589   2.646  0.00  0.00     0.210 HD
ENDBRANCH   5  16
TORSDOF 5
ENDMDL
MODEL 9
REMARK VINA RESULT:      -4.8     11.700     13.877
REMARK  5 active torsions:
REMARK  status: ('A' for Active; 'I' for Inactive)
REMARK    1  A    between atoms: C_3  and  O_8 
REMARK    2  A    between atoms: C_5  and  O_10 
REMARK    3  A    between atoms: C_6  and  C_7 
REMARK    4  A    between atoms: C_6  and  O_11 
REMARK    5  A    between atoms: C_7  and  O_13 
ROOT
HETATM    1  C   UNK N   1      34.638  15.844   7.180  0.00  0.00     0.084 C 
HETATM    2  C   UNK N   1      32.466  17.175   7.491  0.00  0.00     0.130 C 
HETATM    3  C   UNK N   1      33.644  14.694   7.358  0.00  0.00     0.157 C 
HETATM    4  C   UNK N   1      31.898  16.219   6.480  0.00  0.00     0.161 C 
HETATM    5  C   UNK N   1      32.504  14.847   6.348  0.00  0.00     0.216 C 
HETATM    6  C   UNK N   1      34.000  17.249   7.345  0.00  0.00     0.151 C 
HETATM    7  O   UNK N   1      30.990  16.568   5.742  0.00  0.00    -0.295 OA
ENDROOT
BRANCH   6   8
HETATM    8  C   UNK N   1      34.578  17.955   8.547  0.00  0.00     0.176 C 
HETATM    9  O   UNK N   1      35.163  19.023   8.424  0.00  0.00    -0.648 OA
BRANCH   8  10
HETATM   10  O   UNK N   1      34.441  17.418   9.773  0.00  0.00    -0.774 OA
HETATM   11  H   UNK N   1      33.747  17.657  10.357  0.00  0.00     0.167 HD
ENDBRANCH   8  10
ENDBRANCH   6   8
BRANCH   6  12
HETATM   12  O   UNK N   1      34.305  17.996   6.205  0.00  0.00    -0.378 OA
HETATM   13  H   UNK N   1      34.119  18.145   5.265  0.00  0.00     0.211 HD
ENDBRANCH   6  12
BRANCH   3  14
HETATM   14  O   UNK N   1      34.294  13.473   7.183  0.00  0.00    -0.392 OA
HETATM   15  H   UNK N   1      33.891  12.613   7.382  0.00  0.00     0.210 HD
ENDBRANCH   3  14
BRANCH   5  16
HETATM   16  O   UNK N   1      31.537  13.865   6.565  0.00  0.00    -0.385 OA
HETATM   17  H   UNK N   1      31.595  13.016   7.030  0.00  0.00     0.210 HD
ENDBRANCH   5  16
TORSDOF 5
ENDMDL
