REMARK  24 active torsions:
REMARK  status: ('A' for Active; 'I' for Inactive)
REMARK    1  A    between atoms: C_10  and  C_4 
REMARK    2  A    between atoms: O_52  and  C_4 
REMARK    3  A    between atoms: C_11  and  C_5 
REMARK    4  A    between atoms: O_53  and  C_5 
REMARK    5  A    between atoms: C_9  and  N_32 
REMARK    6  A    between atoms: C_12  and  N_35 
REMARK    7  A    between atoms: C_14  and  O_37 
REMARK    8  A    between atoms: C_15  and  O_38 
REMARK    9  A    between atoms: N_21  and  C_16 
REMARK   10  A    between atoms: O_39  and  C_18 
REMARK   11  A    between atoms: C_19  and  N_36 
REMARK   12  A    between atoms: N_34  and  N_22 
REMARK   13  A    between atoms: N_34  and  N_32 
REMARK   14  A    between atoms: P_64  and  O_50 
REMARK   15  A    between atoms: P_60  and  O_52 
REMARK   16  A    between atoms: P_61  and  O_53 
REMARK   17  A    between atoms: P_60  and  O_56 
REMARK   18  A    between atoms: P_62  and  O_56 
REMARK   19  A    between atoms: P_61  and  O_57 
REMARK   20  A    between atoms: P_63  and  O_57 
REMARK   21  A    between atoms: P_62  and  O_58 
REMARK   22  A    between atoms: P_64  and  O_58 
REMARK   23  A    between atoms: P_63  and  O_59 
REMARK   24  A    between atoms: P_64  and  O_59 
ROOT
HETATM    1  O   UNK N   1      -4.470  -2.574  -2.036  0.00  0.00    -0.631 OA
HETATM    2  P   UNK N   1      -4.685  -1.481  -0.954  0.00  0.00     0.411 P 
ENDROOT
BRANCH   2   3
HETATM    3  O   UNK N   1      -4.864   0.046  -1.766  0.00  0.00    -0.306 OA
HETATM    4  H   UNK N   1      -4.176   0.558  -2.219  0.00  0.00     0.222 HD
ENDBRANCH   2   3
BRANCH   2   5
HETATM    5  O   UNK N   1      -6.109  -1.885  -0.092  0.00  0.00    -0.187 OA
BRANCH   5   6
HETATM    6  P   UNK N   1      -6.444  -0.557   0.996  0.00  0.00     0.426 P 
HETATM    7  O   UNK N   1      -5.041   0.351   1.467  0.00  0.00    -0.624 OA
HETATM    8  O   UNK N   1      -6.969  -1.204   2.307  0.00  0.00    -0.624 OA
BRANCH   6   9
HETATM    9  O   UNK N   1      -7.743   0.442   0.409  0.00  0.00    -0.180 OA
BRANCH   9  10
HETATM   10  P   UNK N   1      -8.566  -0.446  -0.858  0.00  0.00     0.417 P 
HETATM   11  O   UNK N   1     -10.227   0.040  -0.969  0.00  0.00    -0.624 OA
HETATM   12  O   UNK N   1      -7.912   0.001  -2.193  0.00  0.00    -0.624 OA
BRANCH  10  13
HETATM   13  O   UNK N   1      -8.428  -2.193  -0.795  0.00  0.00    -0.287 OA
BRANCH  13  14
HETATM   14  C   UNK N   1      -8.698  -2.557   0.537  0.00  0.00     0.215 C 
BRANCH  14  15
HETATM   15  C   UNK N   1      -9.984  -3.319   0.626  0.00  0.00     0.173 C 
HETATM   16  C   UNK N   1      -9.852  -4.843   0.569  0.00  0.00     0.149 C 
HETATM   17  C   UNK N   1     -11.131  -5.234  -0.099  0.00  0.00     0.084 C 
HETATM   18  C   UNK N   1     -11.690  -3.931  -0.668  0.00  0.00     0.234 C 
HETATM   19  O   UNK N   1     -10.782  -2.901  -0.434  0.00  0.00    -0.356 OA
BRANCH  16  20
HETATM   20  N   UNK N   1      -8.722  -5.307  -0.222  0.00  0.00    -0.245 N 
ATOM     21  HN  UNK N   1      -8.855  -5.619  -1.183  1.00  0.00     0.197 HD
BRANCH  20  22
HETATM   22  N   UNK N   1      -7.613  -5.315   0.286  0.00  0.00    -0.248 NA
BRANCH  22  23
HETATM   23  N   UNK N   1      -6.506  -5.330   0.792  0.00  0.00    -0.261 N 
HETATM   24  H   UNK N   1      -6.068  -6.111   1.200  0.00  0.00     0.193 HD
ATOM     25  HN  UNK N   1      -5.984  -4.453   0.792  1.00  0.00     0.193 HD
ENDBRANCH  22  23
ENDBRANCH  20  22
ENDBRANCH  16  20
BRANCH  18  26
HETATM   26  N   UNK N   1     -13.020  -3.537  -0.180  0.00  0.00    -0.282 N 
HETATM   27  C   UNK N   1     -13.376  -2.234  -0.370  0.00  0.00     0.109 A 
HETATM   28  C   UNK N   1     -14.682  -1.815  -0.192  0.00  0.00     0.005 A 
HETATM   29  C   UNK N   1     -15.036  -0.389  -0.433  0.00  0.00     0.054 C 
HETATM   30  C   UNK N   1     -15.646  -2.764   0.141  0.00  0.00     0.151 A 
HETATM   31  N   UNK N   1     -15.276  -4.046   0.384  0.00  0.00    -0.288 N 
HETATM   32  C   UNK N   1     -13.975  -4.447   0.241  0.00  0.00     0.330 A 
ATOM     33  HN  UNK N   1     -15.979  -4.724   0.677  1.00  0.00     0.172 HD
HETATM   34  O   UNK N   1     -13.694  -5.618   0.424  0.00  0.00    -0.246 OA
BRANCH  30  35
HETATM   35  O   UNK N   1     -16.943  -2.425   0.200  0.00  0.00    -0.346 OA
ATOM     36  HO  UNK N   1     -17.601  -3.072   0.427  1.00  0.00     0.219 HD
ENDBRANCH  30  35
ENDBRANCH  18  26
ENDBRANCH  14  15
ENDBRANCH  13  14
ENDBRANCH  10  13
ENDBRANCH   9  10
ENDBRANCH   6   9
ENDBRANCH   5   6
ENDBRANCH   2   5
BRANCH   2  37
HETATM   37  O   UNK N   1      -3.373  -1.524   0.177  0.00  0.00    -0.187 OA
BRANCH  37  38
HETATM   38  P   UNK N   1      -3.543  -2.988   1.147  0.00  0.00     0.426 P 
HETATM   39  O   UNK N   1      -2.436  -2.933   2.483  0.00  0.00    -0.624 OA
HETATM   40  O   UNK N   1      -4.930  -3.049   1.831  0.00  0.00    -0.624 OA
BRANCH  38  41
HETATM   41  O   UNK N   1      -3.348  -4.460   0.229  0.00  0.00    -0.180 OA
BRANCH  41  42
HETATM   42  P   UNK N   1      -1.767  -4.390  -0.502  0.00  0.00     0.417 P 
HETATM   43  O   UNK N   1      -1.798  -3.649  -2.077  0.00  0.00    -0.624 OA
HETATM   44  O   UNK N   1      -1.287  -5.848  -0.715  0.00  0.00    -0.624 OA
BRANCH  42  45
HETATM   45  O   UNK N   1      -0.601  -3.635   0.532  0.00  0.00    -0.287 OA
BRANCH  45  46
HETATM   46  C   UNK N   1      -0.769  -2.302   0.188  0.00  0.00     0.216 C 
BRANCH  46  47
HETATM   47  C   UNK N   1       0.413  -1.451   0.458  0.00  0.00     0.180 C 
HETATM   48  C   UNK N   1       1.672  -2.098  -0.068  0.00  0.00     0.182 C 
HETATM   49  C   UNK N   1       2.517  -0.880  -0.145  0.00  0.00     0.198 C 
HETATM   50  C   UNK N   1       1.503   0.106  -0.746  0.00  0.00     0.262 C 
HETATM   51  O   UNK N   1       0.232  -0.265  -0.264  0.00  0.00    -0.353 OA
BRANCH  48  52
HETATM   52  O   UNK N   1       2.179  -3.062   0.809  0.00  0.00    -0.390 OA
HETATM   53  H   UNK N   1       1.776  -3.701   1.417  0.00  0.00     0.210 HD
ENDBRANCH  48  52
BRANCH  49  54
HETATM   54  O   UNK N   1       3.644  -1.074  -0.946  0.00  0.00    -0.388 OA
HETATM   55  H   UNK N   1       3.919  -1.820  -1.502  0.00  0.00     0.210 HD
ENDBRANCH  49  54
BRANCH  50  56
HETATM   56  N   UNK N   1       1.740   1.495  -0.364  0.00  0.00    -0.297 N 
HETATM   57  C   UNK N   1       0.782   2.457  -0.281  0.00  0.00     0.188 A 
HETATM   58  N   UNK N   1       1.308   3.653   0.094  0.00  0.00    -0.346 N 
HETATM   59  C   UNK N   1       2.622   3.405   0.235  0.00  0.00     0.122 A 
ATOM     60  HN  UNK N   1       0.818   4.537   0.236  1.00  0.00     0.167 HD
HETATM   61  C   UNK N   1       3.653   4.261   0.569  0.00  0.00     0.131 A 
HETATM   62  C   UNK N   1       2.878   2.111  -0.031  0.00  0.00     0.142 A 
HETATM   63  N   UNK N   1       4.918   3.747   0.629  0.00  0.00    -0.337 N 
HETATM   64  C   UNK N   1       5.155   2.420   0.365  0.00  0.00     0.183 A 
ATOM     65  HN  UNK N   1       5.697   4.358   0.873  1.00  0.00     0.168 HD
HETATM   66  N   UNK N   1       4.125   1.588   0.024  0.00  0.00    -0.336 N 
ATOM     67  HN  UNK N   1       4.292   0.603  -0.181  1.00  0.00     0.168 HD
BRANCH  61  68
HETATM   68  N   UNK N   1       3.417   5.626   0.820  0.00  0.00    -0.383 N 
HETATM   69  H   UNK N   1       4.161   6.247   0.995  0.00  0.00     0.157 HD
HETATM   70  H   UNK N   1       2.493   5.966   0.820  0.00  0.00     0.157 HD
ENDBRANCH  61  68
ENDBRANCH  50  56
ENDBRANCH  46  47
ENDBRANCH  45  46
ENDBRANCH  42  45
ENDBRANCH  41  42
ENDBRANCH  38  41
ENDBRANCH  37  38
ENDBRANCH   2  37
TORSDOF 24
