MODEL 1
REMARK VINA RESULT:      -5.8      0.000      0.000
REMARK  9 active torsions:
REMARK  status: ('A' for Active; 'I' for Inactive)
REMARK    1  A    between atoms: C_2  and  N_1 
REMARK    2  A    between atoms: C_2  and  C_3 
REMARK    3  A    between atoms: C_2  and  C_13 
REMARK    4  A    between atoms: C_3  and  C_4 
REMARK    5  A    between atoms: C_4  and  C_5 
REMARK    6  A    between atoms: C_5  and  N_6 
REMARK       I    between atoms: N_6  and  C_7 
REMARK       I    between atoms: C_7  and  N_8 
REMARK    7  A    between atoms: N_9  and  C_10 
REMARK    8  A    between atoms: C_10  and  C_11 
REMARK    9  A    between atoms: C_13  and  O_14 
ROOT
HETATM    1  C   UNK N   1      30.412  17.295   8.584  0.00  0.00     0.138 C 
ENDROOT
BRANCH   1   2
HETATM    2  C   UNK N   1      31.865  17.721   8.498  0.00  0.00     0.023 C 
BRANCH   2   3
HETATM    3  C   UNK N   1      32.743  16.482   8.501  0.00  0.00     0.037 C 
BRANCH   3   4
HETATM    4  C   UNK N   1      34.204  16.863   8.676  0.00  0.00     0.173 C 
BRANCH   4   5
HETATM    5  N   UNK N   1      34.480  17.120  10.081  0.00  0.00    -0.418 N 
HETATM    6  H   UNK N   1      34.665  16.363  10.740  0.00  0.00     0.150 HD
HETATM    7  H   UNK N   1      34.490  18.083  10.417  0.00  0.00     0.150 HD
ENDBRANCH   4   5
BRANCH   4   8
HETATM    8  C   UNK N   1      34.537  18.067   7.841  0.00  0.00     0.163 C 
HETATM    9  O   UNK N   1      34.416  18.016   6.626  0.00  0.00    -0.648 OA
BRANCH   8  10
HETATM   10  O   UNK N   1      34.994  19.198   8.416  0.00  0.00    -0.775 OA
HETATM   11  H   UNK N   1      35.344  19.949   7.979  0.00  0.00     0.167 HD
ENDBRANCH   8  10
ENDBRANCH   4   8
ENDBRANCH   3   4
ENDBRANCH   2   3
ENDBRANCH   1   2
BRANCH   1  12
HETATM   12  N   UNK N   1      29.584  18.074   7.694  0.00  0.00    -0.227 N 
HETATM   13  C   UNK N   1      28.251  18.450   8.033  0.00  0.00     0.667 C 
HETATM   14  N   UNK N   1      27.751  18.209   9.332  0.00  0.00    -0.235 N 
HETATM   15  N   UNK N   1      27.478  18.986   7.154  0.00  0.00    -0.223 N 
HETATM   16  H   UNK N   1      26.801  18.365   9.539  0.00  0.00     0.174 HD
HETATM   17  H   UNK N   1      28.357  17.883  10.035  0.00  0.00     0.174 HD
HETATM   18  H   UNK N   1      26.562  19.235   7.418  0.00  0.00     0.178 HD
HETATM   19  H   UNK N   1      29.952  18.355   6.825  0.00  0.00     0.177 HD
BRANCH  15  20
HETATM   20  C   UNK N   1      27.902  19.238   5.797  0.00  0.00     0.164 C 
BRANCH  20  21
HETATM   21  C   UNK N   1      27.625  20.656   5.375  0.00  0.00    -0.017 C 
HETATM   22  C   UNK N   1      27.077  21.559   6.190  0.00  0.00     0.008 C 
ENDBRANCH  20  21
ENDBRANCH  15  20
ENDBRANCH   1  12
TORSDOF 9
ENDMDL
MODEL 2
REMARK VINA RESULT:      -5.3      4.757      8.811
REMARK  9 active torsions:
REMARK  status: ('A' for Active; 'I' for Inactive)
REMARK    1  A    between atoms: C_2  and  N_1 
REMARK    2  A    between atoms: C_2  and  C_3 
REMARK    3  A    between atoms: C_2  and  C_13 
REMARK    4  A    between atoms: C_3  and  C_4 
REMARK    5  A    between atoms: C_4  and  C_5 
REMARK    6  A    between atoms: C_5  and  N_6 
REMARK       I    between atoms: N_6  and  C_7 
REMARK       I    between atoms: C_7  and  N_8 
REMARK    7  A    between atoms: N_9  and  C_10 
REMARK    8  A    between atoms: C_10  and  C_11 
REMARK    9  A    between atoms: C_13  and  O_14 
ROOT
HETATM    1  C   UNK N   1      36.227  15.208  11.366  0.00  0.00     0.138 C 
ENDROOT
BRANCH   1   2
HETATM    2  C   UNK N   1      35.245  16.300  10.982  0.00  0.00     0.023 C 
BRANCH   2   3
HETATM    3  C   UNK N   1      34.978  16.221   9.490  0.00  0.00     0.037 C 
BRANCH   3   4
HETATM    4  C   UNK N   1      33.976  17.283   9.070  0.00  0.00     0.173 C 
BRANCH   4   5
HETATM    5  N   UNK N   1      32.809  16.649   8.474  0.00  0.00    -0.418 N 
HETATM    6  H   UNK N   1      32.596  16.739   7.480  0.00  0.00     0.150 HD
HETATM    7  H   UNK N   1      32.187  16.099   9.066  0.00  0.00     0.150 HD
ENDBRANCH   4   5
BRANCH   4   8
HETATM    8  C   UNK N   1      34.605  18.248   8.106  0.00  0.00     0.163 C 
HETATM    9  O   UNK N   1      35.262  19.187   8.529  0.00  0.00    -0.648 OA
BRANCH   8  10
HETATM   10  O   UNK N   1      34.431  18.105   6.777  0.00  0.00    -0.775 OA
HETATM   11  H   UNK N   1      33.795  18.539   6.243  0.00  0.00     0.167 HD
ENDBRANCH   8  10
ENDBRANCH   4   8
ENDBRANCH   3   4
ENDBRANCH   2   3
ENDBRANCH   1   2
BRANCH   1  12
HETATM   12  N   UNK N   1      35.575  14.152  12.103  0.00  0.00    -0.227 N 
HETATM   13  C   UNK N   1      35.914  13.848  13.454  0.00  0.00     0.667 C 
HETATM   14  N   UNK N   1      36.794  14.687  14.173  0.00  0.00    -0.235 N 
HETATM   15  N   UNK N   1      35.448  12.793  14.025  0.00  0.00    -0.223 N 
HETATM   16  H   UNK N   1      37.118  14.425  15.065  0.00  0.00     0.174 HD
HETATM   17  H   UNK N   1      37.086  15.540  13.779  0.00  0.00     0.174 HD
HETATM   18  H   UNK N   1      35.702  12.609  14.959  0.00  0.00     0.178 HD
HETATM   19  H   UNK N   1      34.872  13.625  11.658  0.00  0.00     0.177 HD
BRANCH  15  20
HETATM   20  C   UNK N   1      34.568  11.868  13.350  0.00  0.00     0.164 C 
BRANCH  20  21
HETATM   21  C   UNK N   1      33.877  10.944  14.315  0.00  0.00    -0.017 C 
HETATM   22  C   UNK N   1      34.426  10.560  15.469  0.00  0.00     0.008 C 
ENDBRANCH  20  21
ENDBRANCH  15  20
ENDBRANCH   1  12
TORSDOF 9
ENDMDL
MODEL 3
REMARK VINA RESULT:      -5.2      3.949      7.762
REMARK  9 active torsions:
REMARK  status: ('A' for Active; 'I' for Inactive)
REMARK    1  A    between atoms: C_2  and  N_1 
REMARK    2  A    between atoms: C_2  and  C_3 
REMARK    3  A    between atoms: C_2  and  C_13 
REMARK    4  A    between atoms: C_3  and  C_4 
REMARK    5  A    between atoms: C_4  and  C_5 
REMARK    6  A    between atoms: C_5  and  N_6 
REMARK       I    between atoms: N_6  and  C_7 
REMARK       I    between atoms: C_7  and  N_8 
REMARK    7  A    between atoms: N_9  and  C_10 
REMARK    8  A    between atoms: C_10  and  C_11 
REMARK    9  A    between atoms: C_13  and  O_14 
ROOT
HETATM    1  C   UNK N   1      33.113  15.217  10.135  0.00  0.00     0.138 C 
ENDROOT
BRANCH   1   2
HETATM    2  C   UNK N   1      33.527  14.821   8.730  0.00  0.00     0.023 C 
BRANCH   2   3
HETATM    3  C   UNK N   1      33.062  15.891   7.759  0.00  0.00     0.037 C 
BRANCH   3   4
HETATM    4  C   UNK N   1      33.159  17.268   8.395  0.00  0.00     0.173 C 
BRANCH   4   5
HETATM    5  N   UNK N   1      31.863  17.927   8.339  0.00  0.00    -0.418 N 
HETATM    6  H   UNK N   1      31.239  17.956   9.146  0.00  0.00     0.150 HD
HETATM    7  H   UNK N   1      31.570  18.372   7.470  0.00  0.00     0.150 HD
ENDBRANCH   4   5
BRANCH   4   8
HETATM    8  C   UNK N   1      34.205  18.094   7.703  0.00  0.00     0.163 C 
HETATM    9  O   UNK N   1      34.412  17.937   6.509  0.00  0.00    -0.648 OA
BRANCH   8  10
HETATM   10  O   UNK N   1      34.939  18.993   8.390  0.00  0.00    -0.775 OA
HETATM   11  H   UNK N   1      35.668  18.813   8.949  0.00  0.00     0.167 HD
ENDBRANCH   8  10
ENDBRANCH   4   8
ENDBRANCH   3   4
ENDBRANCH   2   3
ENDBRANCH   1   2
BRANCH   1  12
HETATM   12  N   UNK N   1      34.121  14.852  11.101  0.00  0.00    -0.227 N 
HETATM   13  C   UNK N   1      35.201  15.720  11.436  0.00  0.00     0.667 C 
HETATM   14  N   UNK N   1      35.227  17.045  10.946  0.00  0.00    -0.235 N 
HETATM   15  N   UNK N   1      36.179  15.302  12.161  0.00  0.00    -0.223 N 
HETATM   16  H   UNK N   1      36.020  17.613  11.081  0.00  0.00     0.174 HD
HETATM   17  H   UNK N   1      34.446  17.404  10.466  0.00  0.00     0.174 HD
HETATM   18  H   UNK N   1      36.911  15.925  12.374  0.00  0.00     0.178 HD
HETATM   19  H   UNK N   1      34.060  13.975  11.545  0.00  0.00     0.177 HD
BRANCH  15  20
HETATM   20  C   UNK N   1      36.243  13.953  12.675  0.00  0.00     0.164 C 
BRANCH  20  21
HETATM   21  C   UNK N   1      36.063  13.912  14.168  0.00  0.00    -0.017 C 
HETATM   22  C   UNK N   1      36.854  13.201  14.973  0.00  0.00     0.008 C 
ENDBRANCH  20  21
ENDBRANCH  15  20
ENDBRANCH   1  12
TORSDOF 9
ENDMDL
MODEL 4
REMARK VINA RESULT:      -5.1      7.513     10.406
REMARK  9 active torsions:
REMARK  status: ('A' for Active; 'I' for Inactive)
REMARK    1  A    between atoms: C_2  and  N_1 
REMARK    2  A    between atoms: C_2  and  C_3 
REMARK    3  A    between atoms: C_2  and  C_13 
REMARK    4  A    between atoms: C_3  and  C_4 
REMARK    5  A    between atoms: C_4  and  C_5 
REMARK    6  A    between atoms: C_5  and  N_6 
REMARK       I    between atoms: N_6  and  C_7 
REMARK       I    between atoms: C_7  and  N_8 
REMARK    7  A    between atoms: N_9  and  C_10 
REMARK    8  A    between atoms: C_10  and  C_11 
REMARK    9  A    between atoms: C_13  and  O_14 
ROOT
HETATM    1  C   UNK N   1      23.815  18.145   3.872  0.00  0.00     0.138 C 
ENDROOT
BRANCH   1   2
HETATM    2  C   UNK N   1      22.509  18.787   4.304  0.00  0.00     0.023 C 
BRANCH   2   3
HETATM    3  C   UNK N   1      21.435  18.453   3.284  0.00  0.00     0.037 C 
BRANCH   3   4
HETATM    4  C   UNK N   1      20.564  19.668   3.009  0.00  0.00     0.173 C 
BRANCH   4   5
HETATM    5  N   UNK N   1      19.333  19.251   2.355  0.00  0.00    -0.418 N 
HETATM    6  H   UNK N   1      18.886  19.822   1.637  0.00  0.00     0.150 HD
HETATM    7  H   UNK N   1      18.905  18.365   2.621  0.00  0.00     0.150 HD
ENDBRANCH   4   5
BRANCH   4   8
HETATM    8  C   UNK N   1      21.304  20.665   2.164  0.00  0.00     0.163 C 
HETATM    9  O   UNK N   1      21.394  20.491   0.958  0.00  0.00    -0.648 OA
BRANCH   8  10
HETATM   10  O   UNK N   1      21.893  21.740   2.725  0.00  0.00    -0.775 OA
HETATM   11  H   UNK N   1      22.369  21.763   3.531  0.00  0.00     0.167 HD
ENDBRANCH   8  10
ENDBRANCH   4   8
ENDBRANCH   3   4
ENDBRANCH   2   3
ENDBRANCH   1   2
BRANCH   1  12
HETATM   12  N   UNK N   1      24.951  18.900   4.343  0.00  0.00    -0.227 N 
HETATM   13  C   UNK N   1      25.481  20.007   3.617  0.00  0.00     0.667 C 
HETATM   14  N   UNK N   1      24.801  20.505   2.483  0.00  0.00    -0.235 N 
HETATM   15  N   UNK N   1      26.596  20.546   3.965  0.00  0.00    -0.223 N 
HETATM   16  H   UNK N   1      25.216  21.194   1.914  0.00  0.00     0.174 HD
HETATM   17  H   UNK N   1      23.907  20.161   2.259  0.00  0.00     0.174 HD
HETATM   18  H   UNK N   1      26.937  21.309   3.443  0.00  0.00     0.178 HD
HETATM   19  H   UNK N   1      25.373  18.643   5.195  0.00  0.00     0.177 HD
BRANCH  15  20
HETATM   20  C   UNK N   1      27.367  20.078   5.094  0.00  0.00     0.164 C 
BRANCH  20  21
HETATM   21  C   UNK N   1      27.501  21.131   6.159  0.00  0.00    -0.017 C 
HETATM   22  C   UNK N   1      26.457  21.614   6.835  0.00  0.00     0.008 C 
ENDBRANCH  20  21
ENDBRANCH  15  20
ENDBRANCH   1  12
TORSDOF 9
ENDMDL
MODEL 5
REMARK VINA RESULT:      -4.9      2.857      3.928
REMARK  9 active torsions:
REMARK  status: ('A' for Active; 'I' for Inactive)
REMARK    1  A    between atoms: C_2  and  N_1 
REMARK    2  A    between atoms: C_2  and  C_3 
REMARK    3  A    between atoms: C_2  and  C_13 
REMARK    4  A    between atoms: C_3  and  C_4 
REMARK    5  A    between atoms: C_4  and  C_5 
REMARK    6  A    between atoms: C_5  and  N_6 
REMARK       I    between atoms: N_6  and  C_7 
REMARK       I    between atoms: C_7  and  N_8 
REMARK    7  A    between atoms: N_9  and  C_10 
REMARK    8  A    between atoms: C_10  and  C_11 
REMARK    9  A    between atoms: C_13  and  O_14 
ROOT
HETATM    1  C   UNK N   1      33.652  15.458   7.418  0.00  0.00     0.138 C 
ENDROOT
BRANCH   1   2
HETATM    2  C   UNK N   1      33.646  14.412   8.517  0.00  0.00     0.023 C 
BRANCH   2   3
HETATM    3  C   UNK N   1      35.022  14.359   9.155  0.00  0.00     0.037 C 
BRANCH   3   4
HETATM    4  C   UNK N   1      34.959  14.820  10.602  0.00  0.00     0.173 C 
BRANCH   4   5
HETATM    5  N   UNK N   1      33.573  15.035  10.989  0.00  0.00    -0.418 N 
HETATM    6  H   UNK N   1      33.153  15.965  10.993  0.00  0.00     0.150 HD
HETATM    7  H   UNK N   1      33.004  14.234  11.264  0.00  0.00     0.150 HD
ENDBRANCH   4   5
BRANCH   4   8
HETATM    8  C   UNK N   1      35.763  16.076  10.789  0.00  0.00     0.163 C 
HETATM    9  O   UNK N   1      35.196  17.157  10.845  0.00  0.00    -0.648 OA
BRANCH   8  10
HETATM   10  O   UNK N   1      37.107  16.026  10.871  0.00  0.00    -0.775 OA
HETATM   11  H   UNK N   1      37.621  15.369  11.298  0.00  0.00     0.167 HD
ENDBRANCH   8  10
ENDBRANCH   4   8
ENDBRANCH   3   4
ENDBRANCH   2   3
ENDBRANCH   1   2
BRANCH   1  12
HETATM   12  N   UNK N   1      32.388  16.151   7.347  0.00  0.00    -0.227 N 
HETATM   13  C   UNK N   1      32.095  17.280   8.166  0.00  0.00     0.667 C 
HETATM   14  N   UNK N   1      33.104  17.861   8.966  0.00  0.00    -0.235 N 
HETATM   15  N   UNK N   1      30.903  17.765   8.212  0.00  0.00    -0.223 N 
HETATM   16  H   UNK N   1      32.883  18.569   9.614  0.00  0.00     0.174 HD
HETATM   17  H   UNK N   1      34.035  17.557   8.874  0.00  0.00     0.174 HD
HETATM   18  H   UNK N   1      30.731  18.545   8.788  0.00  0.00     0.178 HD
HETATM   19  H   UNK N   1      31.707  15.834   6.711  0.00  0.00     0.177 HD
BRANCH  15  20
HETATM   20  C   UNK N   1      29.809  17.211   7.449  0.00  0.00     0.164 C 
BRANCH  20  21
HETATM   21  C   UNK N   1      28.473  17.560   8.046  0.00  0.00    -0.017 C 
HETATM   22  C   UNK N   1      28.324  17.925   9.321  0.00  0.00     0.008 C 
ENDBRANCH  20  21
ENDBRANCH  15  20
ENDBRANCH   1  12
TORSDOF 9
ENDMDL
MODEL 6
REMARK VINA RESULT:      -4.8     11.936     14.061
REMARK  9 active torsions:
REMARK  status: ('A' for Active; 'I' for Inactive)
REMARK    1  A    between atoms: C_2  and  N_1 
REMARK    2  A    between atoms: C_2  and  C_3 
REMARK    3  A    between atoms: C_2  and  C_13 
REMARK    4  A    between atoms: C_3  and  C_4 
REMARK    5  A    between atoms: C_4  and  C_5 
REMARK    6  A    between atoms: C_5  and  N_6 
REMARK       I    between atoms: N_6  and  C_7 
REMARK       I    between atoms: C_7  and  N_8 
REMARK    7  A    between atoms: N_9  and  C_10 
REMARK    8  A    between atoms: C_10  and  C_11 
REMARK    9  A    between atoms: C_13  and  O_14 
ROOT
HETATM    1  C   UNK N   1      28.112  22.515  -6.626  0.00  0.00     0.138 C 
ENDROOT
BRANCH   1   2
HETATM    2  C   UNK N   1      29.358  22.031  -5.908  0.00  0.00     0.023 C 
BRANCH   2   3
HETATM    3  C   UNK N   1      29.871  23.141  -5.009  0.00  0.00     0.037 C 
BRANCH   3   4
HETATM    4  C   UNK N   1      30.446  22.566  -3.725  0.00  0.00     0.173 C 
BRANCH   4   5
HETATM    5  N   UNK N   1      30.420  21.112  -3.783  0.00  0.00    -0.418 N 
HETATM    6  H   UNK N   1      30.557  20.538  -2.951  0.00  0.00     0.150 HD
HETATM    7  H   UNK N   1      30.260  20.654  -4.680  0.00  0.00     0.150 HD
ENDBRANCH   4   5
BRANCH   4   8
HETATM    8  C   UNK N   1      29.676  23.064  -2.535  0.00  0.00     0.163 C 
HETATM    9  O   UNK N   1      30.188  23.037  -1.426  0.00  0.00    -0.648 OA
BRANCH   8  10
HETATM   10  O   UNK N   1      28.414  23.518  -2.673  0.00  0.00    -0.775 OA
HETATM   11  H   UNK N   1      28.005  23.812  -3.462  0.00  0.00     0.167 HD
ENDBRANCH   8  10
ENDBRANCH   4   8
ENDBRANCH   3   4
ENDBRANCH   2   3
ENDBRANCH   1   2
BRANCH   1  12
HETATM   12  N   UNK N   1      27.393  23.483  -5.833  0.00  0.00    -0.227 N 
HETATM   13  C   UNK N   1      25.971  23.576  -5.855  0.00  0.00     0.667 C 
HETATM   14  N   UNK N   1      25.204  22.604  -6.536  0.00  0.00    -0.235 N 
HETATM   15  N   UNK N   1      25.369  24.559  -5.281  0.00  0.00    -0.223 N 
HETATM   16  H   UNK N   1      24.233  22.722  -6.648  0.00  0.00     0.174 HD
HETATM   17  H   UNK N   1      25.644  21.804  -6.902  0.00  0.00     0.174 HD
HETATM   18  H   UNK N   1      24.385  24.596  -5.314  0.00  0.00     0.178 HD
HETATM   19  H   UNK N   1      27.902  24.099  -5.258  0.00  0.00     0.177 HD
BRANCH  15  20
HETATM   20  C   UNK N   1      26.080  25.609  -4.590  0.00  0.00     0.164 C 
BRANCH  20  21
HETATM   21  C   UNK N   1      25.526  26.969  -4.911  0.00  0.00    -0.017 C 
HETATM   22  C   UNK N   1      25.616  28.004  -4.074  0.00  0.00     0.008 C 
ENDBRANCH  20  21
ENDBRANCH  15  20
ENDBRANCH   1  12
TORSDOF 9
ENDMDL
MODEL 7
REMARK VINA RESULT:      -4.7      4.486      8.930
REMARK  9 active torsions:
REMARK  status: ('A' for Active; 'I' for Inactive)
REMARK    1  A    between atoms: C_2  and  N_1 
REMARK    2  A    between atoms: C_2  and  C_3 
REMARK    3  A    between atoms: C_2  and  C_13 
REMARK    4  A    between atoms: C_3  and  C_4 
REMARK    5  A    between atoms: C_4  and  C_5 
REMARK    6  A    between atoms: C_5  and  N_6 
REMARK       I    between atoms: N_6  and  C_7 
REMARK       I    between atoms: C_7  and  N_8 
REMARK    7  A    between atoms: N_9  and  C_10 
REMARK    8  A    between atoms: C_10  and  C_11 
REMARK    9  A    between atoms: C_13  and  O_14 
ROOT
HETATM    1  C   UNK N   1      36.388  15.577  10.729  0.00  0.00     0.138 C 
ENDROOT
BRANCH   1   2
HETATM    2  C   UNK N   1      35.210  16.508  10.513  0.00  0.00     0.023 C 
BRANCH   2   3
HETATM    3  C   UNK N   1      34.643  16.273   9.125  0.00  0.00     0.037 C 
BRANCH   3   4
HETATM    4  C   UNK N   1      33.454  17.186   8.871  0.00  0.00     0.173 C 
BRANCH   4   5
HETATM    5  N   UNK N   1      32.220  16.484   9.188  0.00  0.00    -0.418 N 
HETATM    6  H   UNK N   1      31.521  16.275   8.474  0.00  0.00     0.150 HD
HETATM    7  H   UNK N   1      32.047  16.193  10.150  0.00  0.00     0.150 HD
ENDBRANCH   4   5
BRANCH   4   8
HETATM    8  C   UNK N   1      33.447  17.656   7.445  0.00  0.00     0.163 C 
HETATM    9  O   UNK N   1      32.419  17.588   6.788  0.00  0.00    -0.648 OA
BRANCH   8  10
HETATM   10  O   UNK N   1      34.571  18.129   6.870  0.00  0.00    -0.775 OA
HETATM   11  H   UNK N   1      35.174  17.651   6.336  0.00  0.00     0.167 HD
ENDBRANCH   8  10
ENDBRANCH   4   8
ENDBRANCH   3   4
ENDBRANCH   2   3
ENDBRANCH   1   2
BRANCH   1  12
HETATM   12  N   UNK N   1      36.318  14.933  12.018  0.00  0.00    -0.227 N 
HETATM   13  C   UNK N   1      36.988  13.704  12.290  0.00  0.00     0.667 C 
HETATM   14  N   UNK N   1      37.884  13.157  11.344  0.00  0.00    -0.235 N 
HETATM   15  N   UNK N   1      36.765  13.063  13.384  0.00  0.00    -0.223 N 
HETATM   16  H   UNK N   1      38.264  12.258  11.477  0.00  0.00     0.174 HD
HETATM   17  H   UNK N   1      38.130  13.679  10.547  0.00  0.00     0.174 HD
HETATM   18  H   UNK N   1      37.242  12.216  13.542  0.00  0.00     0.178 HD
HETATM   19  H   UNK N   1      35.791  15.357  12.734  0.00  0.00     0.177 HD
BRANCH  15  20
HETATM   20  C   UNK N   1      35.842  13.539  14.388  0.00  0.00     0.164 C 
BRANCH  20  21
HETATM   21  C   UNK N   1      36.554  14.030  15.619  0.00  0.00    -0.017 C 
HETATM   22  C   UNK N   1      37.283  15.147  15.636  0.00  0.00     0.008 C 
ENDBRANCH  20  21
ENDBRANCH  15  20
ENDBRANCH   1  12
TORSDOF 9
ENDMDL
MODEL 8
REMARK VINA RESULT:      -4.7      9.893     11.852
REMARK  9 active torsions:
REMARK  status: ('A' for Active; 'I' for Inactive)
REMARK    1  A    between atoms: C_2  and  N_1 
REMARK    2  A    between atoms: C_2  and  C_3 
REMARK    3  A    between atoms: C_2  and  C_13 
REMARK    4  A    between atoms: C_3  and  C_4 
REMARK    5  A    between atoms: C_4  and  C_5 
REMARK    6  A    between atoms: C_5  and  N_6 
REMARK       I    between atoms: N_6  and  C_7 
REMARK       I    between atoms: C_7  and  N_8 
REMARK    7  A    between atoms: N_9  and  C_10 
REMARK    8  A    between atoms: C_10  and  C_11 
REMARK    9  A    between atoms: C_13  and  O_14 
ROOT
HETATM    1  C   UNK N   1      21.382  16.239   3.161  0.00  0.00     0.138 C 
ENDROOT
BRANCH   1   2
HETATM    2  C   UNK N   1      20.499  17.010   2.198  0.00  0.00     0.023 C 
BRANCH   2   3
HETATM    3  C   UNK N   1      19.623  17.964   2.990  0.00  0.00     0.037 C 
BRANCH   3   4
HETATM    4  C   UNK N   1      19.774  19.385   2.471  0.00  0.00     0.173 C 
BRANCH   4   5
HETATM    5  N   UNK N   1      20.359  19.361   1.139  0.00  0.00    -0.418 N 
HETATM    6  H   UNK N   1      21.366  19.441   0.992  0.00  0.00     0.150 HD
HETATM    7  H   UNK N   1      19.747  19.262   0.329  0.00  0.00     0.150 HD
ENDBRANCH   4   5
BRANCH   4   8
HETATM    8  C   UNK N   1      20.620  20.200   3.408  0.00  0.00     0.163 C 
HETATM    9  O   UNK N   1      20.884  19.767   4.519  0.00  0.00    -0.648 OA
BRANCH   8  10
HETATM   10  O   UNK N   1      21.071  21.417   3.045  0.00  0.00    -0.775 OA
HETATM   11  H   UNK N   1      20.572  22.109   2.658  0.00  0.00     0.167 HD
ENDBRANCH   8  10
ENDBRANCH   4   8
ENDBRANCH   3   4
ENDBRANCH   2   3
ENDBRANCH   1   2
BRANCH   1  12
HETATM   12  N   UNK N   1      21.105  16.600   4.531  0.00  0.00    -0.227 N 
HETATM   13  C   UNK N   1      22.122  16.626   5.529  0.00  0.00     0.667 C 
HETATM   14  N   UNK N   1      23.478  16.454   5.169  0.00  0.00    -0.235 N 
HETATM   15  N   UNK N   1      21.819  16.775   6.771  0.00  0.00    -0.223 N 
HETATM   16  H   UNK N   1      24.171  16.360   5.862  0.00  0.00     0.174 HD
HETATM   17  H   UNK N   1      23.731  16.427   4.219  0.00  0.00     0.174 HD
HETATM   18  H   UNK N   1      22.544  16.788   7.438  0.00  0.00     0.178 HD
HETATM   19  H   UNK N   1      20.184  16.838   4.783  0.00  0.00     0.177 HD
BRANCH  15  20
HETATM   20  C   UNK N   1      20.456  16.927   7.225  0.00  0.00     0.164 C 
BRANCH  20  21
HETATM   21  C   UNK N   1      20.283  16.469   8.647  0.00  0.00    -0.017 C 
HETATM   22  C   UNK N   1      20.238  15.182   8.993  0.00  0.00     0.008 C 
ENDBRANCH  20  21
ENDBRANCH  15  20
ENDBRANCH   1  12
TORSDOF 9
ENDMDL
MODEL 9
REMARK VINA RESULT:      -4.6      2.151      2.615
REMARK  9 active torsions:
REMARK  status: ('A' for Active; 'I' for Inactive)
REMARK    1  A    between atoms: C_2  and  N_1 
REMARK    2  A    between atoms: C_2  and  C_3 
REMARK    3  A    between atoms: C_2  and  C_13 
REMARK    4  A    between atoms: C_3  and  C_4 
REMARK    5  A    between atoms: C_4  and  C_5 
REMARK    6  A    between atoms: C_5  and  N_6 
REMARK       I    between atoms: N_6  and  C_7 
REMARK       I    between atoms: C_7  and  N_8 
REMARK    7  A    between atoms: N_9  and  C_10 
REMARK    8  A    between atoms: C_10  and  C_11 
REMARK    9  A    between atoms: C_13  and  O_14 
ROOT
HETATM    1  C   UNK N   1      30.482  16.594   6.866  0.00  0.00     0.138 C 
ENDROOT
BRANCH   1   2
HETATM    2  C   UNK N   1      31.220  17.391   7.926  0.00  0.00     0.023 C 
BRANCH   2   3
HETATM    3  C   UNK N   1      32.659  17.584   7.485  0.00  0.00     0.037 C 
BRANCH   3   4
HETATM    4  C   UNK N   1      33.575  17.714   8.691  0.00  0.00     0.173 C 
BRANCH   4   5
HETATM    5  N   UNK N   1      34.673  18.616   8.379  0.00  0.00    -0.418 N 
HETATM    6  H   UNK N   1      35.231  19.058   9.111  0.00  0.00     0.150 HD
HETATM    7  H   UNK N   1      34.892  18.813   7.403  0.00  0.00     0.150 HD
ENDBRANCH   4   5
BRANCH   4   8
HETATM    8  C   UNK N   1      34.095  16.367   9.104  0.00  0.00     0.163 C 
HETATM    9  O   UNK N   1      34.957  15.817   8.435  0.00  0.00    -0.648 OA
BRANCH   8  10
HETATM   10  O   UNK N   1      33.603  15.743  10.194  0.00  0.00    -0.775 OA
HETATM   11  H   UNK N   1      32.924  15.098  10.214  0.00  0.00     0.167 HD
ENDBRANCH   8  10
ENDBRANCH   4   8
ENDBRANCH   3   4
ENDBRANCH   2   3
ENDBRANCH   1   2
BRANCH   1  12
HETATM   12  N   UNK N   1      29.451  17.384   6.239  0.00  0.00    -0.227 N 
HETATM   13  C   UNK N   1      29.616  17.959   4.945  0.00  0.00     0.667 C 
HETATM   14  N   UNK N   1      30.745  17.633   4.160  0.00  0.00    -0.235 N 
HETATM   15  N   UNK N   1      28.759  18.803   4.488  0.00  0.00    -0.223 N 
HETATM   16  H   UNK N   1      30.922  18.109   3.316  0.00  0.00     0.174 HD
HETATM   17  H   UNK N   1      31.360  16.926   4.460  0.00  0.00     0.174 HD
HETATM   18  H   UNK N   1      28.902  19.184   3.590  0.00  0.00     0.178 HD
HETATM   19  H   UNK N   1      28.604  17.530   6.720  0.00  0.00     0.177 HD
BRANCH  15  20
HETATM   20  C   UNK N   1      27.595  19.212   5.238  0.00  0.00     0.164 C 
BRANCH  20  21
HETATM   21  C   UNK N   1      27.456  20.709   5.290  0.00  0.00    -0.017 C 
HETATM   22  C   UNK N   1      27.156  21.370   6.409  0.00  0.00     0.008 C 
ENDBRANCH  20  21
ENDBRANCH  15  20
ENDBRANCH   1  12
TORSDOF 9
ENDMDL
