REMARK  16 active torsions:
REMARK  status: ('A' for Active; 'I' for Inactive)
REMARK    1  A    between atoms: N_2  and  C_4 
REMARK    2  A    between atoms: C_4  and  C_5 
REMARK    3  A    between atoms: C_5  and  C_6 
REMARK    4  A    between atoms: C_6  and  C_7 
REMARK    5  A    between atoms: C_9  and  C_10 
REMARK    6  A    between atoms: C_10  and  C_11 
REMARK    7  A    between atoms: C_11  and  C_12 
REMARK    8  A    between atoms: C_14  and  C_15 
REMARK    9  A    between atoms: C_15  and  C_16 
REMARK   10  A    between atoms: C_16  and  C_17 
REMARK   11  A    between atoms: C_18  and  C_20 
REMARK   12  A    between atoms: C_20  and  C_21 
REMARK   13  A    between atoms: C_21  and  C_22 
REMARK   14  A    between atoms: C_23  and  C_25 
REMARK   15  A    between atoms: C_25  and  C_26 
REMARK   16  A    between atoms: C_26  and  C_27 
ROOT
HETATM    1  C   UNK N   1       7.711   2.025  -1.319  0.00  0.00     0.031 C 
ENDROOT
BRANCH   1   2
HETATM    2  C   UNK N   1       6.956   0.801  -0.881  0.00  0.00    -0.024 C 
HETATM    3  C   UNK N   1       6.094   0.779   0.151  0.00  0.00    -0.087 C 
HETATM    4  C   UNK N   1       5.826   1.995   0.982  0.00  0.00     0.043 C 
BRANCH   3   5
HETATM    5  C   UNK N   1       5.418  -0.501   0.524  0.00  0.00     0.037 C 
BRANCH   5   6
HETATM    6  C   UNK N   1       4.449  -0.948  -0.560  0.00  0.00     0.031 C 
BRANCH   6   7
HETATM    7  C   UNK N   1       3.046  -0.935  -0.030  0.00  0.00    -0.024 C 
HETATM    8  C   UNK N   1       2.325   0.185   0.117  0.00  0.00    -0.087 C 
HETATM    9  C   UNK N   1       2.873   1.529  -0.253  0.00  0.00     0.043 C 
BRANCH   8  10
HETATM   10  C   UNK N   1       0.949   0.088   0.685  0.00  0.00     0.035 C 
BRANCH  10  11
HETATM   11  C   UNK N   1      -0.071   0.635  -0.294  0.00  0.00     0.034 C 
BRANCH  11  12
HETATM   12  C   UNK N   1      -1.447   0.592   0.341  0.00  0.00     0.271 C 
BRANCH  12  13
HETATM   13  N   UNK N   1      -2.373   1.416  -0.419  0.00  0.00     0.080 N 
HETATM   14  C   UNK N   1      -3.712   0.970  -0.084  0.00  0.00     0.309 C 
HETATM   15  C   UNK N   1      -2.250   2.780   0.071  0.00  0.00     0.309 C 
ENDBRANCH  12  13
ENDBRANCH  11  12
ENDBRANCH  10  11
ENDBRANCH   8  10
ENDBRANCH   6   7
ENDBRANCH   5   6
ENDBRANCH   3   5
ENDBRANCH   1   2
BRANCH   1  16
HETATM   16  C   UNK N   1       8.577   2.601  -0.203  0.00  0.00     0.031 C 
BRANCH  16  17
HETATM   17  C   UNK N   1       9.955   2.005  -0.131  0.00  0.00    -0.024 C 
HETATM   18  C   UNK N   1      10.240   0.806   0.404  0.00  0.00    -0.087 C 
HETATM   19  C   UNK N   1       9.187  -0.066   1.004  0.00  0.00     0.043 C 
BRANCH  18  20
HETATM   20  C   UNK N   1      11.663   0.375   0.524  0.00  0.00     0.037 C 
BRANCH  20  21
HETATM   21  C   UNK N   1      12.342   0.211  -0.825  0.00  0.00     0.031 C 
BRANCH  21  22
HETATM   22  C   UNK N   1      13.746   0.733  -0.744  0.00  0.00    -0.024 C 
HETATM   23  C   UNK N   1      14.718   0.182   0.012  0.00  0.00    -0.087 C 
HETATM   24  C   UNK N   1      14.456  -1.043   0.828  0.00  0.00     0.043 C 
BRANCH  23  25
HETATM   25  C   UNK N   1      16.102   0.779   0.060  0.00  0.00     0.037 C 
BRANCH  25  26
HETATM   26  C   UNK N   1      16.266   2.040  -0.780  0.00  0.00     0.031 C 
BRANCH  26  27
HETATM   27  C   UNK N   1      16.367   3.245   0.103  0.00  0.00    -0.024 C 
HETATM   28  C   UNK N   1      15.390   4.156   0.199  0.00  0.00    -0.091 C 
HETATM   29  C   UNK N   1      14.104   4.014  -0.551  0.00  0.00     0.042 C 
HETATM   30  C   UNK N   1      15.583   5.339   1.081  0.00  0.00     0.042 C 
ENDBRANCH  26  27
ENDBRANCH  25  26
ENDBRANCH  23  25
ENDBRANCH  21  22
ENDBRANCH  20  21
ENDBRANCH  18  20
ENDBRANCH  16  17
ENDBRANCH   1  16
TORSDOF 16
