REMARK  28 active torsions:
REMARK  status: ('A' for Active; 'I' for Inactive)
REMARK    1  A    between atoms: C_8  and  C_1 
REMARK    2  A    between atoms: O_43  and  C_1 
REMARK    3  A    between atoms: C_9  and  C_2 
REMARK    4  A    between atoms: O_44  and  C_2 
REMARK    5  A    between atoms: C_10  and  C_3 
REMARK    6  A    between atoms: O_45  and  C_3 
REMARK    7  A    between atoms: C_11  and  C_4 
REMARK    8  A    between atoms: O_46  and  C_4 
REMARK    9  A    between atoms: C_12  and  C_5 
REMARK   10  A    between atoms: O_47  and  C_5 
REMARK   11  A    between atoms: C_13  and  C_6 
REMARK   12  A    between atoms: O_48  and  C_6 
REMARK   13  A    between atoms: C_14  and  C_7 
REMARK   14  A    between atoms: O_49  and  C_7 
REMARK   15  A    between atoms: C_15  and  O_50 
REMARK   16  A    between atoms: C_16  and  O_51 
REMARK   17  A    between atoms: C_17  and  O_52 
REMARK   18  A    between atoms: C_18  and  O_53 
REMARK   19  A    between atoms: C_19  and  O_54 
REMARK   20  A    between atoms: C_20  and  O_55 
REMARK   21  A    between atoms: C_21  and  O_56 
REMARK   22  A    between atoms: C_22  and  O_57 
REMARK   23  A    between atoms: C_23  and  O_58 
REMARK   24  A    between atoms: C_24  and  O_59 
REMARK   25  A    between atoms: C_25  and  O_60 
REMARK   26  A    between atoms: C_26  and  O_61 
REMARK   27  A    between atoms: C_27  and  O_62 
REMARK   28  A    between atoms: C_28  and  O_63 
ROOT
HETATM    1  C   UNK N   1      11.979   1.467   0.183  0.00  0.00     0.180 C 
HETATM    2  C   UNK N   1       9.213  -1.413  -0.935  0.00  0.00     0.180 C 
HETATM    3  C   UNK N   1      12.813   4.691  -1.781  0.00  0.00     0.180 C 
HETATM    4  C   UNK N   1       6.167   0.271  -0.477  0.00  0.00     0.180 C 
HETATM    5  C   UNK N   1      10.954   9.070   0.045  0.00  0.00     0.180 C 
HETATM    6  C   UNK N   1       4.289   3.804  -0.941  0.00  0.00     0.180 C 
HETATM    7  C   UNK N   1       5.903   7.070   0.788  0.00  0.00     0.180 C 
HETATM    8  C   UNK N   1      14.207   0.337  -0.164  0.00  0.00     0.183 C 
HETATM    9  C   UNK N   1      14.838   5.678  -0.703  0.00  0.00     0.183 C 
HETATM   10  C   UNK N   1       9.662  -3.676  -0.032  0.00  0.00     0.183 C 
HETATM   11  C   UNK N   1       9.788   6.878   0.056  0.00  0.00     0.183 C 
HETATM   12  C   UNK N   1       4.562  -1.619  -0.597  0.00  0.00     0.183 C 
HETATM   13  C   UNK N   1       4.857   8.633  -0.899  0.00  0.00     0.183 C 
HETATM   14  C   UNK N   1       2.190   3.487   0.453  0.00  0.00     0.183 C 
HETATM   15  C   UNK N   1      13.574  -0.989   0.304  0.00  0.00     0.204 C 
HETATM   16  C   UNK N   1      15.503   4.314  -1.021  0.00  0.00     0.204 C 
HETATM   17  C   UNK N   1       8.179  -3.824   0.352  0.00  0.00     0.204 C 
HETATM   18  C   UNK N   1      10.875   6.385   1.006  0.00  0.00     0.204 C 
HETATM   19  C   UNK N   1       3.395  -0.607  -0.733  0.00  0.00     0.204 C 
HETATM   20  C   UNK N   1       6.200   9.407  -0.857  0.00  0.00     0.204 C 
HETATM   21  C   UNK N   1       2.057   5.036   0.280  0.00  0.00     0.204 C 
HETATM   22  C   UNK N   1      13.504   1.515   0.527  0.00  0.00     0.187 C 
HETATM   23  C   UNK N   1      10.055  -2.212   0.116  0.00  0.00     0.187 C 
HETATM   24  C   UNK N   1      13.317   5.543  -0.585  0.00  0.00     0.187 C 
HETATM   25  C   UNK N   1       5.665  -0.996   0.265  0.00  0.00     0.187 C 
HETATM   26  C   UNK N   1       9.574   8.399   0.304  0.00  0.00     0.187 C 
HETATM   27  C   UNK N   1       3.656   3.007   0.271  0.00  0.00     0.187 C 
HETATM   28  C   UNK N   1       4.591   7.850   0.411  0.00  0.00     0.187 C 
HETATM   29  C   UNK N   1      12.021  -0.887   0.405  0.00  0.00     0.292 C 
HETATM   30  C   UNK N   1      14.499   3.133  -1.002  0.00  0.00     0.292 C 
HETATM   31  C   UNK N   1       7.291  -2.721  -0.300  0.00  0.00     0.292 C 
HETATM   32  C   UNK N   1      12.178   7.147   0.729  0.00  0.00     0.292 C 
HETATM   33  C   UNK N   1       3.875   0.876  -0.863  0.00  0.00     0.292 C 
HETATM   34  C   UNK N   1       7.308   8.414  -0.483  0.00  0.00     0.292 C 
HETATM   35  C   UNK N   1       3.445   5.700   0.294  0.00  0.00     0.292 C 
HETATM   36  O   UNK N   1      11.549   0.214  -0.346  0.00  0.00    -0.348 OA
HETATM   37  O   UNK N   1      13.396   3.383  -1.869  0.00  0.00    -0.348 OA
HETATM   38  O   UNK N   1       7.982  -2.033  -1.325  0.00  0.00    -0.348 OA
HETATM   39  O   UNK N   1      11.981   8.549   0.885  0.00  0.00    -0.348 OA
HETATM   40  O   UNK N   1       5.212   0.945  -1.306  0.00  0.00    -0.348 OA
HETATM   41  O   UNK N   1       7.003   7.960   0.823  0.00  0.00    -0.348 OA
HETATM   42  O   UNK N   1       4.161   5.224  -0.844  0.00  0.00    -0.348 OA
HETATM   43  O   UNK N   1      14.076   2.820   0.332  0.00  0.00    -0.348 OA
HETATM   44  O   UNK N   1      11.459  -2.095  -0.089  0.00  0.00    -0.348 OA
HETATM   45  O   UNK N   1      12.703   6.837  -0.562  0.00  0.00    -0.348 OA
HETATM   46  O   UNK N   1       6.765  -1.828   0.683  0.00  0.00    -0.348 OA
HETATM   47  O   UNK N   1       8.596   9.021  -0.538  0.00  0.00    -0.348 OA
HETATM   48  O   UNK N   1       3.747   1.577   0.360  0.00  0.00    -0.348 OA
HETATM   49  O   UNK N   1       3.353   7.113   0.258  0.00  0.00    -0.348 OA
ENDROOT
BRANCH   1  50
HETATM   50  C   UNK N   1      11.089   1.889   1.355  0.00  0.00     0.198 C 
BRANCH  50  51
HETATM   51  O   UNK N   1      11.489   3.119   1.874  0.00  0.00    -0.398 OA
HETATM   52  H   UNK N   1      12.369   3.306   2.234  0.00  0.00     0.209 HD
ENDBRANCH  50  51
ENDBRANCH   1  50
BRANCH   8  53
HETATM   53  O   UNK N   1      15.578   0.328   0.115  0.00  0.00    -0.390 OA
HETATM   54  H   UNK N   1      16.048  -0.498   0.308  0.00  0.00     0.210 HD
ENDBRANCH   8  53
BRANCH  15  55
HETATM   55  O   UNK N   1      13.969  -1.995  -0.583  0.00  0.00    -0.388 OA
HETATM   56  H   UNK N   1      13.502  -2.581  -1.199  0.00  0.00     0.210 HD
ENDBRANCH  15  55
BRANCH  16  57
HETATM   57  O   UNK N   1      16.061   4.383  -2.303  0.00  0.00    -0.388 OA
HETATM   58  H   UNK N   1      16.296   4.073  -3.191  0.00  0.00     0.210 HD
ENDBRANCH  16  57
BRANCH   9  59
HETATM   59  O   UNK N   1      15.361   6.219   0.473  0.00  0.00    -0.390 OA
HETATM   60  H   UNK N   1      15.868   6.092   1.291  0.00  0.00     0.210 HD
ENDBRANCH   9  59
BRANCH   3  61
HETATM   61  C   UNK N   1      11.300   4.528  -1.710  0.00  0.00     0.198 C 
BRANCH  61  62
HETATM   62  O   UNK N   1      10.826   3.827  -2.819  0.00  0.00    -0.398 OA
HETATM   63  H   UNK N   1      10.239   3.869  -3.590  0.00  0.00     0.209 HD
ENDBRANCH  61  62
ENDBRANCH   3  61
BRANCH   2  64
HETATM   64  C   UNK N   1       9.996  -1.239  -2.235  0.00  0.00     0.198 C 
BRANCH  64  65
HETATM   65  O   UNK N   1       9.335  -0.339  -3.075  0.00  0.00    -0.398 OA
HETATM   66  H   UNK N   1       9.647   0.371  -3.657  0.00  0.00     0.209 HD
ENDBRANCH  64  65
ENDBRANCH   2  64
BRANCH  10  67
HETATM   67  O   UNK N   1      10.446  -4.493   0.788  0.00  0.00    -0.390 OA
HETATM   68  H   UNK N   1      10.227  -5.247   1.357  0.00  0.00     0.210 HD
ENDBRANCH  10  67
BRANCH  17  69
HETATM   69  O   UNK N   1       7.747  -5.101  -0.022  0.00  0.00    -0.388 OA
HETATM   70  H   UNK N   1       6.830  -5.284  -0.281  0.00  0.00     0.210 HD
ENDBRANCH  17  69
BRANCH  18  71
HETATM   71  O   UNK N   1      10.486   6.582   2.336  0.00  0.00    -0.388 OA
HETATM   72  H   UNK N   1      10.470   6.883   3.258  0.00  0.00     0.210 HD
ENDBRANCH  18  71
BRANCH  11  73
HETATM   73  O   UNK N   1       8.657   6.100   0.288  0.00  0.00    -0.390 OA
HETATM   74  H   UNK N   1       7.793   6.513   0.449  0.00  0.00     0.210 HD
ENDBRANCH  11  73
BRANCH   5  75
HETATM   75  C   UNK N   1      10.839  10.567   0.315  0.00  0.00     0.198 C 
BRANCH  75  76
HETATM   76  O   UNK N   1      12.055  11.204   0.059  0.00  0.00    -0.398 OA
HETATM   77  H   UNK N   1      12.860  10.694  -0.119  0.00  0.00     0.209 HD
ENDBRANCH  75  76
ENDBRANCH   5  75
BRANCH   4  78
HETATM   78  C   UNK N   1       6.942   1.187   0.475  0.00  0.00     0.198 C 
BRANCH  78  79
HETATM   79  O   UNK N   1       6.174   1.565   1.578  0.00  0.00    -0.398 OA
HETATM   80  H   UNK N   1       6.134   2.158   2.345  0.00  0.00     0.209 HD
ENDBRANCH  78  79
ENDBRANCH   4  78
BRANCH  12  81
HETATM   81  O   UNK N   1       4.087  -2.812  -0.044  0.00  0.00    -0.390 OA
HETATM   82  H   UNK N   1       3.205  -2.940   0.339  0.00  0.00     0.210 HD
ENDBRANCH  12  81
BRANCH  19  83
HETATM   83  O   UNK N   1       2.629  -0.977  -1.843  0.00  0.00    -0.388 OA
HETATM   84  H   UNK N   1       2.142  -0.645  -2.614  0.00  0.00     0.210 HD
ENDBRANCH  19  83
BRANCH  20  85
HETATM   85  O   UNK N   1       6.457   9.983  -2.103  0.00  0.00    -0.388 OA
HETATM   86  H   UNK N   1       6.893  10.028  -2.968  0.00  0.00     0.210 HD
ENDBRANCH  20  85
BRANCH  13  87
HETATM   87  O   UNK N   1       3.806   9.521  -1.146  0.00  0.00    -0.390 OA
HETATM   88  H   UNK N   1       3.975  10.460  -1.317  0.00  0.00     0.210 HD
ENDBRANCH  13  87
BRANCH   7  89
HETATM   89  C   UNK N   1       5.875   6.375   2.149  0.00  0.00     0.198 C 
BRANCH  89  90
HETATM   90  O   UNK N   1       5.737   7.297   3.185  0.00  0.00    -0.398 OA
HETATM   91  H   UNK N   1       6.246   7.701   3.906  0.00  0.00     0.209 HD
ENDBRANCH  89  90
ENDBRANCH   7  89
BRANCH   6  92
HETATM   92  C   UNK N   1       5.772   3.531  -1.158  0.00  0.00     0.198 C 
BRANCH  92  93
HETATM   93  O   UNK N   1       6.528   3.946  -0.064  0.00  0.00    -0.398 OA
HETATM   94  H   UNK N   1       7.041   3.634   0.698  0.00  0.00     0.209 HD
ENDBRANCH  92  93
ENDBRANCH   6  92
BRANCH  14  95
HETATM   95  O   UNK N   1       1.757   3.088   1.722  0.00  0.00    -0.390 OA
HETATM   96  H   UNK N   1       1.368   3.210   2.602  0.00  0.00     0.210 HD
ENDBRANCH  14  95
BRANCH  21  97
HETATM   97  O   UNK N   1       1.227   5.585   1.266  0.00  0.00    -0.388 OA
HETATM   98  H   UNK N   1       1.269   6.273   1.948  0.00  0.00     0.210 HD
ENDBRANCH  21  97
TORSDOF 28
