MODEL 1
REMARK VINA RESULT:      -8.5      0.000      0.000
REMARK  11 active torsions:
REMARK  status: ('A' for Active; 'I' for Inactive)
REMARK    1  A    between atoms: C_6  and  C_7 
REMARK    2  A    between atoms: C_20  and  C_21 
REMARK    3  A    between atoms: C_21  and  C_22 
REMARK    4  A    between atoms: C_22  and  C_23 
REMARK    5  A    between atoms: C_23  and  O_24 
REMARK    6  A    between atoms: C_28  and  C_29 
REMARK    7  A    between atoms: C_37  and  C_38 
REMARK    8  A    between atoms: C_38  and  C_39 
REMARK    9  A    between atoms: C_39  and  C_40 
REMARK   10  A    between atoms: C_40  and  O_41 
REMARK   11  A    between atoms: C_45  and  C_46 
ROOT
HETATM    1  C   UNK N   1      34.502  12.956   4.534  0.00  0.00     0.051 C 
HETATM    2  C   UNK N   1      33.177  13.423   5.054  0.00  0.00    -0.025 C 
HETATM    3  C   UNK N   1      32.092  13.590   4.266  0.00  0.00     0.066 C 
HETATM    4  C   UNK N   1      32.049  13.088   2.915  0.00  0.00     0.064 C 
HETATM    5  C   UNK N   1      30.922  13.106   2.252  0.00  0.00     0.070 C 
HETATM    6  C   UNK N   1      30.534  12.038   1.371  0.00  0.00     0.000 C 
HETATM    7  C   UNK N   1      29.205  12.056   1.348  0.00  0.00    -0.021 C 
HETATM    8  C   UNK N   1      28.317  10.988   0.822  0.00  0.00     0.052 C 
HETATM    9  C   UNK N   1      28.764  13.230   2.081  0.00  0.00     0.066 C 
HETATM   10  N   UNK N   1      29.762  13.768   2.646  0.00  0.00    -0.248 N 
HETATM   11 Fe   UNK N   1      29.537  15.016   4.061  0.00  0.00     0.000 Fe
HETATM   12  N   UNK N   1      27.954  15.709   3.215  0.00  0.00    -0.248 N 
HETATM   13  C   UNK N   1      27.334  16.858   3.471  0.00  0.00     0.066 C 
HETATM   14  C   UNK N   1      27.679  17.720   4.327  0.00  0.00     0.064 C 
HETATM   15  C   UNK N   1      28.497  17.314   5.396  0.00  0.00     0.066 A 
HETATM   16  N   UNK N   1      29.283  16.299   5.488  0.00  0.00    -0.251 N 
HETATM   17  C   UNK N   1      29.961  16.388   6.696  0.00  0.00     0.056 A 
HETATM   18  C   UNK N   1      29.444  17.640   7.325  0.00  0.00    -0.024 A 
HETATM   19  C   UNK N   1      28.518  18.129   6.530  0.00  0.00    -0.025 A 
HETATM   20  C   UNK N   1      27.767  19.432   6.648  0.00  0.00     0.051 C 
HETATM   21  C   UNK N   1      31.085  15.671   6.963  0.00  0.00     0.123 C 
HETATM   22  C   UNK N   1      31.595  14.553   6.121  0.00  0.00     0.056 C 
HETATM   23  N   UNK N   1      31.141  14.303   4.901  0.00  0.00    -0.251 N 
HETATM   24  C   UNK N   1      32.854  13.933   6.291  0.00  0.00    -0.024 C 
HETATM   25  C   UNK N   1      26.054  16.823   3.093  0.00  0.00    -0.021 C 
HETATM   26  C   UNK N   1      25.029  17.861   3.440  0.00  0.00     0.052 C 
HETATM   27  C   UNK N   1      25.852  15.553   2.633  0.00  0.00     0.000 C 
HETATM   28  C   UNK N   1      27.086  14.921   2.612  0.00  0.00     0.070 C 
HETATM   29  C   UNK N   1      27.369  13.678   2.225  0.00  0.00     0.064 C 
ENDROOT
BRANCH  18  30
HETATM   30  C   UNK N   1      29.953  18.457   8.407  0.00  0.00     0.051 C 
BRANCH  30  31
HETATM   31  C   UNK N   1      28.754  18.405   9.351  0.00  0.00     0.114 C 
BRANCH  31  32
HETATM   32  C   UNK N   1      28.751  17.136  10.037  0.00  0.00     0.139 C 
HETATM   33  O   UNK N   1      27.729  16.480  10.064  0.00  0.00    -0.650 OA
BRANCH  32  34
HETATM   34  O   UNK N   1      29.845  16.734  10.701  0.00  0.00    -0.776 OA
HETATM   35  H   UNK N   1      30.385  16.009  10.455  0.00  0.00     0.167 HD
ENDBRANCH  32  34
ENDBRANCH  31  32
ENDBRANCH  30  31
ENDBRANCH  18  30
BRANCH  21  36
HETATM   36  C   UNK N   1      32.188  16.570   7.155  0.00  0.00    -0.042 A 
HETATM   37  C   UNK N   1      32.930  17.217   6.187  0.00  0.00     0.008 A 
HETATM   38  C   UNK N   1      34.050  17.945   6.602  0.00  0.00     0.001 A 
HETATM   39  C   UNK N   1      34.416  18.005   7.959  0.00  0.00     0.000 A 
HETATM   40  C   UNK N   1      33.672  17.347   8.921  0.00  0.00     0.001 A 
HETATM   41  C   UNK N   1      32.590  16.632   8.514  0.00  0.00     0.008 A 
ENDBRANCH  21  36
BRANCH  24  42
HETATM   42  C   UNK N   1      33.770  14.007   7.492  0.00  0.00     0.051 C 
BRANCH  42  43
HETATM   43  C   UNK N   1      33.338  13.095   8.649  0.00  0.00     0.114 C 
BRANCH  43  44
HETATM   44  C   UNK N   1      34.189  13.315   9.865  0.00  0.00     0.139 C 
HETATM   45  O   UNK N   1      35.230  12.692  10.010  0.00  0.00    -0.650 OA
BRANCH  44  46
HETATM   46  O   UNK N   1      33.780  14.160  10.827  0.00  0.00    -0.776 OA
HETATM   47  H   UNK N   1      32.888  14.192  11.110  0.00  0.00     0.167 HD
ENDBRANCH  44  46
ENDBRANCH  43  44
ENDBRANCH  42  43
ENDBRANCH  24  42
BRANCH   6  48
HETATM   48  C   UNK N   1      31.365  10.961   0.860  0.00  0.00     0.004 C 
HETATM   49  C   UNK N   1      31.942  11.101  -0.326  0.00  0.00     0.012 C 
ENDBRANCH   6  48
BRANCH  27  50
HETATM   50  C   UNK N   1      24.552  14.991   2.367  0.00  0.00     0.004 C 
HETATM   51  C   UNK N   1      24.241  14.621   1.141  0.00  0.00     0.012 C 
ENDBRANCH  27  50
TORSDOF 11
ENDMDL
MODEL 2
REMARK VINA RESULT:      -8.5      1.479      2.147
REMARK  11 active torsions:
REMARK  status: ('A' for Active; 'I' for Inactive)
REMARK    1  A    between atoms: C_6  and  C_7 
REMARK    2  A    between atoms: C_20  and  C_21 
REMARK    3  A    between atoms: C_21  and  C_22 
REMARK    4  A    between atoms: C_22  and  C_23 
REMARK    5  A    between atoms: C_23  and  O_24 
REMARK    6  A    between atoms: C_28  and  C_29 
REMARK    7  A    between atoms: C_37  and  C_38 
REMARK    8  A    between atoms: C_38  and  C_39 
REMARK    9  A    between atoms: C_39  and  C_40 
REMARK   10  A    between atoms: C_40  and  O_41 
REMARK   11  A    between atoms: C_45  and  C_46 
ROOT
HETATM    1  C   UNK N   1      33.178  12.132   2.639  0.00  0.00     0.051 C 
HETATM    2  C   UNK N   1      32.034  12.645   3.460  0.00  0.00    -0.025 C 
HETATM    3  C   UNK N   1      30.779  12.772   2.977  0.00  0.00     0.066 C 
HETATM    4  C   UNK N   1      30.384  12.186   1.720  0.00  0.00     0.064 C 
HETATM    5  C   UNK N   1      29.122  12.174   1.378  0.00  0.00     0.070 C 
HETATM    6  C   UNK N   1      28.522  11.055   0.702  0.00  0.00     0.000 C 
HETATM    7  C   UNK N   1      27.234  11.086   1.029  0.00  0.00    -0.021 C 
HETATM    8  C   UNK N   1      26.247   9.996   0.826  0.00  0.00     0.052 C 
HETATM    9  C   UNK N   1      26.994  12.308   1.776  0.00  0.00     0.066 C 
HETATM   10  N   UNK N   1      28.103  12.871   2.021  0.00  0.00    -0.248 N 
HETATM   11 Fe   UNK N   1      28.251  14.208   3.362  0.00  0.00     0.000 Fe
HETATM   12  N   UNK N   1      26.495  14.863   2.921  0.00  0.00    -0.248 N 
HETATM   13  C   UNK N   1      25.957  16.032   3.257  0.00  0.00     0.066 C 
HETATM   14  C   UNK N   1      26.510  16.943   3.935  0.00  0.00     0.064 C 
HETATM   15  C   UNK N   1      27.584  16.598   4.774  0.00  0.00     0.066 A 
HETATM   16  N   UNK N   1      28.373  15.583   4.720  0.00  0.00    -0.251 N 
HETATM   17  C   UNK N   1      29.345  15.742   5.698  0.00  0.00     0.056 A 
HETATM   18  C   UNK N   1      29.005  17.037   6.359  0.00  0.00    -0.024 A 
HETATM   19  C   UNK N   1      27.898  17.483   5.807  0.00  0.00    -0.025 A 
HETATM   20  C   UNK N   1      27.196  18.799   6.036  0.00  0.00     0.051 C 
HETATM   21  C   UNK N   1      30.505  15.031   5.704  0.00  0.00     0.123 C 
HETATM   22  C   UNK N   1      30.783  13.857   4.831  0.00  0.00     0.056 C 
HETATM   23  N   UNK N   1      30.024  13.534   3.793  0.00  0.00    -0.251 N 
HETATM   24  C   UNK N   1      32.046  13.236   4.703  0.00  0.00    -0.024 C 
HETATM   25  C   UNK N   1      24.623  15.987   3.234  0.00  0.00    -0.021 C 
HETATM   26  C   UNK N   1      23.719  17.055   3.772  0.00  0.00     0.052 C 
HETATM   27  C   UNK N   1      24.316  14.691   2.926  0.00  0.00     0.000 C 
HETATM   28  C   UNK N   1      25.504  14.047   2.621  0.00  0.00     0.070 C 
HETATM   29  C   UNK N   1      25.684  12.779   2.254  0.00  0.00     0.064 C 
ENDROOT
BRANCH  18  30
HETATM   30  C   UNK N   1      29.775  17.915   7.214  0.00  0.00     0.051 C 
BRANCH  30  31
HETATM   31  C   UNK N   1      29.544  17.231   8.559  0.00  0.00     0.114 C 
BRANCH  31  32
HETATM   32  C   UNK N   1      28.871  18.149   9.444  0.00  0.00     0.139 C 
HETATM   33  O   UNK N   1      29.530  18.823  10.211  0.00  0.00    -0.650 OA
BRANCH  32  34
HETATM   34  O   UNK N   1      27.530  18.191   9.470  0.00  0.00    -0.776 OA
HETATM   35  H   UNK N   1      27.001  18.747   8.933  0.00  0.00     0.167 HD
ENDBRANCH  32  34
ENDBRANCH  31  32
ENDBRANCH  30  31
ENDBRANCH  18  30
BRANCH  21  36
HETATM   36  C   UNK N   1      31.613  15.930   5.540  0.00  0.00    -0.042 A 
HETATM   37  C   UNK N   1      32.510  16.351   6.501  0.00  0.00     0.008 A 
HETATM   38  C   UNK N   1      33.434  17.339   6.143  0.00  0.00     0.001 A 
HETATM   39  C   UNK N   1      33.440  17.894   4.851  0.00  0.00     0.000 A 
HETATM   40  C   UNK N   1      32.532  17.473   3.897  0.00  0.00     0.001 A 
HETATM   41  C   UNK N   1      31.629  16.520   4.250  0.00  0.00     0.008 A 
ENDBRANCH  21  36
BRANCH  24  42
HETATM   42  C   UNK N   1      33.246  13.377   5.612  0.00  0.00     0.051 C 
BRANCH  42  43
HETATM   43  C   UNK N   1      33.222  12.418   6.811  0.00  0.00     0.114 C 
BRANCH  43  44
HETATM   44  C   UNK N   1      33.324  13.165   8.109  0.00  0.00     0.139 C 
HETATM   45  O   UNK N   1      34.287  13.882   8.334  0.00  0.00    -0.650 OA
BRANCH  44  46
HETATM   46  O   UNK N   1      32.380  13.002   9.052  0.00  0.00    -0.776 OA
HETATM   47  H   UNK N   1      31.491  13.261   8.911  0.00  0.00     0.167 HD
ENDBRANCH  44  46
ENDBRANCH  43  44
ENDBRANCH  42  43
ENDBRANCH  24  42
BRANCH   6  48
HETATM   48  C   UNK N   1      29.197   9.940   0.060  0.00  0.00     0.004 C 
HETATM   49  C   UNK N   1      29.684  10.100  -1.163  0.00  0.00     0.012 C 
ENDBRANCH   6  48
BRANCH  27  50
HETATM   50  C   UNK N   1      22.995  14.128   3.049  0.00  0.00     0.004 C 
HETATM   51  C   UNK N   1      22.175  14.158   2.018  0.00  0.00     0.012 C 
ENDBRANCH  27  50
TORSDOF 11
ENDMDL
MODEL 3
REMARK VINA RESULT:      -8.5      3.026      7.385
REMARK  11 active torsions:
REMARK  status: ('A' for Active; 'I' for Inactive)
REMARK    1  A    between atoms: C_6  and  C_7 
REMARK    2  A    between atoms: C_20  and  C_21 
REMARK    3  A    between atoms: C_21  and  C_22 
REMARK    4  A    between atoms: C_22  and  C_23 
REMARK    5  A    between atoms: C_23  and  O_24 
REMARK    6  A    between atoms: C_28  and  C_29 
REMARK    7  A    between atoms: C_37  and  C_38 
REMARK    8  A    between atoms: C_38  and  C_39 
REMARK    9  A    between atoms: C_39  and  C_40 
REMARK   10  A    between atoms: C_40  and  O_41 
REMARK   11  A    between atoms: C_45  and  C_46 
ROOT
HETATM    1  C   UNK N   1      23.027  17.842   4.844  0.00  0.00     0.051 C 
HETATM    2  C   UNK N   1      24.364  17.389   4.341  0.00  0.00    -0.025 C 
HETATM    3  C   UNK N   1      24.601  16.132   3.907  0.00  0.00     0.066 C 
HETATM    4  C   UNK N   1      23.530  15.200   3.651  0.00  0.00     0.064 C 
HETATM    5  C   UNK N   1      23.788  14.063   3.060  0.00  0.00     0.070 C 
HETATM    6  C   UNK N   1      22.896  13.483   2.092  0.00  0.00     0.000 C 
HETATM    7  C   UNK N   1      23.661  12.738   1.301  0.00  0.00    -0.021 C 
HETATM    8  C   UNK N   1      23.274  12.164  -0.014  0.00  0.00     0.052 C 
HETATM    9  C   UNK N   1      24.999  12.719   1.864  0.00  0.00     0.066 C 
HETATM   10  N   UNK N   1      25.058  13.542   2.825  0.00  0.00    -0.248 N 
HETATM   11 Fe   UNK N   1      26.727  14.153   3.496  0.00  0.00     0.000 Fe
HETATM   12  N   UNK N   1      27.503  12.421   3.179  0.00  0.00    -0.248 N 
HETATM   13  C   UNK N   1      28.640  11.939   3.672  0.00  0.00     0.066 C 
HETATM   14  C   UNK N   1      29.430  12.538   4.455  0.00  0.00     0.064 C 
HETATM   15  C   UNK N   1      29.389  13.942   4.505  0.00  0.00     0.066 A 
HETATM   16  N   UNK N   1      28.440  14.747   4.176  0.00  0.00    -0.251 N 
HETATM   17  C   UNK N   1      28.832  16.035   4.512  0.00  0.00     0.056 A 
HETATM   18  C   UNK N   1      30.193  15.870   5.104  0.00  0.00    -0.024 A 
HETATM   19  C   UNK N   1      30.509  14.597   5.020  0.00  0.00    -0.025 A 
HETATM   20  C   UNK N   1      31.723  13.890   5.571  0.00  0.00     0.051 C 
HETATM   21  C   UNK N   1      27.956  17.071   4.600  0.00  0.00     0.123 C 
HETATM   22  C   UNK N   1      26.541  17.025   4.136  0.00  0.00     0.056 C 
HETATM   23  N   UNK N   1      25.925  15.898   3.811  0.00  0.00    -0.251 N 
HETATM   24  C   UNK N   1      25.581  18.030   4.395  0.00  0.00    -0.024 C 
HETATM   25  C   UNK N   1      29.132  10.957   2.912  0.00  0.00    -0.021 C 
HETATM   26  C   UNK N   1      30.499  10.360   3.060  0.00  0.00     0.052 C 
HETATM   27  C   UNK N   1      28.279  10.869   1.848  0.00  0.00     0.000 C 
HETATM   28  C   UNK N   1      27.210  11.713   2.106  0.00  0.00     0.070 C 
HETATM   29  C   UNK N   1      26.136  11.939   1.350  0.00  0.00     0.064 C 
ENDROOT
BRANCH  18  30
HETATM   30  C   UNK N   1      31.002  16.749   5.923  0.00  0.00     0.051 C 
BRANCH  30  31
HETATM   31  C   UNK N   1      31.683  17.565   4.827  0.00  0.00     0.114 C 
BRANCH  31  32
HETATM   32  C   UNK N   1      33.091  17.253   4.814  0.00  0.00     0.139 C 
HETATM   33  O   UNK N   1      33.510  16.439   4.016  0.00  0.00    -0.650 OA
BRANCH  32  34
HETATM   34  O   UNK N   1      33.904  17.800   5.731  0.00  0.00    -0.776 OA
HETATM   35  H   UNK N   1      34.582  18.418   5.545  0.00  0.00     0.167 HD
ENDBRANCH  32  34
ENDBRANCH  31  32
ENDBRANCH  30  31
ENDBRANCH  18  30
BRANCH  21  36
HETATM   36  C   UNK N   1      27.923  17.550   5.954  0.00  0.00    -0.042 A 
HETATM   37  C   UNK N   1      28.385  18.759   6.435  0.00  0.00     0.008 A 
HETATM   38  C   UNK N   1      28.372  18.959   7.819  0.00  0.00     0.001 A 
HETATM   39  C   UNK N   1      27.914  17.956   8.694  0.00  0.00     0.000 A 
HETATM   40  C   UNK N   1      27.461  16.745   8.204  0.00  0.00     0.001 A 
HETATM   41  C   UNK N   1      27.485  16.549   6.859  0.00  0.00     0.008 A 
ENDBRANCH  21  36
BRANCH  24  42
HETATM   42  C   UNK N   1      25.824  19.446   4.865  0.00  0.00     0.051 C 
BRANCH  42  43
HETATM   43  C   UNK N   1      26.117  20.429   3.723  0.00  0.00     0.114 C 
BRANCH  43  44
HETATM   44  C   UNK N   1      24.913  20.625   2.849  0.00  0.00     0.139 C 
HETATM   45  O   UNK N   1      25.017  20.562   1.633  0.00  0.00    -0.650 OA
BRANCH  44  46
HETATM   46  O   UNK N   1      23.726  20.926   3.400  0.00  0.00    -0.776 OA
HETATM   47  H   UNK N   1      23.654  21.234   4.282  0.00  0.00     0.167 HD
ENDBRANCH  44  46
ENDBRANCH  43  44
ENDBRANCH  42  43
ENDBRANCH  24  42
BRANCH   6  48
HETATM   48  C   UNK N   1      21.520  13.859   1.815  0.00  0.00     0.004 C 
HETATM   49  C   UNK N   1      21.284  14.942   1.086  0.00  0.00     0.012 C 
ENDBRANCH   6  48
BRANCH  27  50
HETATM   50  C   UNK N   1      28.564  10.123   0.649  0.00  0.00     0.004 C 
HETATM   51  C   UNK N   1      29.300  10.668  -0.298  0.00  0.00     0.012 C 
ENDBRANCH  27  50
TORSDOF 11
ENDMDL
MODEL 4
REMARK VINA RESULT:      -8.2      2.862      5.677
REMARK  11 active torsions:
REMARK  status: ('A' for Active; 'I' for Inactive)
REMARK    1  A    between atoms: C_6  and  C_7 
REMARK    2  A    between atoms: C_20  and  C_21 
REMARK    3  A    between atoms: C_21  and  C_22 
REMARK    4  A    between atoms: C_22  and  C_23 
REMARK    5  A    between atoms: C_23  and  O_24 
REMARK    6  A    between atoms: C_28  and  C_29 
REMARK    7  A    between atoms: C_37  and  C_38 
REMARK    8  A    between atoms: C_38  and  C_39 
REMARK    9  A    between atoms: C_39  and  C_40 
REMARK   10  A    between atoms: C_40  and  O_41 
REMARK   11  A    between atoms: C_45  and  C_46 
ROOT
HETATM    1  C   UNK N   1      31.417  17.151   4.941  0.00  0.00     0.051 C 
HETATM    2  C   UNK N   1      30.054  16.535   5.029  0.00  0.00    -0.025 C 
HETATM    3  C   UNK N   1      29.618  15.585   4.173  0.00  0.00     0.066 C 
HETATM    4  C   UNK N   1      30.514  14.903   3.271  0.00  0.00     0.064 C 
HETATM    5  C   UNK N   1      30.090  13.868   2.595  0.00  0.00     0.070 C 
HETATM    6  C   UNK N   1      30.919  12.717   2.355  0.00  0.00     0.000 C 
HETATM    7  C   UNK N   1      30.081  11.696   2.208  0.00  0.00    -0.021 C 
HETATM    8  C   UNK N   1      30.437  10.254   2.226  0.00  0.00     0.052 C 
HETATM    9  C   UNK N   1      28.730  12.227   2.193  0.00  0.00     0.066 C 
HETATM   10  N   UNK N   1      28.763  13.458   2.489  0.00  0.00    -0.248 N 
HETATM   11 Fe   UNK N   1      27.195  14.380   3.040  0.00  0.00     0.000 Fe
HETATM   12  N   UNK N   1      26.137  13.333   1.820  0.00  0.00    -0.248 N 
HETATM   13  C   UNK N   1      24.902  13.586   1.395  0.00  0.00     0.066 C 
HETATM   14  C   UNK N   1      24.188  14.577   1.716  0.00  0.00     0.064 C 
HETATM   15  C   UNK N   1      24.482  15.258   2.910  0.00  0.00     0.066 A 
HETATM   16  N   UNK N   1      25.582  15.303   3.578  0.00  0.00    -0.251 N 
HETATM   17  C   UNK N   1      25.411  16.199   4.625  0.00  0.00     0.056 A 
HETATM   18  C   UNK N   1      24.009  16.690   4.475  0.00  0.00    -0.024 A 
HETATM   19  C   UNK N   1      23.471  16.046   3.463  0.00  0.00    -0.025 A 
HETATM   20  C   UNK N   1      22.117  16.249   2.830  0.00  0.00     0.051 C 
HETATM   21  C   UNK N   1      26.455  16.723   5.321  0.00  0.00     0.123 C 
HETATM   22  C   UNK N   1      27.863  16.249   5.220  0.00  0.00     0.056 C 
HETATM   23  N   UNK N   1      28.282  15.430   4.265  0.00  0.00    -0.251 N 
HETATM   24  C   UNK N   1      28.974  16.908   5.795  0.00  0.00    -0.024 C 
HETATM   25  C   UNK N   1      24.287  12.477   0.975  0.00  0.00    -0.021 C 
HETATM   26  C   UNK N   1      22.827  12.377   0.649  0.00  0.00     0.052 C 
HETATM   27  C   UNK N   1      25.174  11.465   1.215  0.00  0.00     0.000 C 
HETATM   28  C   UNK N   1      26.361  12.048   1.630  0.00  0.00     0.070 C 
HETATM   29  C   UNK N   1      27.503  11.447   1.962  0.00  0.00     0.064 C 
ENDROOT
BRANCH  18  30
HETATM   30  C   UNK N   1      23.325  17.841   5.027  0.00  0.00     0.051 C 
BRANCH  30  31
HETATM   31  C   UNK N   1      22.468  17.147   6.083  0.00  0.00     0.114 C 
BRANCH  31  32
HETATM   32  C   UNK N   1      21.391  18.026   6.465  0.00  0.00     0.139 C 
HETATM   33  O   UNK N   1      20.742  17.770   7.460  0.00  0.00    -0.650 OA
BRANCH  32  34
HETATM   34  O   UNK N   1      21.066  19.064   5.680  0.00  0.00    -0.776 OA
HETATM   35  H   UNK N   1      21.142  19.966   5.925  0.00  0.00     0.167 HD
ENDBRANCH  32  34
ENDBRANCH  31  32
ENDBRANCH  30  31
ENDBRANCH  18  30
BRANCH  21  36
HETATM   36  C   UNK N   1      26.491  18.145   5.123  0.00  0.00    -0.042 A 
HETATM   37  C   UNK N   1      26.195  19.134   6.038  0.00  0.00     0.008 A 
HETATM   38  C   UNK N   1      26.167  20.457   5.584  0.00  0.00     0.001 A 
HETATM   39  C   UNK N   1      26.420  20.768   4.236  0.00  0.00     0.000 A 
HETATM   40  C   UNK N   1      26.708  19.770   3.323  0.00  0.00     0.001 A 
HETATM   41  C   UNK N   1      26.724  18.484   3.765  0.00  0.00     0.008 A 
ENDBRANCH  21  36
BRANCH  24  42
HETATM   42  C   UNK N   1      28.966  17.977   6.865  0.00  0.00     0.051 C 
BRANCH  42  43
HETATM   43  C   UNK N   1      29.515  17.496   8.216  0.00  0.00     0.114 C 
BRANCH  43  44
HETATM   44  C   UNK N   1      28.851  18.205   9.359  0.00  0.00     0.139 C 
HETATM   45  O   UNK N   1      29.524  18.718  10.241  0.00  0.00    -0.650 OA
BRANCH  44  46
HETATM   46  O   UNK N   1      27.511  18.230   9.445  0.00  0.00    -0.776 OA
HETATM   47  H   UNK N   1      27.015  18.994   9.225  0.00  0.00     0.167 HD
ENDBRANCH  44  46
ENDBRANCH  43  44
ENDBRANCH  42  43
ENDBRANCH  24  42
BRANCH   6  48
HETATM   48  C   UNK N   1      32.354  12.602   2.544  0.00  0.00     0.004 C 
HETATM   49  C   UNK N   1      33.151  12.680   1.486  0.00  0.00     0.012 C 
ENDBRANCH   6  48
BRANCH  27  50
HETATM   50  C   UNK N   1      24.832  10.067   1.159  0.00  0.00     0.004 C 
HETATM   51  C   UNK N   1      25.010   9.397   0.038  0.00  0.00     0.012 C 
ENDBRANCH  27  50
TORSDOF 11
ENDMDL
MODEL 5
REMARK VINA RESULT:      -7.9      4.351      8.645
REMARK  11 active torsions:
REMARK  status: ('A' for Active; 'I' for Inactive)
REMARK    1  A    between atoms: C_6  and  C_7 
REMARK    2  A    between atoms: C_20  and  C_21 
REMARK    3  A    between atoms: C_21  and  C_22 
REMARK    4  A    between atoms: C_22  and  C_23 
REMARK    5  A    between atoms: C_23  and  O_24 
REMARK    6  A    between atoms: C_28  and  C_29 
REMARK    7  A    between atoms: C_37  and  C_38 
REMARK    8  A    between atoms: C_38  and  C_39 
REMARK    9  A    between atoms: C_39  and  C_40 
REMARK   10  A    between atoms: C_40  and  O_41 
REMARK   11  A    between atoms: C_45  and  C_46 
ROOT
HETATM    1  C   UNK N   1      22.187  12.221   3.889  0.00  0.00     0.051 C 
HETATM    2  C   UNK N   1      23.262  13.237   3.650  0.00  0.00    -0.025 C 
HETATM    3  C   UNK N   1      24.547  13.053   4.023  0.00  0.00     0.066 C 
HETATM    4  C   UNK N   1      25.041  11.765   4.445  0.00  0.00     0.064 C 
HETATM    5  C   UNK N   1      26.324  11.587   4.619  0.00  0.00     0.070 C 
HETATM    6  C   UNK N   1      26.985  10.365   4.248  0.00  0.00     0.000 C 
HETATM    7  C   UNK N   1      28.245  10.703   3.992  0.00  0.00    -0.021 C 
HETATM    8  C   UNK N   1      29.259   9.866   3.301  0.00  0.00     0.052 C 
HETATM    9  C   UNK N   1      28.415  12.098   4.356  0.00  0.00     0.066 C 
HETATM   10  N   UNK N   1      27.285  12.595   4.641  0.00  0.00    -0.248 N 
HETATM   11 Fe   UNK N   1      27.023  14.476   4.695  0.00  0.00     0.000 Fe
HETATM   12  N   UNK N   1      28.797  14.715   5.401  0.00  0.00    -0.248 N 
HETATM   13  C   UNK N   1      29.295  15.796   5.996  0.00  0.00     0.066 C 
HETATM   14  C   UNK N   1      28.682  16.879   6.213  0.00  0.00     0.064 C 
HETATM   15  C   UNK N   1      27.555  17.182   5.431  0.00  0.00     0.066 A 
HETATM   16  N   UNK N   1      26.784  16.395   4.764  0.00  0.00    -0.251 N 
HETATM   17  C   UNK N   1      25.742  17.152   4.247  0.00  0.00     0.056 A 
HETATM   18  C   UNK N   1      26.017  18.542   4.718  0.00  0.00    -0.024 A 
HETATM   19  C   UNK N   1      27.155  18.519   5.376  0.00  0.00    -0.025 A 
HETATM   20  C   UNK N   1      27.822  19.633   6.143  0.00  0.00     0.051 C 
HETATM   21  C   UNK N   1      24.594  16.596   3.775  0.00  0.00     0.123 C 
HETATM   22  C   UNK N   1      24.395  15.139   3.535  0.00  0.00     0.056 C 
HETATM   23  N   UNK N   1      25.231  14.214   3.983  0.00  0.00    -0.251 N 
HETATM   24  C   UNK N   1      23.152  14.541   3.225  0.00  0.00    -0.024 C 
HETATM   25  C   UNK N   1      30.628  15.830   5.924  0.00  0.00    -0.021 C 
HETATM   26  C   UNK N   1      31.477  17.010   6.292  0.00  0.00     0.052 C 
HETATM   27  C   UNK N   1      30.973  14.735   5.183  0.00  0.00     0.000 C 
HETATM   28  C   UNK N   1      29.818  13.997   4.975  0.00  0.00     0.070 C 
HETATM   29  C   UNK N   1      29.681  12.848   4.315  0.00  0.00     0.064 C 
ENDROOT
BRANCH  18  30
HETATM   30  C   UNK N   1      25.175  19.718   4.799  0.00  0.00     0.051 C 
BRANCH  30  31
HETATM   31  C   UNK N   1      25.724  20.507   3.613  0.00  0.00     0.114 C 
BRANCH  31  32
HETATM   32  C   UNK N   1      24.666  20.710   2.654  0.00  0.00     0.139 C 
HETATM   33  O   UNK N   1      24.878  20.482   1.480  0.00  0.00    -0.650 OA
BRANCH  32  34
HETATM   34  O   UNK N   1      23.492  21.223   3.054  0.00  0.00    -0.776 OA
HETATM   35  H   UNK N   1      22.733  21.310   2.512  0.00  0.00     0.167 HD
ENDBRANCH  32  34
ENDBRANCH  31  32
ENDBRANCH  30  31
ENDBRANCH  18  30
BRANCH  21  36
HETATM   36  C   UNK N   1      23.489  17.028   4.585  0.00  0.00    -0.042 A 
HETATM   37  C   UNK N   1      23.115  16.555   5.827  0.00  0.00     0.008 A 
HETATM   38  C   UNK N   1      21.920  17.033   6.374  0.00  0.00     0.001 A 
HETATM   39  C   UNK N   1      21.118  17.954   5.676  0.00  0.00     0.000 A 
HETATM   40  C   UNK N   1      21.495  18.415   4.429  0.00  0.00     0.001 A 
HETATM   41  C   UNK N   1      22.652  17.942   3.895  0.00  0.00     0.008 A 
ENDBRANCH  21  36
BRANCH  24  42
HETATM   42  C   UNK N   1      21.887  15.222   2.752  0.00  0.00     0.051 C 
BRANCH  42  43
HETATM   43  C   UNK N   1      21.626  15.053   1.248  0.00  0.00     0.114 C 
BRANCH  43  44
HETATM   44  C   UNK N   1      20.327  15.685   0.845  0.00  0.00     0.139 C 
HETATM   45  O   UNK N   1      20.311  16.605   0.042  0.00  0.00    -0.650 OA
BRANCH  44  46
HETATM   46  O   UNK N   1      19.178  15.276   1.411  0.00  0.00    -0.776 OA
HETATM   47  H   UNK N   1      18.866  14.398   1.317  0.00  0.00     0.167 HD
ENDBRANCH  44  46
ENDBRANCH  43  44
ENDBRANCH  42  43
ENDBRANCH  24  42
BRANCH   6  48
HETATM   48  C   UNK N   1      26.374   9.092   3.908  0.00  0.00     0.004 C 
HETATM   49  C   UNK N   1      26.221   8.178   4.857  0.00  0.00     0.012 C 
ENDBRANCH   6  48
BRANCH  27  50
HETATM   50  C   UNK N   1      32.288  14.517   4.636  0.00  0.00     0.004 C 
HETATM   51  C   UNK N   1      33.170  13.815   5.319  0.00  0.00     0.012 C 
ENDBRANCH  27  50
TORSDOF 11
ENDMDL
MODEL 6
REMARK VINA RESULT:      -7.8      3.792      7.642
REMARK  11 active torsions:
REMARK  status: ('A' for Active; 'I' for Inactive)
REMARK    1  A    between atoms: C_6  and  C_7 
REMARK    2  A    between atoms: C_20  and  C_21 
REMARK    3  A    between atoms: C_21  and  C_22 
REMARK    4  A    between atoms: C_22  and  C_23 
REMARK    5  A    between atoms: C_23  and  O_24 
REMARK    6  A    between atoms: C_28  and  C_29 
REMARK    7  A    between atoms: C_37  and  C_38 
REMARK    8  A    between atoms: C_38  and  C_39 
REMARK    9  A    between atoms: C_39  and  C_40 
REMARK   10  A    between atoms: C_40  and  O_41 
REMARK   11  A    between atoms: C_45  and  C_46 
ROOT
HETATM    1  C   UNK N   1      26.056  11.835   2.069  0.00  0.00     0.051 C 
HETATM    2  C   UNK N   1      26.728  13.136   2.389  0.00  0.00    -0.025 C 
HETATM    3  C   UNK N   1      27.833  13.225   3.161  0.00  0.00     0.066 C 
HETATM    4  C   UNK N   1      28.603  12.061   3.525  0.00  0.00     0.064 C 
HETATM    5  C   UNK N   1      29.760  12.208   4.115  0.00  0.00     0.070 C 
HETATM    6  C   UNK N   1      30.885  11.361   3.818  0.00  0.00     0.000 C 
HETATM    7  C   UNK N   1      31.964  12.090   4.083  0.00  0.00    -0.021 C 
HETATM    8  C   UNK N   1      33.358  11.781   3.676  0.00  0.00     0.052 C 
HETATM    9  C   UNK N   1      31.523  13.331   4.696  0.00  0.00     0.066 C 
HETATM   10  N   UNK N   1      30.259  13.400   4.634  0.00  0.00    -0.248 N 
HETATM   11 Fe   UNK N   1      29.351  15.050   4.883  0.00  0.00     0.000 Fe
HETATM   12  N   UNK N   1      30.649  15.579   6.202  0.00  0.00    -0.248 N 
HETATM   13  C   UNK N   1      30.545  16.559   7.095  0.00  0.00     0.066 C 
HETATM   14  C   UNK N   1      29.558  17.332   7.246  0.00  0.00     0.064 C 
HETATM   15  C   UNK N   1      28.669  17.505   6.171  0.00  0.00     0.066 A 
HETATM   16  N   UNK N   1      28.447  16.739   5.160  0.00  0.00    -0.251 N 
HETATM   17  C   UNK N   1      27.399  17.284   4.431  0.00  0.00     0.056 A 
HETATM   18  C   UNK N   1      27.024  18.521   5.179  0.00  0.00    -0.024 A 
HETATM   19  C   UNK N   1      27.860  18.642   6.186  0.00  0.00    -0.025 A 
HETATM   20  C   UNK N   1      27.846  19.655   7.305  0.00  0.00     0.051 C 
HETATM   21  C   UNK N   1      26.705  16.576   3.501  0.00  0.00     0.123 C 
HETATM   22  C   UNK N   1      27.106  15.238   2.982  0.00  0.00     0.056 C 
HETATM   23  N   UNK N   1      28.048  14.498   3.549  0.00  0.00    -0.251 N 
HETATM   24  C   UNK N   1      26.294  14.422   2.161  0.00  0.00    -0.024 C 
HETATM   25  C   UNK N   1      31.743  16.980   7.509  0.00  0.00    -0.021 C 
HETATM   26  C   UNK N   1      31.983  18.210   8.334  0.00  0.00     0.052 C 
HETATM   27  C   UNK N   1      32.646  16.260   6.779  0.00  0.00     0.000 C 
HETATM   28  C   UNK N   1      31.933  15.312   6.061  0.00  0.00     0.070 C 
HETATM   29  C   UNK N   1      32.401  14.387   5.225  0.00  0.00     0.064 C 
ENDROOT
BRANCH  18  30
HETATM   30  C   UNK N   1      25.838  19.351   5.137  0.00  0.00     0.051 C 
BRANCH  30  31
HETATM   31  C   UNK N   1      26.205  20.262   3.968  0.00  0.00     0.114 C 
BRANCH  31  32
HETATM   32  C   UNK N   1      25.023  20.515   3.181  0.00  0.00     0.139 C 
HETATM   33  O   UNK N   1      23.932  20.427   3.706  0.00  0.00    -0.650 OA
BRANCH  32  34
HETATM   34  O   UNK N   1      25.137  20.763   1.867  0.00  0.00    -0.776 OA
HETATM   35  H   UNK N   1      25.894  20.574   1.349  0.00  0.00     0.167 HD
ENDBRANCH  32  34
ENDBRANCH  31  32
ENDBRANCH  30  31
ENDBRANCH  18  30
BRANCH  21  36
HETATM   36  C   UNK N   1      25.337  16.454   3.922  0.00  0.00    -0.042 A 
HETATM   37  C   UNK N   1      24.234  17.112   3.415  0.00  0.00     0.008 A 
HETATM   38  C   UNK N   1      23.011  16.938   4.072  0.00  0.00     0.001 A 
HETATM   39  C   UNK N   1      22.911  16.129   5.218  0.00  0.00     0.000 A 
HETATM   40  C   UNK N   1      24.022  15.480   5.724  0.00  0.00     0.001 A 
HETATM   41  C   UNK N   1      25.212  15.659   5.090  0.00  0.00     0.008 A 
ENDBRANCH  21  36
BRANCH  24  42
HETATM   42  C   UNK N   1      25.063  14.823   1.381  0.00  0.00     0.051 C 
BRANCH  42  43
HETATM   43  C   UNK N   1      23.801  14.049   1.787  0.00  0.00     0.114 C 
BRANCH  43  44
HETATM   44  C   UNK N   1      23.062  13.540   0.584  0.00  0.00     0.139 C 
HETATM   45  O   UNK N   1      23.671  13.021  -0.339  0.00  0.00    -0.650 OA
BRANCH  44  46
HETATM   46  O   UNK N   1      21.731  13.704   0.495  0.00  0.00    -0.776 OA
HETATM   47  H   UNK N   1      21.352  14.471   0.112  0.00  0.00     0.167 HD
ENDBRANCH  44  46
ENDBRANCH  43  44
ENDBRANCH  42  43
ENDBRANCH  24  42
BRANCH   6  48
HETATM   48  C   UNK N   1      30.881  10.104   3.089  0.00  0.00     0.004 C 
HETATM   49  C   UNK N   1      31.045  10.124   1.773  0.00  0.00     0.012 C 
ENDBRANCH   6  48
BRANCH  27  50
HETATM   50  C   UNK N   1      34.051  16.568   6.708  0.00  0.00     0.004 C 
HETATM   51  C   UNK N   1      34.898  15.934   7.494  0.00  0.00     0.012 C 
ENDBRANCH  27  50
TORSDOF 11
ENDMDL
MODEL 7
REMARK VINA RESULT:      -7.7      7.083     12.920
REMARK  11 active torsions:
REMARK  status: ('A' for Active; 'I' for Inactive)
REMARK    1  A    between atoms: C_6  and  C_7 
REMARK    2  A    between atoms: C_20  and  C_21 
REMARK    3  A    between atoms: C_21  and  C_22 
REMARK    4  A    between atoms: C_22  and  C_23 
REMARK    5  A    between atoms: C_23  and  O_24 
REMARK    6  A    between atoms: C_28  and  C_29 
REMARK    7  A    between atoms: C_37  and  C_38 
REMARK    8  A    between atoms: C_38  and  C_39 
REMARK    9  A    between atoms: C_39  and  C_40 
REMARK   10  A    between atoms: C_40  and  O_41 
REMARK   11  A    between atoms: C_45  and  C_46 
ROOT
HETATM    1  C   UNK N   1      36.197  15.685  11.578  0.00  0.00     0.051 C 
HETATM    2  C   UNK N   1      35.497  14.393  11.868  0.00  0.00    -0.025 C 
HETATM    3  C   UNK N   1      35.700  13.682  12.999  0.00  0.00     0.066 C 
HETATM    4  C   UNK N   1      36.406  14.234  14.129  0.00  0.00     0.064 C 
HETATM    5  C   UNK N   1      36.421  13.586  15.264  0.00  0.00     0.070 C 
HETATM    6  C   UNK N   1      36.334  14.260  16.532  0.00  0.00     0.000 C 
HETATM    7  C   UNK N   1      35.794  13.380  17.370  0.00  0.00    -0.021 C 
HETATM    8  C   UNK N   1      35.234  13.672  18.714  0.00  0.00     0.052 C 
HETATM    9  C   UNK N   1      35.690  12.109  16.675  0.00  0.00     0.066 C 
HETATM   10  N   UNK N   1      35.988  12.276  15.455  0.00  0.00    -0.248 N 
HETATM   11 Fe   UNK N   1      35.516  10.987  14.142  0.00  0.00     0.000 Fe
HETATM   12  N   UNK N   1      35.828   9.568  15.405  0.00  0.00    -0.248 N 
HETATM   13  C   UNK N   1      35.985   8.273  15.148  0.00  0.00     0.066 C 
HETATM   14  C   UNK N   1      35.961   7.728  14.008  0.00  0.00     0.064 C 
HETATM   15  C   UNK N   1      35.312   8.397  12.957  0.00  0.00     0.066 A 
HETATM   16  N   UNK N   1      35.043   9.649  12.825  0.00  0.00    -0.251 N 
HETATM   17  C   UNK N   1      34.494   9.840  11.564  0.00  0.00     0.056 A 
HETATM   18  C   UNK N   1      34.476   8.477  10.952  0.00  0.00    -0.024 A 
HETATM   19  C   UNK N   1      34.922   7.633  11.856  0.00  0.00    -0.025 A 
HETATM   20  C   UNK N   1      35.205   6.159  11.708  0.00  0.00     0.051 C 
HETATM   21  C   UNK N   1      34.397  11.065  10.982  0.00  0.00     0.123 C 
HETATM   22  C   UNK N   1      34.640  12.357  11.683  0.00  0.00     0.056 C 
HETATM   23  N   UNK N   1      35.207  12.433  12.878  0.00  0.00    -0.251 N 
HETATM   24  C   UNK N   1      34.724  13.613  11.039  0.00  0.00    -0.024 C 
HETATM   25  C   UNK N   1      35.697   7.520  16.212  0.00  0.00    -0.021 C 
HETATM   26  C   UNK N   1      35.555   6.027  16.193  0.00  0.00     0.052 C 
HETATM   27  C   UNK N   1      35.274   8.400  17.168  0.00  0.00     0.000 C 
HETATM   28  C   UNK N   1      35.482   9.677  16.672  0.00  0.00     0.070 C 
HETATM   29  C   UNK N   1      35.227  10.843  17.265  0.00  0.00     0.064 C 
ENDROOT
BRANCH  18  30
HETATM   30  C   UNK N   1      34.332   8.038   9.580  0.00  0.00     0.051 C 
BRANCH  30  31
HETATM   31  C   UNK N   1      32.822   7.818   9.539  0.00  0.00     0.114 C 
BRANCH  31  32
HETATM   32  C   UNK N   1      32.233   8.778   8.638  0.00  0.00     0.139 C 
HETATM   33  O   UNK N   1      31.562   9.683   9.093  0.00  0.00    -0.650 OA
BRANCH  32  34
HETATM   34  O   UNK N   1      32.362   8.616   7.312  0.00  0.00    -0.776 OA
HETATM   35  H   UNK N   1      32.480   9.313   6.697  0.00  0.00     0.167 HD
ENDBRANCH  32  34
ENDBRANCH  31  32
ENDBRANCH  30  31
ENDBRANCH  18  30
BRANCH  21  36
HETATM   36  C   UNK N   1      35.204  11.090   9.794  0.00  0.00    -0.042 A 
HETATM   37  C   UNK N   1      34.778  11.088   8.481  0.00  0.00     0.008 A 
HETATM   38  C   UNK N   1      35.748  10.979   7.480  0.00  0.00     0.001 A 
HETATM   39  C   UNK N   1      37.113  10.863   7.800  0.00  0.00     0.000 A 
HETATM   40  C   UNK N   1      37.531  10.858   9.118  0.00  0.00     0.001 A 
HETATM   41  C   UNK N   1      36.585  10.953  10.089  0.00  0.00     0.008 A 
ENDBRANCH  21  36
BRANCH  24  42
HETATM   42  C   UNK N   1      34.274  13.971   9.641  0.00  0.00     0.051 C 
BRANCH  42  43
HETATM   43  C   UNK N   1      33.068  14.921   9.610  0.00  0.00     0.114 C 
BRANCH  43  44
HETATM   44  C   UNK N   1      33.442  16.259   9.043  0.00  0.00     0.139 C 
HETATM   45  O   UNK N   1      34.567  16.452   8.608  0.00  0.00    -0.650 OA
BRANCH  44  46
HETATM   46  O   UNK N   1      32.555  17.268   9.062  0.00  0.00    -0.776 OA
HETATM   47  H   UNK N   1      32.733  18.092   8.652  0.00  0.00     0.167 HD
ENDBRANCH  44  46
ENDBRANCH  43  44
ENDBRANCH  42  43
ENDBRANCH  24  42
BRANCH   6  48
HETATM   48  C   UNK N   1      36.493  15.679  16.796  0.00  0.00     0.004 C 
HETATM   49  C   UNK N   1      37.563  16.306  16.325  0.00  0.00     0.012 C 
ENDBRANCH   6  48
BRANCH  27  50
HETATM   50  C   UNK N   1      34.617   8.006  18.388  0.00  0.00     0.004 C 
HETATM   51  C   UNK N   1      35.327   7.838  19.486  0.00  0.00     0.012 C 
ENDBRANCH  27  50
TORSDOF 11
ENDMDL
MODEL 8
REMARK VINA RESULT:      -7.7      4.794      9.144
REMARK  11 active torsions:
REMARK  status: ('A' for Active; 'I' for Inactive)
REMARK    1  A    between atoms: C_6  and  C_7 
REMARK    2  A    between atoms: C_20  and  C_21 
REMARK    3  A    between atoms: C_21  and  C_22 
REMARK    4  A    between atoms: C_22  and  C_23 
REMARK    5  A    between atoms: C_23  and  O_24 
REMARK    6  A    between atoms: C_28  and  C_29 
REMARK    7  A    between atoms: C_37  and  C_38 
REMARK    8  A    between atoms: C_38  and  C_39 
REMARK    9  A    between atoms: C_39  and  C_40 
REMARK   10  A    between atoms: C_40  and  O_41 
REMARK   11  A    between atoms: C_45  and  C_46 
ROOT
HETATM    1  C   UNK N   1      29.069  13.730   4.750  0.00  0.00     0.051 C 
HETATM    2  C   UNK N   1      27.995  14.181   3.808  0.00  0.00    -0.025 C 
HETATM    3  C   UNK N   1      27.125  15.172   4.101  0.00  0.00     0.066 C 
HETATM    4  C   UNK N   1      27.320  16.046   5.231  0.00  0.00     0.064 C 
HETATM    5  C   UNK N   1      26.561  17.101   5.373  0.00  0.00     0.070 C 
HETATM    6  C   UNK N   1      27.074  18.355   5.857  0.00  0.00     0.000 C 
HETATM    7  C   UNK N   1      26.284  19.290   5.339  0.00  0.00    -0.021 C 
HETATM    8  C   UNK N   1      26.555  20.750   5.299  0.00  0.00     0.052 C 
HETATM    9  C   UNK N   1      25.185  18.622   4.665  0.00  0.00     0.066 C 
HETATM   10  N   UNK N   1      25.409  17.375   4.639  0.00  0.00    -0.248 N 
HETATM   11 Fe   UNK N   1      24.469  16.231   3.448  0.00  0.00     0.000 Fe
HETATM   12  N   UNK N   1      22.878  17.292   3.666  0.00  0.00    -0.248 N 
HETATM   13  C   UNK N   1      21.631  16.959   3.347  0.00  0.00     0.066 C 
HETATM   14  C   UNK N   1      21.255  15.866   2.837  0.00  0.00     0.064 C 
HETATM   15  C   UNK N   1      22.200  15.086   2.148  0.00  0.00     0.066 A 
HETATM   16  N   UNK N   1      23.484  15.083   2.241  0.00  0.00    -0.251 N 
HETATM   17  C   UNK N   1      23.969  14.058   1.440  0.00  0.00     0.056 A 
HETATM   18  C   UNK N   1      22.749  13.440   0.841  0.00  0.00    -0.024 A 
HETATM   19  C   UNK N   1      21.712  14.135   1.251  0.00  0.00    -0.025 A 
HETATM   20  C   UNK N   1      20.246  13.861   1.023  0.00  0.00     0.051 C 
HETATM   21  C   UNK N   1      25.234  13.572   1.554  0.00  0.00     0.123 C 
HETATM   22  C   UNK N   1      26.314  14.205   2.363  0.00  0.00     0.056 C 
HETATM   23  N   UNK N   1      26.086  15.169   3.243  0.00  0.00    -0.251 N 
HETATM   24  C   UNK N   1      27.566  13.606   2.633  0.00  0.00    -0.024 C 
HETATM   25  C   UNK N   1      20.864  18.036   3.161  0.00  0.00    -0.021 C 
HETATM   26  C   UNK N   1      19.482  18.016   2.578  0.00  0.00     0.052 C 
HETATM   27  C   UNK N   1      21.704  19.103   3.313  0.00  0.00     0.000 C 
HETATM   28  C   UNK N   1      22.924  18.608   3.744  0.00  0.00     0.070 C 
HETATM   29  C   UNK N   1      24.035  19.286   4.031  0.00  0.00     0.064 C 
ENDROOT
BRANCH  18  30
HETATM   30  C   UNK N   1      22.536  12.165   0.188  0.00  0.00     0.051 C 
BRANCH  30  31
HETATM   31  C   UNK N   1      21.887  11.395   1.336  0.00  0.00     0.114 C 
BRANCH  31  32
HETATM   32  C   UNK N   1      22.014   9.981   1.083  0.00  0.00     0.139 C 
HETATM   33  O   UNK N   1      21.896   9.201   2.007  0.00  0.00    -0.650 OA
BRANCH  32  34
HETATM   34  O   UNK N   1      22.339   9.548  -0.144  0.00  0.00    -0.776 OA
HETATM   35  H   UNK N   1      23.203   9.563  -0.506  0.00  0.00     0.167 HD
ENDBRANCH  32  34
ENDBRANCH  31  32
ENDBRANCH  30  31
ENDBRANCH  18  30
BRANCH  21  36
HETATM   36  C   UNK N   1      25.179  12.195   1.959  0.00  0.00    -0.042 A 
HETATM   37  C   UNK N   1      24.912  11.693   3.216  0.00  0.00     0.008 A 
HETATM   38  C   UNK N   1      25.044  10.314   3.410  0.00  0.00     0.001 A 
HETATM   39  C   UNK N   1      25.448   9.468   2.361  0.00  0.00     0.000 A 
HETATM   40  C   UNK N   1      25.721   9.981   1.106  0.00  0.00     0.001 A 
HETATM   41  C   UNK N   1      25.602  11.322   0.923  0.00  0.00     0.008 A 
ENDBRANCH  21  36
BRANCH  24  42
HETATM   42  C   UNK N   1      28.201  12.425   1.933  0.00  0.00     0.051 C 
BRANCH  42  43
HETATM   43  C   UNK N   1      29.396  12.808   1.049  0.00  0.00     0.114 C 
BRANCH  43  44
HETATM   44  C   UNK N   1      29.541  11.866  -0.110  0.00  0.00     0.139 C 
HETATM   45  O   UNK N   1      29.173  10.705  -0.011  0.00  0.00    -0.650 OA
BRANCH  44  46
HETATM   46  O   UNK N   1      30.130  12.282  -1.244  0.00  0.00    -0.776 OA
HETATM   47  H   UNK N   1      30.442  11.679  -1.890  0.00  0.00     0.167 HD
ENDBRANCH  44  46
ENDBRANCH  43  44
ENDBRANCH  42  43
ENDBRANCH  24  42
BRANCH   6  48
HETATM   48  C   UNK N   1      28.352  18.602   6.502  0.00  0.00     0.004 C 
HETATM   49  C   UNK N   1      28.410  18.621   7.828  0.00  0.00     0.012 C 
ENDBRANCH   6  48
BRANCH  27  50
HETATM   50  C   UNK N   1      21.364  20.453   2.944  0.00  0.00     0.004 C 
HETATM   51  C   UNK N   1      21.224  20.765   1.671  0.00  0.00     0.012 C 
ENDBRANCH  27  50
TORSDOF 11
ENDMDL
MODEL 9
REMARK VINA RESULT:      -7.5      4.883     10.044
REMARK  11 active torsions:
REMARK  status: ('A' for Active; 'I' for Inactive)
REMARK    1  A    between atoms: C_6  and  C_7 
REMARK    2  A    between atoms: C_20  and  C_21 
REMARK    3  A    between atoms: C_21  and  C_22 
REMARK    4  A    between atoms: C_22  and  C_23 
REMARK    5  A    between atoms: C_23  and  O_24 
REMARK    6  A    between atoms: C_28  and  C_29 
REMARK    7  A    between atoms: C_37  and  C_38 
REMARK    8  A    between atoms: C_38  and  C_39 
REMARK    9  A    between atoms: C_39  and  C_40 
REMARK   10  A    between atoms: C_40  and  O_41 
REMARK   11  A    between atoms: C_45  and  C_46 
ROOT
HETATM    1  C   UNK N   1      20.916  17.304   5.187  0.00  0.00     0.051 C 
HETATM    2  C   UNK N   1      21.959  16.288   5.542  0.00  0.00    -0.025 C 
HETATM    3  C   UNK N   1      23.197  16.284   5.003  0.00  0.00     0.066 C 
HETATM    4  C   UNK N   1      23.701  17.400   4.241  0.00  0.00     0.064 C 
HETATM    5  C   UNK N   1      24.961  17.434   3.895  0.00  0.00     0.070 C 
HETATM    6  C   UNK N   1      25.724  18.654   3.898  0.00  0.00     0.000 C 
HETATM    7  C   UNK N   1      26.987  18.287   4.091  0.00  0.00    -0.021 C 
HETATM    8  C   UNK N   1      28.118  19.177   4.457  0.00  0.00     0.052 C 
HETATM    9  C   UNK N   1      27.040  16.836   4.048  0.00  0.00     0.066 C 
HETATM   10  N   UNK N   1      25.860  16.377   4.008  0.00  0.00    -0.248 N 
HETATM   11 Fe   UNK N   1      25.498  14.558   4.423  0.00  0.00     0.000 Fe
HETATM   12  N   UNK N   1      27.159  14.029   3.610  0.00  0.00    -0.248 N 
HETATM   13  C   UNK N   1      27.526  12.807   3.235  0.00  0.00     0.066 C 
HETATM   14  C   UNK N   1      26.838  11.753   3.342  0.00  0.00     0.064 C 
HETATM   15  C   UNK N   1      25.799  11.723   4.289  0.00  0.00     0.066 A 
HETATM   16  N   UNK N   1      25.155  12.697   4.831  0.00  0.00    -0.251 N 
HETATM   17  C   UNK N   1      24.146  12.160   5.618  0.00  0.00     0.056 A 
HETATM   18  C   UNK N   1      24.291  10.683   5.458  0.00  0.00    -0.024 A 
HETATM   19  C   UNK N   1      25.341  10.469   4.697  0.00  0.00    -0.025 A 
HETATM   20  C   UNK N   1      25.853   9.161   4.145  0.00  0.00     0.051 C 
HETATM   21  C   UNK N   1      23.093  12.896   6.065  0.00  0.00     0.123 C 
HETATM   22  C   UNK N   1      22.999  14.380   5.978  0.00  0.00     0.056 C 
HETATM   23  N   UNK N   1      23.821  15.113   5.240  0.00  0.00    -0.251 N 
HETATM   24  C   UNK N   1      21.835  15.127   6.269  0.00  0.00    -0.024 C 
HETATM   25  C   UNK N   1      28.854  12.687   3.171  0.00  0.00    -0.021 C 
HETATM   26  C   UNK N   1      29.592  11.392   3.002  0.00  0.00     0.052 C 
HETATM   27  C   UNK N   1      29.342  13.891   3.594  0.00  0.00     0.000 C 
HETATM   28  C   UNK N   1      28.259  14.743   3.745  0.00  0.00     0.070 C 
HETATM   29  C   UNK N   1      28.262  16.019   4.129  0.00  0.00     0.064 C 
ENDROOT
BRANCH  18  30
HETATM   30  C   UNK N   1      23.387   9.588   5.744  0.00  0.00     0.051 C 
BRANCH  30  31
HETATM   31  C   UNK N   1      23.789   9.294   7.187  0.00  0.00     0.114 C 
BRANCH  31  32
HETATM   32  C   UNK N   1      24.106   7.893   7.310  0.00  0.00     0.139 C 
HETATM   33  O   UNK N   1      23.207   7.095   7.488  0.00  0.00    -0.650 OA
BRANCH  32  34
HETATM   34  O   UNK N   1      25.388   7.495   7.309  0.00  0.00    -0.776 OA
HETATM   35  H   UNK N   1      25.672   6.603   7.319  0.00  0.00     0.167 HD
ENDBRANCH  32  34
ENDBRANCH  31  32
ENDBRANCH  30  31
ENDBRANCH  18  30
BRANCH  21  36
HETATM   36  C   UNK N   1      21.878  12.379   5.500  0.00  0.00    -0.042 A 
HETATM   37  C   UNK N   1      20.904  11.631   6.130  0.00  0.00     0.008 A 
HETATM   38  C   UNK N   1      19.865  11.119   5.345  0.00  0.00     0.001 A 
HETATM   39  C   UNK N   1      19.823  11.346   3.957  0.00  0.00     0.000 A 
HETATM   40  C   UNK N   1      20.808  12.089   3.333  0.00  0.00     0.001 A 
HETATM   41  C   UNK N   1      21.821  12.577   4.096  0.00  0.00     0.008 A 
ENDBRANCH  21  36
BRANCH  24  42
HETATM   42  C   UNK N   1      20.603  14.671   7.019  0.00  0.00     0.051 C 
BRANCH  42  43
HETATM   43  C   UNK N   1      20.629  15.027   8.513  0.00  0.00     0.114 C 
BRANCH  43  44
HETATM   44  C   UNK N   1      19.795  16.241   8.799  0.00  0.00     0.139 C 
HETATM   45  O   UNK N   1      20.308  17.349   8.827  0.00  0.00    -0.650 OA
BRANCH  44  46
HETATM   46  O   UNK N   1      18.488  16.106   9.079  0.00  0.00    -0.776 OA
HETATM   47  H   UNK N   1      17.836  16.644   8.674  0.00  0.00     0.167 HD
ENDBRANCH  44  46
ENDBRANCH  43  44
ENDBRANCH  42  43
ENDBRANCH  24  42
BRANCH   6  48
HETATM   48  C   UNK N   1      25.223  20.014   3.994  0.00  0.00     0.004 C 
HETATM   49  C   UNK N   1      24.639  20.561   2.936  0.00  0.00     0.012 C 
ENDBRANCH   6  48
BRANCH  27  50
HETATM   50  C   UNK N   1      30.722  14.125   3.933  0.00  0.00     0.004 C 
HETATM   51  C   UNK N   1      31.122  13.974   5.180  0.00  0.00     0.012 C 
ENDBRANCH  27  50
TORSDOF 11
ENDMDL
