REMARK  10 active torsions:
REMARK  status: ('A' for Active; 'I' for Inactive)
REMARK    1  A    between atoms: C_2  and  C_4 
REMARK    2  A    between atoms: C_4  and  N_5 
REMARK    3  A    between atoms: C_4  and  C_24 
REMARK       I    between atoms: N_5  and  C_6 
REMARK    4  A    between atoms: C_6  and  C_8 
REMARK    5  A    between atoms: C_8  and  N_9 
REMARK    6  A    between atoms: C_12  and  N_13 
REMARK    7  A    between atoms: C_17  and  C_18 
REMARK    8  A    between atoms: C_24  and  O_25 
REMARK    9  A    between atoms: C_24  and  C_26 
REMARK   10  A    between atoms: C_31  and  C_33 
ROOT
HETATM    1  N   UNK N   1       4.096  -0.490   0.472  0.00  0.00    -0.352 N 
HETATM    2  C   UNK N   1       2.795  -0.430   0.083  0.00  0.00     0.236 C 
HETATM    3  O   UNK N   1       2.426   0.318  -0.807  0.00  0.00    -0.272 OA
HETATM    4  H   UNK N   1       4.283  -1.058   1.254  0.00  0.00     0.163 HD
ENDROOT
BRANCH   1   5
HETATM    5  C   UNK N   1       5.248   0.176  -0.116  0.00  0.00     0.124 C 
BRANCH   5   6
HETATM    6  C   UNK N   1       5.138   1.716   0.030  0.00  0.00     0.003 C 
HETATM    7  C   UNK N   1       6.465   2.458   0.029  0.00  0.00     0.011 C 
HETATM    8  C   UNK N   1       4.318   2.301  -1.104  0.00  0.00     0.011 C 
ENDBRANCH   5   6
BRANCH   5   9
HETATM    9  C   UNK N   1       6.535  -0.405   0.536  0.00  0.00     0.217 C 
BRANCH   9  10
HETATM   10  O   UNK N   1       7.652  -0.042  -0.221  0.00  0.00    -0.385 OA
HETATM   11  H   UNK N   1       8.258  -0.587  -0.746  0.00  0.00     0.210 HD
ENDBRANCH   9  10
BRANCH   9  12
HETATM   12  C   UNK N   1       6.507  -1.905   0.667  0.00  0.00     0.171 A 
HETATM   13  N   UNK N   1       5.732  -2.578   1.539  0.00  0.00    -0.279 N 
HETATM   14  N   UNK N   1       5.964  -3.866   1.338  0.00  0.00    -0.281 N 
ATOM     15  HN  UNK N   1       5.091  -2.174   2.222  1.00  0.00     0.189 HD
HETATM   16  C   UNK N   1       6.879  -3.944   0.352  0.00  0.00     0.148 A 
ATOM     17  HN  UNK N   1       5.534  -4.647   1.833  1.00  0.00     0.189 HD
HETATM   18  O   UNK N   1       7.219  -2.740  -0.052  0.00  0.00    -0.279 OA
BRANCH  16  19
HETATM   19  C   UNK N   1       7.410  -5.230  -0.213  0.00  0.00     0.016 C 
HETATM   20  C   UNK N   1       8.039  -6.057   0.891  0.00  0.00     0.023 C 
HETATM   21  C   UNK N   1       8.455  -4.962  -1.280  0.00  0.00     0.023 C 
HETATM   22  C   UNK N   1       6.280  -6.023  -0.837  0.00  0.00     0.023 C 
ENDBRANCH  16  19
ENDBRANCH   9  12
ENDBRANCH   5   9
ENDBRANCH   1   5
BRANCH   2  23
HETATM   23  C   UNK N   1       1.804  -1.303   0.795  0.00  0.00     0.236 C 
BRANCH  23  24
HETATM   24  N   UNK N   1       1.477  -2.576   0.114  0.00  0.00    -0.289 N 
HETATM   25  C   UNK N   1       2.495  -3.444  -0.262  0.00  0.00     0.277 A 
HETATM   26  O   UNK N   1       3.660  -3.125  -0.131  0.00  0.00    -0.265 OA
HETATM   27  C   UNK N   1       2.200  -4.699  -0.794  0.00  0.00     0.110 A 
HETATM   28  C   UNK N   1       0.880  -5.073  -0.930  0.00  0.00     0.124 A 
HETATM   29  N   UNK N   1      -0.099  -4.213  -0.574  0.00  0.00    -0.349 N 
HETATM   30  C   UNK N   1       0.162  -2.973  -0.071  0.00  0.00     0.121 A 
ATOM     31  HN  UNK N   1      -1.071  -4.503  -0.686  1.00  0.00     0.167 HD
BRANCH  27  32
HETATM   32  N   UNK N   1       3.224  -5.589  -1.176  0.00  0.00    -0.394 N 
HETATM   33  H   UNK N   1       3.044  -6.519  -1.443  0.00  0.00     0.156 HD
HETATM   34  H   UNK N   1       4.155  -5.268  -1.176  0.00  0.00     0.156 HD
ENDBRANCH  27  32
BRANCH  30  35
HETATM   35  C   UNK N   1      -1.018  -2.112   0.243  0.00  0.00     0.008 A 
HETATM   36  C   UNK N   1      -2.300  -2.689   0.216  0.00  0.00     0.015 A 
HETATM   37  C   UNK N   1      -3.438  -1.913   0.445  0.00  0.00     0.001 A 
HETATM   38  C   UNK N   1      -3.312  -0.545   0.684  0.00  0.00     0.000 A 
HETATM   39  C   UNK N   1      -2.047   0.046   0.704  0.00  0.00     0.001 A 
HETATM   40  C   UNK N   1      -0.908  -0.734   0.486  0.00  0.00     0.015 A 
ENDBRANCH  30  35
ENDBRANCH  23  24
ENDBRANCH   2  23
TORSDOF 10
