REMARK  3 active torsions:
REMARK  status: ('A' for Active; 'I' for Inactive)
REMARK    1  A    between atoms: O_1  and  N_2 
REMARK       I    between atoms: N_2  and  C_3 
REMARK    2  A    between atoms: C_3  and  C_5 
REMARK    3  A    between atoms: C_10  and  O_11 
ROOT
HETATM    1  C   UNK N   1       1.450   0.581  -0.000  0.00  0.00     0.067 A 
HETATM    2  C   UNK N   1       1.433  -0.824   0.000  0.00  0.00     0.020 A 
HETATM    3  C   UNK N   1       0.223  -1.523   0.000  0.00  0.00     0.001 A 
HETATM    4  C   UNK N   1      -0.986  -0.827   0.000  0.00  0.00     0.003 A 
HETATM    5  C   UNK N   1      -0.987   0.568  -0.000  0.00  0.00     0.037 A 
HETATM    6  C   UNK N   1       0.217   1.277  -0.000  0.00  0.00     0.081 A 
ENDROOT
BRANCH   1   7
HETATM    7  C   UNK N   1       2.760   1.288  -0.000  0.00  0.00     0.277 C 
HETATM    8  N   UNK N   1       2.811   2.641   0.000  0.00  0.00    -0.233 N 
HETATM    9  H   UNK N   1       1.972   3.157   0.000  0.00  0.00     0.197 HD
HETATM   10  O   UNK N   1       3.799   0.644  -0.000  0.00  0.00    -0.265 OA
BRANCH   8  11
HETATM   11  O   UNK N   1       3.983   3.290   0.000  0.00  0.00    -0.287 OA
HETATM   12  H   UNK N   1       4.814   2.791   0.000  0.00  0.00     0.244 HD
ENDBRANCH   8  11
ENDBRANCH   1   7
BRANCH   6  13
HETATM   13  O   UNK N   1       0.175   2.621  -0.000  0.00  0.00    -0.360 OA
HETATM   14  H   UNK N   1       0.972   3.115  -0.000  0.00  0.00     0.217 HD
ENDBRANCH   6  13
TORSDOF 3
