REMARK  8 active torsions:
REMARK  status: ('A' for Active; 'I' for Inactive)
REMARK    1  A    between atoms: C_4  and  C_2 
REMARK    2  A    between atoms: O_16  and  C_2 
REMARK    3  A    between atoms: O_17  and  C_3 
REMARK    4  A    between atoms: C_5  and  O_18 
REMARK    5  A    between atoms: C_6  and  O_19 
REMARK    6  A    between atoms: C_7  and  O_20 
REMARK    7  A    between atoms: O_22  and  C_9 
REMARK    8  A    between atoms: N_13  and  N_15 
ROOT
HETATM    1  C   UNK N   1       3.284  -0.396  -0.533  0.00  0.00     0.180 C 
HETATM    2  C   UNK N   1       3.859   0.475   0.603  0.00  0.00     0.180 C 
HETATM    3  C   UNK N   1       3.341   1.897   0.437  0.00  0.00     0.183 C 
HETATM    4  C   UNK N   1       1.837   1.816   0.712  0.00  0.00     0.215 C 
HETATM    5  C   UNK N   1       0.187  -0.159   0.516  0.00  0.00     0.305 A 
HETATM    6  C   UNK N   1      -0.998   0.962  -0.952  0.00  0.00     0.244 A 
HETATM    7  C   UNK N   1       1.142   0.763  -0.214  0.00  0.00     0.251 A 
HETATM    8  N   UNK N   1       0.190   1.421  -1.114  0.00  0.00    -0.313 N 
ATOM      9  HN  UNK N   1       0.439   2.149  -1.784  1.00  0.00     0.166 HD
HETATM   10  N   UNK N   1      -1.056  -0.021   0.049  0.00  0.00    -0.180 N 
HETATM   11  O   UNK N   1       0.503  -0.976   1.368  0.00  0.00    -0.265 OA
HETATM   12  O   UNK N   1       2.003  -0.026  -1.025  0.00  0.00    -0.340 OA
ENDROOT
BRANCH   4  13
HETATM   13  O   UNK N   1       1.253   3.083   0.597  0.00  0.00    -0.387 OA
HETATM   14  H   UNK N   1       1.811   3.872   0.518  0.00  0.00     0.210 HD
ENDBRANCH   4  13
BRANCH   3  15
HETATM   15  O   UNK N   1       3.946   2.744   1.370  0.00  0.00    -0.390 OA
HETATM   16  H   UNK N   1       4.665   2.675   2.017  0.00  0.00     0.210 HD
ENDBRANCH   3  15
BRANCH  10  17
HETATM   17  N   UNK N   1      -2.095  -0.873   0.394  0.00  0.00    -0.271 N 
HETATM   18  C   UNK N   1      -3.355  -0.642   0.231  0.00  0.00     0.126 C 
HETATM   19  C   UNK N   1      -4.334  -1.709   0.582  0.00  0.00     0.098 C 
ATOM     20  HN  UNK N   1      -1.840  -1.766   0.817  1.00  0.00     0.189 HD
BRANCH  18  21
HETATM   21  O   UNK N   1      -3.816   0.543  -0.203  0.00  0.00    -0.349 OA
HETATM   22  H   UNK N   1      -3.260   1.234  -0.507  0.00  0.00     0.219 HD
ENDBRANCH  18  21
ENDBRANCH  10  17
BRANCH   6  23
HETATM   23  O   UNK N   1      -2.027   1.358  -1.721  0.00  0.00    -0.331 OA
HETATM   24  H   UNK N   1      -2.146   2.117  -2.258  0.00  0.00     0.221 HD
ENDBRANCH   6  23
BRANCH   1  25
HETATM   25  C   UNK N   1       3.284  -1.882  -0.179  0.00  0.00     0.198 C 
BRANCH  25  26
HETATM   26  O   UNK N   1       4.578  -2.338   0.075  0.00  0.00    -0.398 OA
HETATM   27  H   UNK N   1       4.753  -3.276   0.252  0.00  0.00     0.209 HD
ENDBRANCH  25  26
ENDBRANCH   1  25
BRANCH   2  28
HETATM   28  O   UNK N   1       5.257   0.442   0.564  0.00  0.00    -0.390 OA
HETATM   29  H   UNK N   1       5.722  -0.408   0.537  0.00  0.00     0.210 HD
ENDBRANCH   2  28
TORSDOF 8
