REMARK  7 active torsions:
REMARK  status: ('A' for Active; 'I' for Inactive)
REMARK    1  A    between atoms: C_1  and  O_20 
REMARK    2  A    between atoms: C_2  and  O_19 
REMARK    3  A    between atoms: C_5  and  O_21 
REMARK    4  A    between atoms: C_6  and  O_18 
REMARK    5  A    between atoms: C_7  and  C_22 
REMARK    6  A    between atoms: C_13  and  O_17 
REMARK    7  A    between atoms: C_15  and  O_16 
ROOT
HETATM    1  C   UNK N   1       0.406  -1.636  -0.381  0.00  0.00     0.156 C 
HETATM    2  C   UNK N   1       0.434  -0.293   0.367  0.00  0.00     0.191 C 
HETATM    3  O   UNK N   1      -0.697   0.448   0.061  0.00  0.00    -0.338 OA
HETATM    4  C   UNK N   1      -0.878  -2.390  -0.015  0.00  0.00     0.079 C 
HETATM    5  C   UNK N   1      -2.091  -1.498  -0.004  0.00  0.00     0.011 A 
HETATM    6  C   UNK N   1      -1.931  -0.099   0.011  0.00  0.00     0.081 A 
HETATM    7  C   UNK N   1      -3.052   0.734  -0.015  0.00  0.00     0.074 A 
HETATM    8  C   UNK N   1      -4.334   0.183  -0.029  0.00  0.00     0.071 A 
HETATM    9  C   UNK N   1      -4.499  -1.205  -0.014  0.00  0.00     0.073 A 
HETATM   10  C   UNK N   1      -3.383  -2.048  -0.003  0.00  0.00     0.077 A 
ENDROOT
BRANCH   2  11
HETATM   11  C   UNK N   1       1.670   0.554   0.170  0.00  0.00    -0.021 A 
HETATM   12  C   UNK N   1       1.558   1.951   0.078  0.00  0.00     0.049 A 
HETATM   13  C   UNK N   1       2.695   2.751  -0.030  0.00  0.00     0.102 A 
HETATM   14  C   UNK N   1       3.966   2.161  -0.060  0.00  0.00     0.132 A 
HETATM   15  C   UNK N   1       4.086   0.766   0.029  0.00  0.00     0.102 A 
HETATM   16  C   UNK N   1       2.946  -0.027   0.160  0.00  0.00     0.049 A 
BRANCH  13  17
HETATM   17  O   UNK N   1       2.566   4.087  -0.100  0.00  0.00    -0.358 OA
HETATM   18  H   UNK N   1       3.327   4.631  -0.148  0.00  0.00     0.217 HD
ENDBRANCH  13  17
BRANCH  14  19
HETATM   19  O   UNK N   1       5.064   2.928  -0.169  0.00  0.00    -0.356 OA
HETATM   20  H   UNK N   1       5.910   2.532  -0.246  0.00  0.00     0.218 HD
ENDBRANCH  14  19
BRANCH  15  21
HETATM   21  O   UNK N   1       5.299   0.187  -0.005  0.00  0.00    -0.358 OA
HETATM   22  H   UNK N   1       5.372  -0.747  -0.028  0.00  0.00     0.217 HD
ENDBRANCH  15  21
ENDBRANCH   2  11
BRANCH   1  23
HETATM   23  O   UNK N   1       1.491  -2.432  -0.010  0.00  0.00    -0.392 OA
HETATM   24  H   UNK N   1       1.388  -3.362   0.247  0.00  0.00     0.210 HD
ENDBRANCH   1  23
BRANCH  10  25
HETATM   25  O   UNK N   1      -3.558  -3.381   0.007  0.00  0.00    -0.360 OA
HETATM   26  H   UNK N   1      -4.423  -3.740   0.015  0.00  0.00     0.217 HD
ENDBRANCH  10  25
BRANCH   8  27
HETATM   27  O   UNK N   1      -5.408   0.987  -0.048  0.00  0.00    -0.361 OA
HETATM   28  H   UNK N   1      -5.296   1.918  -0.062  0.00  0.00     0.217 HD
ENDBRANCH   8  27
TORSDOF 7
