MODEL 1
REMARK VINA RESULT:      -8.3      0.000      0.000
REMARK  14 active torsions:
REMARK  status: ('A' for Active; 'I' for Inactive)
REMARK    1  A    between atoms: C_2  and  C_1 
REMARK    2  A    between atoms: C_3  and  C_1 
REMARK    3  A    between atoms: C_11  and  C_2 
REMARK    4  A    between atoms: N_21  and  C_3 
REMARK    5  A    between atoms: N_30  and  C_8 
REMARK    6  A    between atoms: C_18  and  C_9 
REMARK    7  A    between atoms: O_31  and  C_10 
REMARK    8  A    between atoms: O_32  and  C_13 
REMARK    9  A    between atoms: C_14  and  O_33 
REMARK   10  A    between atoms: C_15  and  O_34 
REMARK   11  A    between atoms: N_20  and  C_16 
REMARK   12  A    between atoms: N_21  and  C_18 
REMARK   13  A    between atoms: O_35  and  C_18 
REMARK   14  A    between atoms: C_19  and  N_29 
ROOT
HETATM    1  C   UNK N   1      24.299  19.579   4.023  0.00  0.00     0.178 C 
HETATM    2  C   UNK N   1      24.057  20.744   3.039  0.00  0.00     0.183 C 
HETATM    3  C   UNK N   1      22.619  20.502   2.576  0.00  0.00     0.199 C 
HETATM    4  C   UNK N   1      22.184  19.362   3.502  0.00  0.00     0.262 C 
HETATM    5  O   UNK N   1      23.327  18.627   3.801  0.00  0.00    -0.352 OA
ENDROOT
BRANCH   1   6
HETATM    6  C   UNK N   1      25.593  18.886   3.834  0.00  0.00     0.005 C 
BRANCH   6   7
HETATM    7  C   UNK N   1      25.653  17.572   3.753  0.00  0.00    -0.009 C 
BRANCH   7   8
HETATM    8  C   UNK N   1      26.862  16.905   4.254  0.00  0.00     0.148 C 
BRANCH   8   9
HETATM    9  N   UNK N   1      27.029  17.611   5.472  0.00  0.00    -0.367 N 
ATOM     10  HN  UNK N   1      26.915  18.625   5.472  1.00  0.00     0.161 HD
BRANCH   9  11
HETATM   11  C   UNK N   1      27.315  17.027   6.563  0.00  0.00     0.149 C 
BRANCH  11  12
HETATM   12  C   UNK N   1      28.546  17.401   7.257  0.00  0.00     0.053 A 
HETATM   13  C   UNK N   1      29.748  17.074   6.654  0.00  0.00     0.054 A 
HETATM   14  C   UNK N   1      30.959  17.340   7.284  0.00  0.00     0.106 A 
HETATM   15  C   UNK N   1      30.962  17.908   8.568  0.00  0.00     0.075 A 
HETATM   16  C   UNK N   1      29.757  18.224   9.203  0.00  0.00     0.102 A 
HETATM   17  C   UNK N   1      28.542  17.987   8.551  0.00  0.00     0.113 A 
BRANCH  14  18
HETATM   18  N   UNK N   1      32.167  17.032   6.605  0.00  0.00    -0.116 N 
HETATM   19  O   UNK N   1      32.193  16.144   5.803  0.00  0.00    -0.532 OA
HETATM   20  O   UNK N   1      33.165  17.633   6.849  0.00  0.00    -0.532 OA
ENDBRANCH  14  18
BRANCH  16  21
HETATM   21  O   UNK N   1      29.769  18.738  10.446  0.00  0.00    -0.358 OA
HETATM   22  H   UNK N   1      30.251  18.309  11.126  0.00  0.00     0.217 HD
ENDBRANCH  16  21
BRANCH  17  23
HETATM   23  O   UNK N   1      27.387  18.275   9.185  0.00  0.00    -0.357 OA
HETATM   24  H   UNK N   1      27.334  19.012   9.761  0.00  0.00     0.217 HD
ENDBRANCH  17  23
ENDBRANCH  11  12
BRANCH  11  25
HETATM   25  O   UNK N   1      26.438  16.178   7.142  0.00  0.00    -0.346 OA
HETATM   26  H   UNK N   1      25.564  16.371   7.420  0.00  0.00     0.219 HD
ENDBRANCH  11  25
ENDBRANCH   9  11
ENDBRANCH   8   9
ENDBRANCH   7   8
ENDBRANCH   6   7
ENDBRANCH   1   6
BRANCH   2  27
HETATM   27  O   UNK N   1      24.916  20.696   1.934  0.00  0.00    -0.390 OA
HETATM   28  H   UNK N   1      25.515  21.074   1.270  0.00  0.00     0.210 HD
ENDBRANCH   2  27
BRANCH   3  29
HETATM   29  O   UNK N   1      21.826  21.640   2.754  0.00  0.00    -0.388 OA
HETATM   30  H   UNK N   1      21.890  22.489   2.286  0.00  0.00     0.210 HD
ENDBRANCH   3  29
BRANCH   4  31
HETATM   31  N   UNK N   1      21.179  18.414   3.025  0.00  0.00    -0.297 N 
HETATM   32  C   UNK N   1      19.991  18.797   2.478  0.00  0.00     0.188 A 
HETATM   33  N   UNK N   1      19.334  17.752   1.921  0.00  0.00    -0.346 N 
HETATM   34  C   UNK N   1      20.142  16.705   2.145  0.00  0.00     0.122 A 
ATOM     35  HN  UNK N   1      18.433  17.758   1.443  1.00  0.00     0.167 HD
HETATM   36  C   UNK N   1      20.010  15.399   1.730  0.00  0.00     0.131 A 
HETATM   37  C   UNK N   1      21.238  17.097   2.831  0.00  0.00     0.142 A 
HETATM   38  N   UNK N   1      20.993  14.517   2.077  0.00  0.00    -0.337 N 
HETATM   39  C   UNK N   1      22.085  14.927   2.809  0.00  0.00     0.183 A 
ATOM     40  HN  UNK N   1      20.918  13.541   1.790  1.00  0.00     0.168 HD
HETATM   41  N   UNK N   1      22.228  16.241   3.172  0.00  0.00    -0.336 N 
ATOM     42  HN  UNK N   1      23.051  16.562   3.683  1.00  0.00     0.168 HD
BRANCH  36  43
HETATM   43  N   UNK N   1      18.922  14.997   0.929  0.00  0.00    -0.383 N 
HETATM   44  H   UNK N   1      18.192  15.626   0.728  0.00  0.00     0.157 HD
HETATM   45  H   UNK N   1      18.892  14.082   0.569  0.00  0.00     0.157 HD
ENDBRANCH  36  43
ENDBRANCH   4  31
TORSDOF 14
ENDMDL
MODEL 2
REMARK VINA RESULT:      -7.9      8.031     14.745
REMARK  14 active torsions:
REMARK  status: ('A' for Active; 'I' for Inactive)
REMARK    1  A    between atoms: C_2  and  C_1 
REMARK    2  A    between atoms: C_3  and  C_1 
REMARK    3  A    between atoms: C_11  and  C_2 
REMARK    4  A    between atoms: N_21  and  C_3 
REMARK    5  A    between atoms: N_30  and  C_8 
REMARK    6  A    between atoms: C_18  and  C_9 
REMARK    7  A    between atoms: O_31  and  C_10 
REMARK    8  A    between atoms: O_32  and  C_13 
REMARK    9  A    between atoms: C_14  and  O_33 
REMARK   10  A    between atoms: C_15  and  O_34 
REMARK   11  A    between atoms: N_20  and  C_16 
REMARK   12  A    between atoms: N_21  and  C_18 
REMARK   13  A    between atoms: O_35  and  C_18 
REMARK   14  A    between atoms: C_19  and  N_29 
ROOT
HETATM    1  C   UNK N   1      36.269  13.367  10.741  0.00  0.00     0.178 C 
HETATM    2  C   UNK N   1      37.567  12.581  11.024  0.00  0.00     0.183 C 
HETATM    3  C   UNK N   1      37.367  12.103  12.464  0.00  0.00     0.199 C 
HETATM    4  C   UNK N   1      35.914  12.512  12.725  0.00  0.00     0.262 C 
HETATM    5  O   UNK N   1      35.667  13.642  11.951  0.00  0.00    -0.352 OA
ENDROOT
BRANCH   1   6
HETATM    6  C   UNK N   1      36.486  14.679  10.091  0.00  0.00     0.005 C 
BRANCH   6   7
HETATM    7  C   UNK N   1      35.469  15.452   9.769  0.00  0.00    -0.009 C 
BRANCH   7   8
HETATM    8  C   UNK N   1      35.466  16.832  10.272  0.00  0.00     0.148 C 
BRANCH   8   9
HETATM    9  N   UNK N   1      34.245  17.282   9.709  0.00  0.00    -0.367 N 
ATOM     10  HN  UNK N   1      33.377  17.114  10.219  1.00  0.00     0.161 HD
BRANCH   9  11
HETATM   11  C   UNK N   1      34.191  17.885   8.593  0.00  0.00     0.149 C 
BRANCH  11  12
HETATM   12  C   UNK N   1      33.152  17.505   7.637  0.00  0.00     0.053 A 
HETATM   13  C   UNK N   1      33.542  17.235   6.338  0.00  0.00     0.054 A 
HETATM   14  C   UNK N   1      32.603  16.929   5.359  0.00  0.00     0.106 A 
HETATM   15  C   UNK N   1      31.236  16.936   5.684  0.00  0.00     0.075 A 
HETATM   16  C   UNK N   1      30.821  17.229   6.986  0.00  0.00     0.102 A 
HETATM   17  C   UNK N   1      31.773  17.502   7.976  0.00  0.00     0.113 A 
BRANCH  14  18
HETATM   18  N   UNK N   1      33.054  16.611   4.051  0.00  0.00    -0.116 N 
HETATM   19  O   UNK N   1      33.847  15.729   3.889  0.00  0.00    -0.532 OA
HETATM   20  O   UNK N   1      32.669  17.235   3.113  0.00  0.00    -0.532 OA
ENDBRANCH  14  18
BRANCH  16  21
HETATM   21  O   UNK N   1      29.510  17.266   7.280  0.00  0.00    -0.358 OA
HETATM   22  H   UNK N   1      29.006  16.475   7.275  0.00  0.00     0.217 HD
ENDBRANCH  16  21
BRANCH  17  23
HETATM   23  O   UNK N   1      31.357  17.807   9.222  0.00  0.00    -0.357 OA
HETATM   24  H   UNK N   1      31.177  18.696   9.458  0.00  0.00     0.217 HD
ENDBRANCH  17  23
ENDBRANCH  11  12
BRANCH  11  25
HETATM   25  O   UNK N   1      34.989  18.947   8.343  0.00  0.00    -0.346 OA
HETATM   26  H   UNK N   1      35.895  18.929   8.104  0.00  0.00     0.219 HD
ENDBRANCH  11  25
ENDBRANCH   9  11
ENDBRANCH   8   9
ENDBRANCH   7   8
ENDBRANCH   6   7
ENDBRANCH   1   6
BRANCH   2  27
HETATM   27  O   UNK N   1      38.707  13.392  10.957  0.00  0.00    -0.390 OA
HETATM   28  H   UNK N   1      39.637  13.615  11.124  0.00  0.00     0.210 HD
ENDBRANCH   2  27
BRANCH   3  29
HETATM   29  O   UNK N   1      37.538  10.719  12.573  0.00  0.00    -0.388 OA
HETATM   30  H   UNK N   1      37.690  10.081  11.856  0.00  0.00     0.210 HD
ENDBRANCH   3  29
BRANCH   4  31
HETATM   31  N   UNK N   1      35.509  12.834  14.092  0.00  0.00    -0.297 N 
HETATM   32  C   UNK N   1      34.620  12.087  14.804  0.00  0.00     0.188 A 
HETATM   33  N   UNK N   1      34.576  12.462  16.104  0.00  0.00    -0.346 N 
HETATM   34  C   UNK N   1      35.457  13.470  16.180  0.00  0.00     0.122 A 
ATOM     35  HN  UNK N   1      34.004  12.069  16.852  1.00  0.00     0.167 HD
HETATM   36  C   UNK N   1      35.874  14.179  17.284  0.00  0.00     0.131 A 
HETATM   37  C   UNK N   1      35.999  13.712  14.968  0.00  0.00     0.142 A 
HETATM   38  N   UNK N   1      36.808  15.157  17.098  0.00  0.00    -0.337 N 
HETATM   39  C   UNK N   1      37.322  15.415  15.847  0.00  0.00     0.183 A 
ATOM     40  HN  UNK N   1      37.130  15.704  17.896  1.00  0.00     0.168 HD
HETATM   41  N   UNK N   1      36.935  14.667  14.766  0.00  0.00    -0.336 N 
ATOM     42  HN  UNK N   1      37.337  14.826  13.842  1.00  0.00     0.168 HD
BRANCH  36  43
HETATM   43  N   UNK N   1      35.391  13.871  18.572  0.00  0.00    -0.383 N 
HETATM   44  H   UNK N   1      34.423  13.850  18.750  0.00  0.00     0.157 HD
HETATM   45  H   UNK N   1      36.025  13.675  19.299  0.00  0.00     0.157 HD
ENDBRANCH  36  43
ENDBRANCH   4  31
TORSDOF 14
ENDMDL
MODEL 3
REMARK VINA RESULT:      -7.9      8.043     15.289
REMARK  14 active torsions:
REMARK  status: ('A' for Active; 'I' for Inactive)
REMARK    1  A    between atoms: C_2  and  C_1 
REMARK    2  A    between atoms: C_3  and  C_1 
REMARK    3  A    between atoms: C_11  and  C_2 
REMARK    4  A    between atoms: N_21  and  C_3 
REMARK    5  A    between atoms: N_30  and  C_8 
REMARK    6  A    between atoms: C_18  and  C_9 
REMARK    7  A    between atoms: O_31  and  C_10 
REMARK    8  A    between atoms: O_32  and  C_13 
REMARK    9  A    between atoms: C_14  and  O_33 
REMARK   10  A    between atoms: C_15  and  O_34 
REMARK   11  A    between atoms: N_20  and  C_16 
REMARK   12  A    between atoms: N_21  and  C_18 
REMARK   13  A    between atoms: O_35  and  C_18 
REMARK   14  A    between atoms: C_19  and  N_29 
ROOT
HETATM    1  C   UNK N   1      35.226  13.621  12.398  0.00  0.00     0.178 C 
HETATM    2  C   UNK N   1      36.463  12.733  12.146  0.00  0.00     0.183 C 
HETATM    3  C   UNK N   1      36.727  12.119  13.522  0.00  0.00     0.199 C 
HETATM    4  C   UNK N   1      35.498  12.586  14.309  0.00  0.00     0.262 C 
HETATM    5  O   UNK N   1      35.106  13.803  13.760  0.00  0.00    -0.352 OA
ENDROOT
BRANCH   1   6
HETATM    6  C   UNK N   1      35.326  14.979  11.818  0.00  0.00     0.005 C 
BRANCH   6   7
HETATM    7  C   UNK N   1      34.620  15.317  10.758  0.00  0.00    -0.009 C 
BRANCH   7   8
HETATM    8  C   UNK N   1      35.283  16.106   9.711  0.00  0.00     0.148 C 
BRANCH   8   9
HETATM    9  N   UNK N   1      34.444  17.250   9.718  0.00  0.00    -0.367 N 
ATOM     10  HN  UNK N   1      33.976  17.511  10.586  1.00  0.00     0.161 HD
BRANCH   9  11
HETATM   11  C   UNK N   1      34.254  17.961   8.683  0.00  0.00     0.149 C 
BRANCH  11  12
HETATM   12  C   UNK N   1      33.056  17.725   7.879  0.00  0.00     0.053 A 
HETATM   13  C   UNK N   1      31.846  17.632   8.542  0.00  0.00     0.054 A 
HETATM   14  C   UNK N   1      30.672  17.346   7.853  0.00  0.00     0.106 A 
HETATM   15  C   UNK N   1      30.723  17.105   6.470  0.00  0.00     0.075 A 
HETATM   16  C   UNK N   1      31.940  17.172   5.786  0.00  0.00     0.102 A 
HETATM   17  C   UNK N   1      33.113  17.495   6.479  0.00  0.00     0.113 A 
BRANCH  14  18
HETATM   18  N   UNK N   1      29.448  17.309   8.569  0.00  0.00    -0.116 N 
HETATM   19  O   UNK N   1      28.407  17.386   7.981  0.00  0.00    -0.532 OA
HETATM   20  O   UNK N   1      29.446  17.230   9.757  0.00  0.00    -0.532 OA
ENDBRANCH  14  18
BRANCH  16  21
HETATM   21  O   UNK N   1      31.984  16.909   4.468  0.00  0.00    -0.358 OA
HETATM   22  H   UNK N   1      31.835  16.036   4.159  0.00  0.00     0.217 HD
ENDBRANCH  16  21
BRANCH  17  23
HETATM   23  O   UNK N   1      34.283  17.533   5.810  0.00  0.00    -0.357 OA
HETATM   24  H   UNK N   1      34.899  18.221   5.970  0.00  0.00     0.217 HD
ENDBRANCH  17  23
ENDBRANCH  11  12
BRANCH  11  25
HETATM   25  O   UNK N   1      35.069  19.002   8.402  0.00  0.00    -0.346 OA
HETATM   26  H   UNK N   1      34.929  19.670   7.760  0.00  0.00     0.219 HD
ENDBRANCH  11  25
ENDBRANCH   9  11
ENDBRANCH   8   9
ENDBRANCH   7   8
ENDBRANCH   6   7
ENDBRANCH   1   6
BRANCH   2  27
HETATM   27  O   UNK N   1      37.580  13.476  11.745  0.00  0.00    -0.390 OA
HETATM   28  H   UNK N   1      38.418  13.947  11.883  0.00  0.00     0.210 HD
ENDBRANCH   2  27
BRANCH   3  29
HETATM   29  O   UNK N   1      36.796  10.724  13.457  0.00  0.00    -0.388 OA
HETATM   30  H   UNK N   1      36.209  10.123  12.971  0.00  0.00     0.210 HD
ENDBRANCH   3  29
BRANCH   4  31
HETATM   31  N   UNK N   1      35.622  12.786  15.751  0.00  0.00    -0.297 N 
HETATM   32  C   UNK N   1      35.743  14.016  16.326  0.00  0.00     0.188 A 
HETATM   33  N   UNK N   1      35.623  13.953  17.674  0.00  0.00    -0.346 N 
HETATM   34  C   UNK N   1      35.434  12.649  17.923  0.00  0.00     0.122 A 
ATOM     35  HN  UNK N   1      35.669  14.720  18.345  1.00  0.00     0.167 HD
HETATM   36  C   UNK N   1      35.178  12.020  19.120  0.00  0.00     0.131 A 
HETATM   37  C   UNK N   1      35.459  11.944  16.772  0.00  0.00     0.142 A 
HETATM   38  N   UNK N   1      35.001  10.666  19.103  0.00  0.00    -0.337 N 
HETATM   39  C   UNK N   1      35.066   9.958  17.924  0.00  0.00     0.183 A 
ATOM     40  HN  UNK N   1      34.817  10.172  19.977  1.00  0.00     0.168 HD
HETATM   41  N   UNK N   1      35.273  10.605  16.734  0.00  0.00    -0.336 N 
ATOM     42  HN  UNK N   1      35.287  10.094  15.850  1.00  0.00     0.168 HD
BRANCH  36  43
HETATM   43  N   UNK N   1      35.050  12.755  20.316  0.00  0.00    -0.383 N 
HETATM   44  H   UNK N   1      35.498  12.451  21.138  0.00  0.00     0.157 HD
HETATM   45  H   UNK N   1      34.510  13.578  20.329  0.00  0.00     0.157 HD
ENDBRANCH  36  43
ENDBRANCH   4  31
TORSDOF 14
ENDMDL
MODEL 4
REMARK VINA RESULT:      -7.8      6.271     11.749
REMARK  14 active torsions:
REMARK  status: ('A' for Active; 'I' for Inactive)
REMARK    1  A    between atoms: C_2  and  C_1 
REMARK    2  A    between atoms: C_3  and  C_1 
REMARK    3  A    between atoms: C_11  and  C_2 
REMARK    4  A    between atoms: N_21  and  C_3 
REMARK    5  A    between atoms: N_30  and  C_8 
REMARK    6  A    between atoms: C_18  and  C_9 
REMARK    7  A    between atoms: O_31  and  C_10 
REMARK    8  A    between atoms: O_32  and  C_13 
REMARK    9  A    between atoms: C_14  and  O_33 
REMARK   10  A    between atoms: C_15  and  O_34 
REMARK   11  A    between atoms: N_20  and  C_16 
REMARK   12  A    between atoms: N_21  and  C_18 
REMARK   13  A    between atoms: O_35  and  C_18 
REMARK   14  A    between atoms: C_19  and  N_29 
ROOT
HETATM    1  C   UNK N   1      34.412  16.629   7.141  0.00  0.00     0.178 C 
HETATM    2  C   UNK N   1      34.354  17.779   8.170  0.00  0.00     0.183 C 
HETATM    3  C   UNK N   1      34.631  17.064   9.494  0.00  0.00     0.199 C 
HETATM    4  C   UNK N   1      34.999  15.656   9.013  0.00  0.00     0.262 C 
HETATM    5  O   UNK N   1      34.301  15.439   7.829  0.00  0.00    -0.352 OA
ENDROOT
BRANCH   1   6
HETATM    6  C   UNK N   1      33.300  16.635   6.164  0.00  0.00     0.005 C 
BRANCH   6   7
HETATM    7  C   UNK N   1      33.444  17.187   4.976  0.00  0.00    -0.009 C 
BRANCH   7   8
HETATM    8  C   UNK N   1      32.529  16.768   3.906  0.00  0.00     0.148 C 
BRANCH   8   9
HETATM    9  N   UNK N   1      31.531  17.765   4.050  0.00  0.00    -0.367 N 
ATOM     10  HN  UNK N   1      31.815  18.746   4.063  1.00  0.00     0.161 HD
BRANCH   9  11
HETATM   11  C   UNK N   1      30.298  17.483   4.162  0.00  0.00     0.149 C 
BRANCH  11  12
HETATM   12  C   UNK N   1      29.585  17.919   5.362  0.00  0.00     0.053 A 
HETATM   13  C   UNK N   1      29.994  17.398   6.577  0.00  0.00     0.054 A 
HETATM   14  C   UNK N   1      29.324  17.716   7.753  0.00  0.00     0.106 A 
HETATM   15  C   UNK N   1      28.190  18.542   7.702  0.00  0.00     0.075 A 
HETATM   16  C   UNK N   1      27.747  19.060   6.481  0.00  0.00     0.102 A 
HETATM   17  C   UNK N   1      28.446  18.765   5.304  0.00  0.00     0.113 A 
BRANCH  14  18
HETATM   18  N   UNK N   1      29.809  17.197   8.981  0.00  0.00    -0.116 N 
HETATM   19  O   UNK N   1      29.173  17.340   9.986  0.00  0.00    -0.532 OA
HETATM   20  O   UNK N   1      30.862  16.643   9.027  0.00  0.00    -0.532 OA
ENDBRANCH  14  18
BRANCH  16  21
HETATM   21  O   UNK N   1      26.642  19.824   6.437  0.00  0.00    -0.358 OA
HETATM   22  H   UNK N   1      26.368  20.296   7.199  0.00  0.00     0.217 HD
ENDBRANCH  16  21
BRANCH  17  23
HETATM   23  O   UNK N   1      27.994  19.252   4.131  0.00  0.00    -0.357 OA
HETATM   24  H   UNK N   1      28.594  19.464   3.443  0.00  0.00     0.217 HD
ENDBRANCH  17  23
ENDBRANCH  11  12
BRANCH  11  25
HETATM   25  O   UNK N   1      29.624  16.913   3.139  0.00  0.00    -0.346 OA
HETATM   26  H   UNK N   1      29.368  16.015   3.064  0.00  0.00     0.219 HD
ENDBRANCH  11  25
ENDBRANCH   9  11
ENDBRANCH   8   9
ENDBRANCH   7   8
ENDBRANCH   6   7
ENDBRANCH   1   6
BRANCH   2  27
HETATM   27  O   UNK N   1      33.092  18.385   8.223  0.00  0.00    -0.390 OA
HETATM   28  H   UNK N   1      32.305  18.808   7.845  0.00  0.00     0.210 HD
ENDBRANCH   2  27
BRANCH   3  29
HETATM   29  O   UNK N   1      35.687  17.662  10.188  0.00  0.00    -0.388 OA
HETATM   30  H   UNK N   1      36.544  17.949   9.833  0.00  0.00     0.210 HD
ENDBRANCH   3  29
BRANCH   4  31
HETATM   31  N   UNK N   1      34.721  14.520   9.888  0.00  0.00    -0.297 N 
HETATM   32  C   UNK N   1      34.143  13.366   9.453  0.00  0.00     0.188 A 
HETATM   33  N   UNK N   1      34.189  12.394  10.395  0.00  0.00    -0.346 N 
HETATM   34  C   UNK N   1      34.805  12.979  11.433  0.00  0.00     0.122 A 
ATOM     35  HN  UNK N   1      33.836  11.439  10.331  1.00  0.00     0.167 HD
HETATM   36  C   UNK N   1      35.187  12.432  12.638  0.00  0.00     0.131 A 
HETATM   37  C   UNK N   1      35.102  14.262  11.140  0.00  0.00     0.142 A 
HETATM   38  N   UNK N   1      35.826  13.244  13.531  0.00  0.00    -0.337 N 
HETATM   39  C   UNK N   1      36.087  14.561  13.229  0.00  0.00     0.183 A 
ATOM     40  HN  UNK N   1      36.114  12.868  14.435  1.00  0.00     0.168 HD
HETATM   41  N   UNK N   1      35.745  15.078  12.007  0.00  0.00    -0.336 N 
ATOM     42  HN  UNK N   1      35.966  16.043  11.759  1.00  0.00     0.168 HD
BRANCH  36  43
HETATM   43  N   UNK N   1      34.974  11.068  12.918  0.00  0.00    -0.383 N 
HETATM   44  H   UNK N   1      34.827  10.425  12.187  0.00  0.00     0.157 HD
HETATM   45  H   UNK N   1      34.971  10.755  13.851  0.00  0.00     0.157 HD
ENDBRANCH  36  43
ENDBRANCH   4  31
TORSDOF 14
ENDMDL
MODEL 5
REMARK VINA RESULT:      -7.8      2.468      3.898
REMARK  14 active torsions:
REMARK  status: ('A' for Active; 'I' for Inactive)
REMARK    1  A    between atoms: C_2  and  C_1 
REMARK    2  A    between atoms: C_3  and  C_1 
REMARK    3  A    between atoms: C_11  and  C_2 
REMARK    4  A    between atoms: N_21  and  C_3 
REMARK    5  A    between atoms: N_30  and  C_8 
REMARK    6  A    between atoms: C_18  and  C_9 
REMARK    7  A    between atoms: O_31  and  C_10 
REMARK    8  A    between atoms: O_32  and  C_13 
REMARK    9  A    between atoms: C_14  and  O_33 
REMARK   10  A    between atoms: C_15  and  O_34 
REMARK   11  A    between atoms: N_20  and  C_16 
REMARK   12  A    between atoms: N_21  and  C_18 
REMARK   13  A    between atoms: O_35  and  C_18 
REMARK   14  A    between atoms: C_19  and  N_29 
ROOT
HETATM    1  C   UNK N   1      26.404  19.742   5.438  0.00  0.00     0.178 C 
HETATM    2  C   UNK N   1      27.032  19.965   4.044  0.00  0.00     0.183 C 
HETATM    3  C   UNK N   1      25.827  19.854   3.108  0.00  0.00     0.199 C 
HETATM    4  C   UNK N   1      24.666  19.781   4.106  0.00  0.00     0.262 C 
HETATM    5  O   UNK N   1      25.161  19.173   5.256  0.00  0.00    -0.352 OA
ENDROOT
BRANCH   1   6
HETATM    6  C   UNK N   1      27.156  18.800   6.296  0.00  0.00     0.005 C 
BRANCH   6   7
HETATM    7  C   UNK N   1      28.124  19.224   7.083  0.00  0.00    -0.009 C 
BRANCH   7   8
HETATM    8  C   UNK N   1      29.119  18.246   7.541  0.00  0.00     0.148 C 
BRANCH   8   9
HETATM    9  N   UNK N   1      29.352  17.563   6.321  0.00  0.00    -0.367 N 
ATOM     10  HN  UNK N   1      28.558  17.157   5.826  1.00  0.00     0.161 HD
BRANCH   9  11
HETATM   11  C   UNK N   1      30.514  17.438   5.821  0.00  0.00     0.149 C 
BRANCH  11  12
HETATM   12  C   UNK N   1      31.552  16.780   6.613  0.00  0.00     0.053 A 
HETATM   13  C   UNK N   1      32.557  17.572   7.138  0.00  0.00     0.054 A 
HETATM   14  C   UNK N   1      33.613  17.010   7.848  0.00  0.00     0.106 A 
HETATM   15  C   UNK N   1      33.682  15.615   7.996  0.00  0.00     0.075 A 
HETATM   16  C   UNK N   1      32.688  14.797   7.453  0.00  0.00     0.102 A 
HETATM   17  C   UNK N   1      31.609  15.370   6.770  0.00  0.00     0.113 A 
BRANCH  14  18
HETATM   18  N   UNK N   1      34.595  17.867   8.410  0.00  0.00    -0.116 N 
HETATM   19  O   UNK N   1      34.965  18.831   7.805  0.00  0.00    -0.532 OA
HETATM   20  O   UNK N   1      35.076  17.617   9.470  0.00  0.00    -0.532 OA
ENDBRANCH  14  18
BRANCH  16  21
HETATM   21  O   UNK N   1      32.779  13.460   7.573  0.00  0.00    -0.358 OA
HETATM   22  H   UNK N   1      33.557  13.074   7.924  0.00  0.00     0.217 HD
ENDBRANCH  16  21
BRANCH  17  23
HETATM   23  O   UNK N   1      30.669  14.567   6.231  0.00  0.00    -0.357 OA
HETATM   24  H   UNK N   1      30.255  14.798   5.423  0.00  0.00     0.217 HD
ENDBRANCH  17  23
ENDBRANCH  11  12
BRANCH  11  25
HETATM   25  O   UNK N   1      30.753  17.782   4.536  0.00  0.00    -0.346 OA
HETATM   26  H   UNK N   1      31.345  17.367   3.942  0.00  0.00     0.219 HD
ENDBRANCH  11  25
ENDBRANCH   9  11
ENDBRANCH   8   9
ENDBRANCH   7   8
ENDBRANCH   6   7
ENDBRANCH   1   6
BRANCH   2  27
HETATM   27  O   UNK N   1      27.969  18.977   3.717  0.00  0.00    -0.390 OA
HETATM   28  H   UNK N   1      28.275  18.168   3.275  0.00  0.00     0.210 HD
ENDBRANCH   2  27
BRANCH   3  29
HETATM   29  O   UNK N   1      25.720  20.973   2.276  0.00  0.00    -0.388 OA
HETATM   30  H   UNK N   1      26.161  21.124   1.424  0.00  0.00     0.210 HD
ENDBRANCH   3  29
BRANCH   4  31
HETATM   31  N   UNK N   1      23.457  19.055   3.725  0.00  0.00    -0.297 N 
HETATM   32  C   UNK N   1      23.184  17.787   4.144  0.00  0.00     0.188 A 
HETATM   33  N   UNK N   1      21.917  17.419   3.837  0.00  0.00    -0.346 N 
HETATM   34  C   UNK N   1      21.412  18.490   3.206  0.00  0.00     0.122 A 
ATOM     35  HN  UNK N   1      21.454  16.532   4.037  1.00  0.00     0.167 HD
HETATM   36  C   UNK N   1      20.134  18.702   2.740  0.00  0.00     0.131 A 
HETATM   37  C   UNK N   1      22.343  19.462   3.116  0.00  0.00     0.142 A 
HETATM   38  N   UNK N   1      19.864  19.901   2.145  0.00  0.00    -0.337 N 
HETATM   39  C   UNK N   1      20.837  20.867   2.027  0.00  0.00     0.183 A 
ATOM     40  HN  UNK N   1      18.928  20.083   1.783  1.00  0.00     0.168 HD
HETATM   41  N   UNK N   1      22.091  20.661   2.541  0.00  0.00    -0.336 N 
ATOM     42  HN  UNK N   1      22.809  21.385   2.492  1.00  0.00     0.168 HD
BRANCH  36  43
HETATM   43  N   UNK N   1      19.125  17.734   2.917  0.00  0.00    -0.383 N 
HETATM   44  H   UNK N   1      19.249  16.817   2.583  0.00  0.00     0.157 HD
HETATM   45  H   UNK N   1      18.290  17.977   3.378  0.00  0.00     0.157 HD
ENDBRANCH  36  43
ENDBRANCH   4  31
TORSDOF 14
ENDMDL
MODEL 6
REMARK VINA RESULT:      -7.8      4.447     11.826
REMARK  14 active torsions:
REMARK  status: ('A' for Active; 'I' for Inactive)
REMARK    1  A    between atoms: C_2  and  C_1 
REMARK    2  A    between atoms: C_3  and  C_1 
REMARK    3  A    between atoms: C_11  and  C_2 
REMARK    4  A    between atoms: N_21  and  C_3 
REMARK    5  A    between atoms: N_30  and  C_8 
REMARK    6  A    between atoms: C_18  and  C_9 
REMARK    7  A    between atoms: O_31  and  C_10 
REMARK    8  A    between atoms: O_32  and  C_13 
REMARK    9  A    between atoms: C_14  and  O_33 
REMARK   10  A    between atoms: C_15  and  O_34 
REMARK   11  A    between atoms: N_20  and  C_16 
REMARK   12  A    between atoms: N_21  and  C_18 
REMARK   13  A    between atoms: O_35  and  C_18 
REMARK   14  A    between atoms: C_19  and  N_29 
ROOT
HETATM    1  C   UNK N   1      32.844  16.387   7.175  0.00  0.00     0.178 C 
HETATM    2  C   UNK N   1      32.777  17.854   7.651  0.00  0.00     0.183 C 
HETATM    3  C   UNK N   1      33.976  17.960   8.596  0.00  0.00     0.199 C 
HETATM    4  C   UNK N   1      34.664  16.609   8.373  0.00  0.00     0.262 C 
HETATM    5  O   UNK N   1      33.666  15.697   8.042  0.00  0.00    -0.352 OA
ENDROOT
BRANCH   1   6
HETATM    6  C   UNK N   1      31.544  15.680   7.205  0.00  0.00     0.005 C 
BRANCH   6   7
HETATM    7  C   UNK N   1      30.954  15.298   6.091  0.00  0.00    -0.009 C 
BRANCH   7   8
HETATM    8  C   UNK N   1      29.548  15.675   5.891  0.00  0.00     0.148 C 
BRANCH   8   9
HETATM    9  N   UNK N   1      29.645  17.069   6.131  0.00  0.00    -0.367 N 
ATOM     10  HN  UNK N   1      29.932  17.389   7.056  1.00  0.00     0.161 HD
BRANCH   9  11
HETATM   11  C   UNK N   1      29.388  17.933   5.236  0.00  0.00     0.149 C 
BRANCH  11  12
HETATM   12  C   UNK N   1      28.228  18.805   5.415  0.00  0.00     0.053 A 
HETATM   13  C   UNK N   1      27.531  19.187   4.283  0.00  0.00     0.054 A 
HETATM   14  C   UNK N   1      26.456  20.065   4.367  0.00  0.00     0.106 A 
HETATM   15  C   UNK N   1      26.101  20.606   5.613  0.00  0.00     0.075 A 
HETATM   16  C   UNK N   1      26.808  20.251   6.765  0.00  0.00     0.102 A 
HETATM   17  C   UNK N   1      27.867  19.339   6.680  0.00  0.00     0.113 A 
BRANCH  14  18
HETATM   18  N   UNK N   1      25.741  20.389   3.185  0.00  0.00    -0.116 N 
HETATM   19  O   UNK N   1      24.641  19.949   3.011  0.00  0.00    -0.532 OA
HETATM   20  O   UNK N   1      26.238  21.074   2.348  0.00  0.00    -0.532 OA
ENDBRANCH  14  18
BRANCH  16  21
HETATM   21  O   UNK N   1      26.481  20.799   7.949  0.00  0.00    -0.358 OA
HETATM   22  H   UNK N   1      25.799  21.441   7.996  0.00  0.00     0.217 HD
ENDBRANCH  16  21
BRANCH  17  23
HETATM   23  O   UNK N   1      28.555  19.024   7.796  0.00  0.00    -0.357 OA
HETATM   24  H   UNK N   1      28.119  18.631   8.527  0.00  0.00     0.217 HD
ENDBRANCH  17  23
ENDBRANCH  11  12
BRANCH  11  25
HETATM   25  O   UNK N   1      30.241  18.137   4.208  0.00  0.00    -0.346 OA
HETATM   26  H   UNK N   1      30.527  18.962   3.867  0.00  0.00     0.219 HD
ENDBRANCH  11  25
ENDBRANCH   9  11
ENDBRANCH   8   9
ENDBRANCH   7   8
ENDBRANCH   6   7
ENDBRANCH   1   6
BRANCH   2  27
HETATM   27  O   UNK N   1      31.600  18.132   8.359  0.00  0.00    -0.390 OA
HETATM   28  H   UNK N   1      30.639  18.154   8.490  0.00  0.00     0.210 HD
ENDBRANCH   2  27
BRANCH   3  29
HETATM   29  O   UNK N   1      34.811  19.026   8.246  0.00  0.00    -0.388 OA
HETATM   30  H   UNK N   1      34.885  19.890   8.682  0.00  0.00     0.210 HD
ENDBRANCH   3  29
BRANCH   4  31
HETATM   31  N   UNK N   1      35.433  16.023   9.469  0.00  0.00    -0.297 N 
HETATM   32  C   UNK N   1      35.449  16.540  10.730  0.00  0.00     0.188 A 
HETATM   33  N   UNK N   1      36.054  15.704  11.607  0.00  0.00    -0.346 N 
HETATM   34  C   UNK N   1      36.422  14.656  10.855  0.00  0.00     0.122 A 
ATOM     35  HN  UNK N   1      36.197  15.840  12.608  1.00  0.00     0.167 HD
HETATM   36  C   UNK N   1      37.011  13.473  11.241  0.00  0.00     0.131 A 
HETATM   37  C   UNK N   1      36.073  14.858   9.567  0.00  0.00     0.142 A 
HETATM   38  N   UNK N   1      37.270  12.545  10.273  0.00  0.00    -0.337 N 
HETATM   39  C   UNK N   1      36.941  12.784   8.958  0.00  0.00     0.183 A 
ATOM     40  HN  UNK N   1      37.713  11.663  10.528  1.00  0.00     0.168 HD
HETATM   41  N   UNK N   1      36.309  13.945   8.596  0.00  0.00    -0.336 N 
ATOM     42  HN  UNK N   1      36.028  14.116   7.631  1.00  0.00     0.168 HD
BRANCH  36  43
HETATM   43  N   UNK N   1      37.290  13.207  12.597  0.00  0.00    -0.383 N 
HETATM   44  H   UNK N   1      36.577  12.898  13.201  0.00  0.00     0.157 HD
HETATM   45  H   UNK N   1      38.203  13.331  12.941  0.00  0.00     0.157 HD
ENDBRANCH  36  43
ENDBRANCH   4  31
TORSDOF 14
ENDMDL
MODEL 7
REMARK VINA RESULT:      -7.7     11.501     14.135
REMARK  14 active torsions:
REMARK  status: ('A' for Active; 'I' for Inactive)
REMARK    1  A    between atoms: C_2  and  C_1 
REMARK    2  A    between atoms: C_3  and  C_1 
REMARK    3  A    between atoms: C_11  and  C_2 
REMARK    4  A    between atoms: N_21  and  C_3 
REMARK    5  A    between atoms: N_30  and  C_8 
REMARK    6  A    between atoms: C_18  and  C_9 
REMARK    7  A    between atoms: O_31  and  C_10 
REMARK    8  A    between atoms: O_32  and  C_13 
REMARK    9  A    between atoms: C_14  and  O_33 
REMARK   10  A    between atoms: C_15  and  O_34 
REMARK   11  A    between atoms: N_20  and  C_16 
REMARK   12  A    between atoms: N_21  and  C_18 
REMARK   13  A    between atoms: O_35  and  C_18 
REMARK   14  A    between atoms: C_19  and  N_29 
ROOT
HETATM    1  C   UNK N   1      26.325  28.532  -4.966  0.00  0.00     0.178 C 
HETATM    2  C   UNK N   1      26.240  28.764  -3.442  0.00  0.00     0.183 C 
HETATM    3  C   UNK N   1      27.695  28.609  -2.993  0.00  0.00     0.199 C 
HETATM    4  C   UNK N   1      28.423  28.507  -4.338  0.00  0.00     0.262 C 
HETATM    5  O   UNK N   1      27.533  27.924  -5.236  0.00  0.00    -0.352 OA
ENDROOT
BRANCH   1   6
HETATM    6  C   UNK N   1      25.287  27.621  -5.498  0.00  0.00     0.005 C 
BRANCH   6   7
HETATM    7  C   UNK N   1      25.567  26.760  -6.455  0.00  0.00    -0.009 C 
BRANCH   7   8
HETATM    8  C   UNK N   1      25.482  25.328  -6.141  0.00  0.00     0.148 C 
BRANCH   8   9
HETATM    9  N   UNK N   1      26.854  25.060  -5.905  0.00  0.00    -0.367 N 
ATOM     10  HN  UNK N   1      27.522  25.219  -6.660  1.00  0.00     0.161 HD
BRANCH   9  11
HETATM   11  C   UNK N   1      27.281  24.629  -4.789  0.00  0.00     0.149 C 
BRANCH  11  12
HETATM   12  C   UNK N   1      28.332  23.612  -4.785  0.00  0.00     0.053 A 
HETATM   13  C   UNK N   1      29.120  23.507  -3.653  0.00  0.00     0.054 A 
HETATM   14  C   UNK N   1      30.179  22.607  -3.599  0.00  0.00     0.106 A 
HETATM   15  C   UNK N   1      30.479  21.825  -4.726  0.00  0.00     0.075 A 
HETATM   16  C   UNK N   1      29.709  21.933  -5.887  0.00  0.00     0.102 A 
HETATM   17  C   UNK N   1      28.622  22.815  -5.924  0.00  0.00     0.113 A 
BRANCH  14  18
HETATM   18  N   UNK N   1      30.928  22.501  -2.399  0.00  0.00    -0.116 N 
HETATM   19  O   UNK N   1      31.950  21.877  -2.384  0.00  0.00    -0.532 OA
HETATM   20  O   UNK N   1      30.533  23.005  -1.395  0.00  0.00    -0.532 OA
ENDBRANCH  14  18
BRANCH  16  21
HETATM   21  O   UNK N   1      30.024  21.203  -6.972  0.00  0.00    -0.358 OA
HETATM   22  H   UNK N   1      30.321  20.320  -6.872  0.00  0.00     0.217 HD
ENDBRANCH  16  21
BRANCH  17  23
HETATM   23  O   UNK N   1      27.903  22.926  -7.059  0.00  0.00    -0.357 OA
HETATM   24  H   UNK N   1      28.009  22.303  -7.750  0.00  0.00     0.217 HD
ENDBRANCH  17  23
ENDBRANCH  11  12
BRANCH  11  25
HETATM   25  O   UNK N   1      26.874  25.192  -3.630  0.00  0.00    -0.346 OA
HETATM   26  H   UNK N   1      27.237  25.949  -3.213  0.00  0.00     0.219 HD
ENDBRANCH  11  25
ENDBRANCH   9  11
ENDBRANCH   8   9
ENDBRANCH   7   8
ENDBRANCH   6   7
ENDBRANCH   1   6
BRANCH   2  27
HETATM   27  O   UNK N   1      25.449  27.804  -2.799  0.00  0.00    -0.390 OA
HETATM   28  H   UNK N   1      25.145  26.902  -2.607  0.00  0.00     0.210 HD
ENDBRANCH   2  27
BRANCH   3  29
HETATM   29  O   UNK N   1      28.126  29.718  -2.259  0.00  0.00    -0.388 OA
HETATM   30  H   UNK N   1      29.027  30.074  -2.194  0.00  0.00     0.210 HD
ENDBRANCH   3  29
BRANCH   4  31
HETATM   31  N   UNK N   1      29.665  27.741  -4.408  0.00  0.00    -0.297 N 
HETATM   32  C   UNK N   1      30.491  27.557  -3.340  0.00  0.00     0.188 A 
HETATM   33  N   UNK N   1      31.453  26.641  -3.601  0.00  0.00    -0.346 N 
HETATM   34  C   UNK N   1      31.209  26.265  -4.865  0.00  0.00     0.122 A 
ATOM     35  HN  UNK N   1      32.194  26.313  -2.981  1.00  0.00     0.167 HD
HETATM   36  C   UNK N   1      31.832  25.299  -5.622  0.00  0.00     0.131 A 
HETATM   37  C   UNK N   1      30.151  26.943  -5.360  0.00  0.00     0.142 A 
HETATM   38  N   UNK N   1      31.376  25.091  -6.892  0.00  0.00    -0.337 N 
HETATM   39  C   UNK N   1      30.320  25.819  -7.392  0.00  0.00     0.183 A 
ATOM     40  HN  UNK N   1      31.824  24.386  -7.478  1.00  0.00     0.168 HD
HETATM   41  N   UNK N   1      29.677  26.742  -6.611  0.00  0.00    -0.336 N 
ATOM     42  HN  UNK N   1      28.871  27.261  -6.960  1.00  0.00     0.168 HD
BRANCH  36  43
HETATM   43  N   UNK N   1      32.872  24.513  -5.085  0.00  0.00    -0.383 N 
HETATM   44  H   UNK N   1      32.964  24.406  -4.110  0.00  0.00     0.157 HD
HETATM   45  H   UNK N   1      33.511  24.069  -5.687  0.00  0.00     0.157 HD
ENDBRANCH  36  43
ENDBRANCH   4  31
TORSDOF 14
ENDMDL
MODEL 8
REMARK VINA RESULT:      -7.7      2.919      4.675
REMARK  14 active torsions:
REMARK  status: ('A' for Active; 'I' for Inactive)
REMARK    1  A    between atoms: C_2  and  C_1 
REMARK    2  A    between atoms: C_3  and  C_1 
REMARK    3  A    between atoms: C_11  and  C_2 
REMARK    4  A    between atoms: N_21  and  C_3 
REMARK    5  A    between atoms: N_30  and  C_8 
REMARK    6  A    between atoms: C_18  and  C_9 
REMARK    7  A    between atoms: O_31  and  C_10 
REMARK    8  A    between atoms: O_32  and  C_13 
REMARK    9  A    between atoms: C_14  and  O_33 
REMARK   10  A    between atoms: C_15  and  O_34 
REMARK   11  A    between atoms: N_20  and  C_16 
REMARK   12  A    between atoms: N_21  and  C_18 
REMARK   13  A    between atoms: O_35  and  C_18 
REMARK   14  A    between atoms: C_19  and  N_29 
ROOT
HETATM    1  C   UNK N   1      24.256  19.522   4.010  0.00  0.00     0.178 C 
HETATM    2  C   UNK N   1      24.015  20.718   3.064  0.00  0.00     0.183 C 
HETATM    3  C   UNK N   1      22.576  20.497   2.596  0.00  0.00     0.199 C 
HETATM    4  C   UNK N   1      22.138  19.328   3.485  0.00  0.00     0.262 C 
HETATM    5  O   UNK N   1      23.280  18.580   3.759  0.00  0.00    -0.352 OA
ENDROOT
BRANCH   1   6
HETATM    6  C   UNK N   1      25.547  18.831   3.797  0.00  0.00     0.005 C 
BRANCH   6   7
HETATM    7  C   UNK N   1      26.440  18.749   4.762  0.00  0.00    -0.009 C 
BRANCH   7   8
HETATM    8  C   UNK N   1      27.128  17.465   4.957  0.00  0.00     0.148 C 
BRANCH   8   9
HETATM    9  N   UNK N   1      26.288  16.900   5.949  0.00  0.00    -0.367 N 
ATOM     10  HN  UNK N   1      25.692  17.519   6.499  1.00  0.00     0.161 HD
BRANCH   9  11
HETATM   11  C   UNK N   1      26.250  15.651   6.178  0.00  0.00     0.149 C 
BRANCH  11  12
HETATM   12  C   UNK N   1      25.048  15.085   6.787  0.00  0.00     0.053 A 
HETATM   13  C   UNK N   1      25.211  14.038   7.677  0.00  0.00     0.054 A 
HETATM   14  C   UNK N   1      24.111  13.407   8.248  0.00  0.00     0.106 A 
HETATM   15  C   UNK N   1      22.816  13.808   7.881  0.00  0.00     0.075 A 
HETATM   16  C   UNK N   1      22.631  14.849   6.966  0.00  0.00     0.102 A 
HETATM   17  C   UNK N   1      23.741  15.504   6.421  0.00  0.00     0.113 A 
BRANCH  14  18
HETATM   18  N   UNK N   1      24.328  12.371   9.193  0.00  0.00    -0.116 N 
HETATM   19  O   UNK N   1      24.873  12.612  10.231  0.00  0.00    -0.532 OA
HETATM   20  O   UNK N   1      23.997  11.254   8.949  0.00  0.00    -0.532 OA
ENDBRANCH  14  18
BRANCH  16  21
HETATM   21  O   UNK N   1      21.387  15.205   6.597  0.00  0.00    -0.358 OA
HETATM   22  H   UNK N   1      20.809  15.598   7.221  0.00  0.00     0.217 HD
ENDBRANCH  16  21
BRANCH  17  23
HETATM   23  O   UNK N   1      23.548  16.489   5.522  0.00  0.00    -0.357 OA
HETATM   24  H   UNK N   1      23.463  16.289   4.610  0.00  0.00     0.217 HD
ENDBRANCH  17  23
ENDBRANCH  11  12
BRANCH  11  25
HETATM   25  O   UNK N   1      27.242  14.840   5.746  0.00  0.00    -0.346 OA
HETATM   26  H   UNK N   1      27.964  15.074   5.198  0.00  0.00     0.219 HD
ENDBRANCH  11  25
ENDBRANCH   9  11
ENDBRANCH   8   9
ENDBRANCH   7   8
ENDBRANCH   6   7
ENDBRANCH   1   6
BRANCH   2  27
HETATM   27  O   UNK N   1      24.873  20.703   1.957  0.00  0.00    -0.390 OA
HETATM   28  H   UNK N   1      25.344  20.288   1.217  0.00  0.00     0.210 HD
ENDBRANCH   2  27
BRANCH   3  29
HETATM   29  O   UNK N   1      21.787  21.630   2.813  0.00  0.00    -0.388 OA
HETATM   30  H   UNK N   1      20.830  21.724   2.671  0.00  0.00     0.210 HD
ENDBRANCH   3  29
BRANCH   4  31
HETATM   31  N   UNK N   1      21.130  18.399   2.979  0.00  0.00    -0.297 N 
HETATM   32  C   UNK N   1      19.954  18.804   2.422  0.00  0.00     0.188 A 
HETATM   33  N   UNK N   1      19.294  17.775   1.840  0.00  0.00    -0.346 N 
HETATM   34  C   UNK N   1      20.087  16.716   2.059  0.00  0.00     0.122 A 
ATOM     35  HN  UNK N   1      18.400  17.799   1.350  1.00  0.00     0.167 HD
HETATM   36  C   UNK N   1      19.946  15.419   1.620  0.00  0.00     0.131 A 
HETATM   37  C   UNK N   1      21.177  17.084   2.765  0.00  0.00     0.142 A 
HETATM   38  N   UNK N   1      20.915  14.520   1.967  0.00  0.00    -0.337 N 
HETATM   39  C   UNK N   1      22.001  14.906   2.719  0.00  0.00     0.183 A 
ATOM     40  HN  UNK N   1      20.832  13.550   1.663  1.00  0.00     0.168 HD
HETATM   41  N   UNK N   1      22.153  16.212   3.106  0.00  0.00    -0.336 N 
ATOM     42  HN  UNK N   1      22.972  16.515   3.633  1.00  0.00     0.168 HD
BRANCH  36  43
HETATM   43  N   UNK N   1      18.865  15.041   0.798  0.00  0.00    -0.383 N 
HETATM   44  H   UNK N   1      17.942  15.080   1.139  0.00  0.00     0.157 HD
HETATM   45  H   UNK N   1      19.033  14.738  -0.123  0.00  0.00     0.157 HD
ENDBRANCH  36  43
ENDBRANCH   4  31
TORSDOF 14
ENDMDL
MODEL 9
REMARK VINA RESULT:      -7.6      2.726      9.330
REMARK  14 active torsions:
REMARK  status: ('A' for Active; 'I' for Inactive)
REMARK    1  A    between atoms: C_2  and  C_1 
REMARK    2  A    between atoms: C_3  and  C_1 
REMARK    3  A    between atoms: C_11  and  C_2 
REMARK    4  A    between atoms: N_21  and  C_3 
REMARK    5  A    between atoms: N_30  and  C_8 
REMARK    6  A    between atoms: C_18  and  C_9 
REMARK    7  A    between atoms: O_31  and  C_10 
REMARK    8  A    between atoms: O_32  and  C_13 
REMARK    9  A    between atoms: C_14  and  O_33 
REMARK   10  A    between atoms: C_15  and  O_34 
REMARK   11  A    between atoms: N_20  and  C_16 
REMARK   12  A    between atoms: N_21  and  C_18 
REMARK   13  A    between atoms: O_35  and  C_18 
REMARK   14  A    between atoms: C_19  and  N_29 
ROOT
HETATM    1  C   UNK N   1      26.212  17.600   4.566  0.00  0.00     0.178 C 
HETATM    2  C   UNK N   1      26.403  19.129   4.665  0.00  0.00     0.183 C 
HETATM    3  C   UNK N   1      27.872  19.262   5.071  0.00  0.00     0.199 C 
HETATM    4  C   UNK N   1      28.357  17.813   4.954  0.00  0.00     0.262 C 
HETATM    5  O   UNK N   1      27.262  16.998   5.227  0.00  0.00    -0.352 OA
ENDROOT
BRANCH   1   6
HETATM    6  C   UNK N   1      24.983  17.099   5.221  0.00  0.00     0.005 C 
BRANCH   6   7
HETATM    7  C   UNK N   1      24.628  15.834   5.119  0.00  0.00    -0.009 C 
BRANCH   7   8
HETATM    8  C   UNK N   1      23.485  15.374   5.918  0.00  0.00     0.148 C 
BRANCH   8   9
HETATM    9  N   UNK N   1      22.445  15.586   4.978  0.00  0.00    -0.367 N 
ATOM     10  HN  UNK N   1      22.518  15.151   4.058  1.00  0.00     0.161 HD
BRANCH   9  11
HETATM   11  C   UNK N   1      21.426  16.297   5.239  0.00  0.00     0.149 C 
BRANCH  11  12
HETATM   12  C   UNK N   1      21.053  17.360   4.306  0.00  0.00     0.053 A 
HETATM   13  C   UNK N   1      21.958  18.387   4.108  0.00  0.00     0.054 A 
HETATM   14  C   UNK N   1      21.648  19.464   3.285  0.00  0.00     0.106 A 
HETATM   15  C   UNK N   1      20.383  19.532   2.681  0.00  0.00     0.075 A 
HETATM   16  C   UNK N   1      19.446  18.515   2.887  0.00  0.00     0.102 A 
HETATM   17  C   UNK N   1      19.776  17.415   3.688  0.00  0.00     0.113 A 
BRANCH  14  18
HETATM   18  N   UNK N   1      22.627  20.469   3.073  0.00  0.00    -0.116 N 
HETATM   19  O   UNK N   1      23.760  20.283   3.412  0.00  0.00    -0.532 OA
HETATM   20  O   UNK N   1      22.324  21.512   2.585  0.00  0.00    -0.532 OA
ENDBRANCH  14  18
BRANCH  16  21
HETATM   21  O   UNK N   1      18.225  18.604   2.330  0.00  0.00    -0.358 OA
HETATM   22  H   UNK N   1      17.560  19.123   2.739  0.00  0.00     0.217 HD
ENDBRANCH  16  21
BRANCH  17  23
HETATM   23  O   UNK N   1      18.854  16.454   3.898  0.00  0.00    -0.357 OA
HETATM   24  H   UNK N   1      17.945  16.629   3.753  0.00  0.00     0.217 HD
ENDBRANCH  17  23
ENDBRANCH  11  12
BRANCH  11  25
HETATM   25  O   UNK N   1      20.623  15.996   6.283  0.00  0.00    -0.346 OA
HETATM   26  H   UNK N   1      20.819  15.426   7.000  0.00  0.00     0.219 HD
ENDBRANCH  11  25
ENDBRANCH   9  11
ENDBRANCH   8   9
ENDBRANCH   7   8
ENDBRANCH   6   7
ENDBRANCH   1   6
BRANCH   2  27
HETATM   27  O   UNK N   1      25.592  19.704   5.652  0.00  0.00    -0.390 OA
HETATM   28  H   UNK N   1      24.907  19.698   6.339  0.00  0.00     0.210 HD
ENDBRANCH   2  27
BRANCH   3  29
HETATM   29  O   UNK N   1      28.569  20.109   4.204  0.00  0.00    -0.388 OA
HETATM   30  H   UNK N   1      28.217  20.600   3.443  0.00  0.00     0.210 HD
ENDBRANCH   3  29
BRANCH   4  31
HETATM   31  N   UNK N   1      29.449  17.366   5.817  0.00  0.00    -0.297 N 
HETATM   32  C   UNK N   1      30.712  17.134   5.363  0.00  0.00     0.188 A 
HETATM   33  N   UNK N   1      31.584  16.941   6.381  0.00  0.00    -0.346 N 
HETATM   34  C   UNK N   1      30.826  17.050   7.482  0.00  0.00     0.122 A 
ATOM     35  HN  UNK N   1      32.585  16.754   6.324  1.00  0.00     0.167 HD
HETATM   36  C   UNK N   1      31.204  17.018   8.805  0.00  0.00     0.131 A 
HETATM   37  C   UNK N   1      29.539  17.280   7.144  0.00  0.00     0.142 A 
HETATM   38  N   UNK N   1      30.231  17.175   9.750  0.00  0.00    -0.337 N 
HETATM   39  C   UNK N   1      28.918  17.371   9.387  0.00  0.00     0.183 A 
ATOM     40  HN  UNK N   1      30.481  17.148  10.739  1.00  0.00     0.168 HD
HETATM   41  N   UNK N   1      28.564  17.451   8.066  0.00  0.00    -0.336 N 
ATOM     42  HN  UNK N   1      27.599  17.633   7.786  1.00  0.00     0.168 HD
BRANCH  36  43
HETATM   43  N   UNK N   1      32.558  16.879   9.172  0.00  0.00    -0.383 N 
HETATM   44  H   UNK N   1      32.865  17.160  10.064  0.00  0.00     0.157 HD
HETATM   45  H   UNK N   1      33.202  16.498   8.532  0.00  0.00     0.157 HD
ENDBRANCH  36  43
ENDBRANCH   4  31
TORSDOF 14
ENDMDL
