MODEL 1
REMARK VINA RESULT:      -4.0      0.000      0.000
REMARK  5 active torsions:
REMARK  status: ('A' for Active; 'I' for Inactive)
REMARK    1  A    between atoms: C_2  and  N_1 
REMARK    2  A    between atoms: C_2  and  C_3 
REMARK    3  A    between atoms: C_2  and  C_5 
REMARK    4  A    between atoms: C_3  and  O_4 
REMARK    5  A    between atoms: C_5  and  O_6 
ROOT
HETATM    1  C   UNK N   1      34.112  17.252   9.056  0.00  0.00     0.197 C 
ENDROOT
BRANCH   1   2
HETATM    2  N   UNK N   1      32.691  16.959   9.008  0.00  0.00    -0.416 N 
HETATM    3  H   UNK N   1      32.323  16.136   9.485  0.00  0.00     0.150 HD
HETATM    4  H   UNK N   1      32.060  17.576   8.497  0.00  0.00     0.150 HD
ENDBRANCH   1   2
BRANCH   1   5
HETATM    5  C   UNK N   1      34.922  16.462  10.085  0.00  0.00     0.199 C 
BRANCH   5   6
HETATM    6  O   UNK N   1      35.964  17.213  10.628  0.00  0.00    -0.398 OA
HETATM    7  H   UNK N   1      35.777  17.889  11.298  0.00  0.00     0.209 HD
ENDBRANCH   5   6
ENDBRANCH   1   5
BRANCH   1   8
HETATM    8  C   UNK N   1      34.620  18.292   8.093  0.00  0.00     0.165 C 
HETATM    9  O   UNK N   1      35.265  19.248   8.487  0.00  0.00    -0.648 OA
BRANCH   8  10
HETATM   10  O   UNK N   1      34.358  18.166   6.776  0.00  0.00    -0.775 OA
HETATM   11  H   UNK N   1      33.682  18.680   6.381  0.00  0.00     0.167 HD
ENDBRANCH   8  10
ENDBRANCH   1   8
TORSDOF 5
ENDMDL
MODEL 2
REMARK VINA RESULT:      -3.9     15.221     15.916
REMARK  5 active torsions:
REMARK  status: ('A' for Active; 'I' for Inactive)
REMARK    1  A    between atoms: C_2  and  N_1 
REMARK    2  A    between atoms: C_2  and  C_3 
REMARK    3  A    between atoms: C_2  and  C_5 
REMARK    4  A    between atoms: C_3  and  O_4 
REMARK    5  A    between atoms: C_5  and  O_6 
ROOT
HETATM    1  C   UNK N   1      20.636  19.990   1.597  0.00  0.00     0.197 C 
ENDROOT
BRANCH   1   2
HETATM    2  N   UNK N   1      20.527  20.768   0.376  0.00  0.00    -0.416 N 
HETATM    3  H   UNK N   1      20.538  21.787   0.418  0.00  0.00     0.150 HD
HETATM    4  H   UNK N   1      20.441  20.296  -0.523  0.00  0.00     0.150 HD
ENDBRANCH   1   2
BRANCH   1   5
HETATM    5  C   UNK N   1      20.363  18.492   1.460  0.00  0.00     0.199 C 
BRANCH   5   6
HETATM    6  O   UNK N   1      20.260  18.090   0.129  0.00  0.00    -0.398 OA
HETATM    7  H   UNK N   1      19.905  17.214  -0.087  0.00  0.00     0.209 HD
ENDBRANCH   5   6
ENDBRANCH   1   5
BRANCH   1   8
HETATM    8  C   UNK N   1      21.002  20.745   2.848  0.00  0.00     0.165 C 
HETATM    9  O   UNK N   1      20.475  20.481   3.914  0.00  0.00    -0.648 OA
BRANCH   8  10
HETATM   10  O   UNK N   1      21.925  21.726   2.789  0.00  0.00    -0.775 OA
HETATM   11  H   UNK N   1      21.705  22.555   2.411  0.00  0.00     0.167 HD
ENDBRANCH   8  10
ENDBRANCH   1   8
TORSDOF 5
ENDMDL
MODEL 3
REMARK VINA RESULT:      -3.9     12.180     12.501
REMARK  5 active torsions:
REMARK  status: ('A' for Active; 'I' for Inactive)
REMARK    1  A    between atoms: C_2  and  N_1 
REMARK    2  A    between atoms: C_2  and  C_3 
REMARK    3  A    between atoms: C_2  and  C_5 
REMARK    4  A    between atoms: C_3  and  O_4 
REMARK    5  A    between atoms: C_5  and  O_6 
ROOT
HETATM    1  C   UNK N   1      23.204  11.917  11.645  0.00  0.00     0.197 C 
ENDROOT
BRANCH   1   2
HETATM    2  N   UNK N   1      21.964  11.725  10.916  0.00  0.00    -0.416 N 
HETATM    3  H   UNK N   1      21.755  10.821  10.493  0.00  0.00     0.150 HD
HETATM    4  H   UNK N   1      21.301  12.495  10.825  0.00  0.00     0.150 HD
ENDBRANCH   1   2
BRANCH   1   5
HETATM    5  C   UNK N   1      23.112  11.779  13.165  0.00  0.00     0.199 C 
BRANCH   5   6
HETATM    6  O   UNK N   1      23.965  12.661  13.830  0.00  0.00    -0.398 OA
HETATM    7  H   UNK N   1      23.683  13.074  14.661  0.00  0.00     0.209 HD
ENDBRANCH   5   6
ENDBRANCH   1   5
BRANCH   1   8
HETATM    8  C   UNK N   1      24.429  12.227  10.825  0.00  0.00     0.165 C 
HETATM    9  O   UNK N   1      24.492  11.910   9.651  0.00  0.00    -0.648 OA
BRANCH   8  10
HETATM   10  O   UNK N   1      25.471  12.864  11.398  0.00  0.00    -0.775 OA
HETATM   11  H   UNK N   1      26.127  12.375  11.853  0.00  0.00     0.167 HD
ENDBRANCH   8  10
ENDBRANCH   1   8
TORSDOF 5
ENDMDL
MODEL 4
REMARK VINA RESULT:      -3.8     15.265     15.743
REMARK  5 active torsions:
REMARK  status: ('A' for Active; 'I' for Inactive)
REMARK    1  A    between atoms: C_2  and  N_1 
REMARK    2  A    between atoms: C_2  and  C_3 
REMARK    3  A    between atoms: C_2  and  C_5 
REMARK    4  A    between atoms: C_3  and  O_4 
REMARK    5  A    between atoms: C_5  and  O_6 
ROOT
HETATM    1  C   UNK N   1      20.577  19.341   1.886  0.00  0.00     0.197 C 
ENDROOT
BRANCH   1   2
HETATM    2  N   UNK N   1      20.088  18.263   1.047  0.00  0.00    -0.416 N 
HETATM    3  H   UNK N   1      20.085  18.367   0.032  0.00  0.00     0.150 HD
HETATM    4  H   UNK N   1      19.747  17.401   1.471  0.00  0.00     0.150 HD
ENDBRANCH   1   2
BRANCH   1   5
HETATM    5  C   UNK N   1      20.699  19.024   3.377  0.00  0.00     0.199 C 
BRANCH   5   6
HETATM    6  O   UNK N   1      20.595  20.166   4.172  0.00  0.00    -0.398 OA
HETATM    7  H   UNK N   1      19.722  20.517   4.404  0.00  0.00     0.209 HD
ENDBRANCH   5   6
ENDBRANCH   1   5
BRANCH   1   8
HETATM    8  C   UNK N   1      20.906  20.639   1.195  0.00  0.00     0.165 C 
HETATM    9  O   UNK N   1      21.091  20.677  -0.009  0.00  0.00    -0.648 OA
BRANCH   8  10
HETATM   10  O   UNK N   1      20.996  21.774   1.917  0.00  0.00    -0.775 OA
HETATM   11  H   UNK N   1      21.834  22.091   2.189  0.00  0.00     0.167 HD
ENDBRANCH   8  10
ENDBRANCH   1   8
TORSDOF 5
ENDMDL
MODEL 5
REMARK VINA RESULT:      -3.8      1.805      2.538
REMARK  5 active torsions:
REMARK  status: ('A' for Active; 'I' for Inactive)
REMARK    1  A    between atoms: C_2  and  N_1 
REMARK    2  A    between atoms: C_2  and  C_3 
REMARK    3  A    between atoms: C_2  and  C_5 
REMARK    4  A    between atoms: C_3  and  O_4 
REMARK    5  A    between atoms: C_5  and  O_6 
ROOT
HETATM    1  C   UNK N   1      33.857  17.295   8.916  0.00  0.00     0.197 C 
ENDROOT
BRANCH   1   2
HETATM    2  N   UNK N   1      34.517  16.982  10.169  0.00  0.00    -0.416 N 
HETATM    3  H   UNK N   1      35.490  16.677  10.172  0.00  0.00     0.150 HD
HETATM    4  H   UNK N   1      34.009  17.068  11.049  0.00  0.00     0.150 HD
ENDBRANCH   1   2
BRANCH   1   5
HETATM    5  C   UNK N   1      32.519  16.595   8.672  0.00  0.00     0.199 C 
BRANCH   5   6
HETATM    6  O   UNK N   1      31.439  17.332   9.157  0.00  0.00    -0.398 OA
HETATM    7  H   UNK N   1      30.562  17.227   8.757  0.00  0.00     0.209 HD
ENDBRANCH   5   6
ENDBRANCH   1   5
BRANCH   1   8
HETATM    8  C   UNK N   1      34.561  18.267   8.005  0.00  0.00     0.165 C 
HETATM    9  O   UNK N   1      34.469  18.169   6.794  0.00  0.00    -0.648 OA
BRANCH   8  10
HETATM   10  O   UNK N   1      35.305  19.259   8.536  0.00  0.00    -0.775 OA
HETATM   11  H   UNK N   1      35.850  19.784   7.985  0.00  0.00     0.167 HD
ENDBRANCH   8  10
ENDBRANCH   1   8
TORSDOF 5
ENDMDL
MODEL 6
REMARK VINA RESULT:      -3.7     15.696     16.044
REMARK  5 active torsions:
REMARK  status: ('A' for Active; 'I' for Inactive)
REMARK    1  A    between atoms: C_2  and  N_1 
REMARK    2  A    between atoms: C_2  and  C_3 
REMARK    3  A    between atoms: C_2  and  C_5 
REMARK    4  A    between atoms: C_3  and  O_4 
REMARK    5  A    between atoms: C_5  and  O_6 
ROOT
HETATM    1  C   UNK N   1      20.558  19.270   1.984  0.00  0.00     0.197 C 
ENDROOT
BRANCH   1   2
HETATM    2  N   UNK N   1      20.520  19.336   3.433  0.00  0.00    -0.416 N 
HETATM    3  H   UNK N   1      19.640  19.527   3.912  0.00  0.00     0.150 HD
HETATM    4  H   UNK N   1      21.373  19.192   3.972  0.00  0.00     0.150 HD
ENDBRANCH   1   2
BRANCH   1   5
HETATM    5  C   UNK N   1      20.236  17.907   1.368  0.00  0.00     0.199 C 
BRANCH   5   6
HETATM    6  O   UNK N   1      20.338  17.916  -0.023  0.00  0.00    -0.398 OA
HETATM    7  H   UNK N   1      20.358  18.759  -0.502  0.00  0.00     0.209 HD
ENDBRANCH   5   6
ENDBRANCH   1   5
BRANCH   1   8
HETATM    8  C   UNK N   1      20.907  20.543   1.258  0.00  0.00     0.165 C 
HETATM    9  O   UNK N   1      21.108  20.544   0.057  0.00  0.00    -0.648 OA
BRANCH   8  10
HETATM   10  O   UNK N   1      21.000  21.699   1.947  0.00  0.00    -0.775 OA
HETATM   11  H   UNK N   1      21.213  22.494   1.502  0.00  0.00     0.167 HD
ENDBRANCH   8  10
ENDBRANCH   1   8
TORSDOF 5
ENDMDL
MODEL 7
REMARK VINA RESULT:      -3.6      2.802      3.810
REMARK  5 active torsions:
REMARK  status: ('A' for Active; 'I' for Inactive)
REMARK    1  A    between atoms: C_2  and  N_1 
REMARK    2  A    between atoms: C_2  and  C_3 
REMARK    3  A    between atoms: C_2  and  C_5 
REMARK    4  A    between atoms: C_3  and  O_4 
REMARK    5  A    between atoms: C_5  and  O_6 
ROOT
HETATM    1  C   UNK N   1      34.805  14.991  11.182  0.00  0.00     0.197 C 
ENDROOT
BRANCH   1   2
HETATM    2  N   UNK N   1      33.404  15.100  10.817  0.00  0.00    -0.416 N 
HETATM    3  H   UNK N   1      32.695  14.610  11.362  0.00  0.00     0.150 HD
HETATM    4  H   UNK N   1      33.128  15.667  10.016  0.00  0.00     0.150 HD
ENDBRANCH   1   2
BRANCH   1   5
HETATM    5  C   UNK N   1      35.230  13.663  11.808  0.00  0.00     0.199 C 
BRANCH   5   6
HETATM    6  O   UNK N   1      34.420  13.300  12.884  0.00  0.00    -0.398 OA
HETATM    7  H   UNK N   1      33.456  13.282  12.780  0.00  0.00     0.209 HD
ENDBRANCH   5   6
ENDBRANCH   1   5
BRANCH   1   8
HETATM    8  C   UNK N   1      35.671  16.192  10.903  0.00  0.00     0.165 C 
HETATM    9  O   UNK N   1      35.176  17.283  10.684  0.00  0.00    -0.648 OA
BRANCH   8  10
HETATM   10  O   UNK N   1      37.013  16.058  10.894  0.00  0.00    -0.775 OA
HETATM   11  H   UNK N   1      37.456  15.721  11.647  0.00  0.00     0.167 HD
ENDBRANCH   8  10
ENDBRANCH   1   8
TORSDOF 5
ENDMDL
MODEL 8
REMARK VINA RESULT:      -3.5      1.185      2.810
REMARK  5 active torsions:
REMARK  status: ('A' for Active; 'I' for Inactive)
REMARK    1  A    between atoms: C_2  and  N_1 
REMARK    2  A    between atoms: C_2  and  C_3 
REMARK    3  A    between atoms: C_2  and  C_5 
REMARK    4  A    between atoms: C_3  and  O_4 
REMARK    5  A    between atoms: C_5  and  O_6 
ROOT
HETATM    1  C   UNK N   1      33.388  17.613   8.128  0.00  0.00     0.197 C 
ENDROOT
BRANCH   1   2
HETATM    2  N   UNK N   1      32.330  17.233   9.045  0.00  0.00    -0.416 N 
HETATM    3  H   UNK N   1      32.508  16.540   9.772  0.00  0.00     0.150 HD
HETATM    4  H   UNK N   1      31.407  17.659   8.964  0.00  0.00     0.150 HD
ENDBRANCH   1   2
BRANCH   1   5
HETATM    5  C   UNK N   1      33.089  17.412   6.642  0.00  0.00     0.199 C 
BRANCH   5   6
HETATM    6  O   UNK N   1      34.125  17.868   5.826  0.00  0.00    -0.398 OA
HETATM    7  H   UNK N   1      34.556  18.715   6.018  0.00  0.00     0.209 HD
ENDBRANCH   5   6
ENDBRANCH   1   5
BRANCH   1   8
HETATM    8  C   UNK N   1      34.651  18.158   8.743  0.00  0.00     0.165 C 
HETATM    9  O   UNK N   1      35.138  19.203   8.350  0.00  0.00    -0.648 OA
BRANCH   8  10
HETATM   10  O   UNK N   1      35.253  17.480   9.742  0.00  0.00    -0.775 OA
HETATM   11  H   UNK N   1      35.609  16.629   9.583  0.00  0.00     0.167 HD
ENDBRANCH   8  10
ENDBRANCH   1   8
TORSDOF 5
ENDMDL
MODEL 9
REMARK VINA RESULT:      -3.5      1.245      2.956
REMARK  5 active torsions:
REMARK  status: ('A' for Active; 'I' for Inactive)
REMARK    1  A    between atoms: C_2  and  N_1 
REMARK    2  A    between atoms: C_2  and  C_3 
REMARK    3  A    between atoms: C_2  and  C_5 
REMARK    4  A    between atoms: C_3  and  O_4 
REMARK    5  A    between atoms: C_5  and  O_6 
ROOT
HETATM    1  C   UNK N   1      34.551  16.968   8.746  0.00  0.00     0.197 C 
ENDROOT
BRANCH   1   2
HETATM    2  N   UNK N   1      34.211  15.857   7.877  0.00  0.00    -0.416 N 
HETATM    3  H   UNK N   1      33.901  16.033   6.921  0.00  0.00     0.150 HD
HETATM    4  H   UNK N   1      34.281  14.900   8.220  0.00  0.00     0.150 HD
ENDBRANCH   1   2
BRANCH   1   5
HETATM    5  C   UNK N   1      34.390  18.363   8.142  0.00  0.00     0.199 C 
BRANCH   5   6
HETATM    6  O   UNK N   1      35.367  19.252   8.590  0.00  0.00    -0.398 OA
HETATM    7  H   UNK N   1      35.296  20.196   8.381  0.00  0.00     0.209 HD
ENDBRANCH   5   6
ENDBRANCH   1   5
BRANCH   1   8
HETATM    8  C   UNK N   1      35.020  16.619  10.135  0.00  0.00     0.165 C 
HETATM    9  O   UNK N   1      36.097  17.011  10.548  0.00  0.00    -0.648 OA
BRANCH   8  10
HETATM   10  O   UNK N   1      34.239  15.863  10.932  0.00  0.00    -0.775 OA
HETATM   11  H   UNK N   1      33.329  15.758  10.735  0.00  0.00     0.167 HD
ENDBRANCH   8  10
ENDBRANCH   1   8
TORSDOF 5
ENDMDL
