MODEL 1
REMARK VINA RESULT:      -5.3      0.000      0.000
REMARK WARNING: 32 MAX_TORS EXCEEDED!!!
REMARK  42 active torsions:
REMARK  status: ('A' for Active; 'I' for Inactive)
REMARK    1  A    between atoms: C_5  and  C_3 
REMARK    2  A    between atoms: C_6  and  C_4 
REMARK    3  A    between atoms: C_7  and  C_5 
REMARK    4  A    between atoms: C_8  and  C_6 
REMARK    5  A    between atoms: C_9  and  C_7 
REMARK    6  A    between atoms: C_21  and  C_8 
REMARK    7  A    between atoms: C_10  and  C_9 
REMARK    8  A    between atoms: C_11  and  C_10 
REMARK    9  A    between atoms: C_12  and  C_11 
REMARK   10  A    between atoms: C_13  and  C_12 
REMARK   11  A    between atoms: C_14  and  C_13 
REMARK   12  A    between atoms: C_15  and  C_14 
REMARK   13  A    between atoms: C_16  and  C_15 
REMARK   14  A    between atoms: C_19  and  C_16 
REMARK   15  A    between atoms: C_18  and  C_17 
REMARK   16  A    between atoms: C_20  and  C_17 
REMARK   17  A    between atoms: C_22  and  C_18 
REMARK   18  A    between atoms: C_23  and  C_19 
REMARK   19  A    between atoms: C_24  and  C_20 
REMARK   20  A    between atoms: C_25  and  C_21 
REMARK   21  A    between atoms: C_26  and  C_22 
REMARK   22  A    between atoms: C_27  and  C_23 
REMARK   23  A    between atoms: C_28  and  C_24 
REMARK   24  A    between atoms: C_34  and  C_25 
REMARK   25  A    between atoms: C_35  and  C_26 
REMARK   26  A    between atoms: C_38  and  C_27 
REMARK   27  A    between atoms: C_39  and  C_28 
REMARK   28  A    between atoms: C_36  and  C_30 
REMARK   29  A    between atoms: O_40  and  C_30 
REMARK   30  A    between atoms: C_36  and  C_31 
REMARK   31  A    between atoms: O_47  and  C_31 
REMARK   32  A    between atoms: C_37  and  C_32 
REMARK   33  A    between atoms: O_46  and  C_32 
REMARK   34  A    between atoms: C_37  and  C_33 
REMARK   35  A    between atoms: O_48  and  C_33 
REMARK   36  A    between atoms: O_41  and  C_36 
REMARK   37  A    between atoms: C_37  and  O_49 
REMARK   38  A    between atoms: O_46  and  C_38 
REMARK   39  A    between atoms: O_49  and  C_39 
REMARK   40  A    between atoms: P_50  and  O_44 
REMARK   41  A    between atoms: P_50  and  O_47 
REMARK   42  A    between atoms: P_50  and  O_48 
ROOT
HETATM    1  C   UNK N   1      20.660  15.706   5.318  0.00  0.00     0.180 C 
ENDROOT
BRANCH   1   2
HETATM    2  C   UNK N   1      19.812  15.158   6.469  0.00  0.00     0.213 C 
BRANCH   2   3
HETATM    3  O   UNK N   1      20.526  15.048   7.653  0.00  0.00    -0.319 OA
BRANCH   3   4
HETATM    4  C   UNK N   1      20.797  13.886   8.303  0.00  0.00     0.258 C 
HETATM    5  O   UNK N   1      20.720  12.832   7.692  0.00  0.00    -0.265 OA
BRANCH   4   6
HETATM    6  C   UNK N   1      21.214  13.851   9.741  0.00  0.00     0.111 C 
BRANCH   6   7
HETATM    7  C   UNK N   1      21.737  12.482  10.132  0.00  0.00     0.010 C 
BRANCH   7   8
HETATM    8  C   UNK N   1      23.140  12.626  10.685  0.00  0.00     0.000 C 
BRANCH   8   9
HETATM    9  C   UNK N   1      24.136  12.819   9.551  0.00  0.00     0.000 C 
BRANCH   9  10
HETATM   10  C   UNK N   1      24.111  11.665   8.548  0.00  0.00     0.000 C 
BRANCH  10  11
HETATM   11  C   UNK N   1      24.111  12.138   7.096  0.00  0.00     0.000 C 
BRANCH  11  12
HETATM   12  C   UNK N   1      24.314  13.644   6.990  0.00  0.00     0.000 C 
BRANCH  12  13
HETATM   13  C   UNK N   1      25.165  13.991   5.783  0.00  0.00     0.000 C 
BRANCH  13  14
HETATM   14  C   UNK N   1      26.521  14.502   6.222  0.00  0.00     0.000 C 
BRANCH  14  15
HETATM   15  C   UNK N   1      26.390  15.935   6.675  0.00  0.00     0.000 C 
BRANCH  15  16
HETATM   16  C   UNK N   1      27.752  16.588   6.630  0.00  0.00     0.000 C 
BRANCH  16  17
HETATM   17  C   UNK N   1      27.580  18.085   6.520  0.00  0.00     0.000 C 
BRANCH  17  18
HETATM   18  C   UNK N   1      28.491  18.611   5.435  0.00  0.00    -0.000 C 
BRANCH  18  19
HETATM   19  C   UNK N   1      27.864  19.836   4.808  0.00  0.00    -0.005 C 
HETATM   20  C   UNK N   1      27.014  20.548   5.837  0.00  0.00     0.005 C 
ENDBRANCH  18  19
ENDBRANCH  17  18
ENDBRANCH  16  17
ENDBRANCH  15  16
ENDBRANCH  14  15
ENDBRANCH  13  14
ENDBRANCH  12  13
ENDBRANCH  11  12
ENDBRANCH  10  11
ENDBRANCH   9  10
ENDBRANCH   8   9
ENDBRANCH   7   8
ENDBRANCH   6   7
ENDBRANCH   4   6
ENDBRANCH   3   4
ENDBRANCH   2   3
ENDBRANCH   1   2
BRANCH   1  21
HETATM   21  C   UNK N   1      19.981  15.339   4.007  0.00  0.00     0.215 C 
BRANCH  21  22
HETATM   22  O   UNK N   1      19.487  16.422   3.260  0.00  0.00    -0.294 OA
BRANCH  22  23
HETATM   23  P   UNK N   1      20.504  16.531   1.831  0.00  0.00     0.393 P 
HETATM   24  O   UNK N   1      19.839  17.242   0.621  0.00  0.00    -0.631 OA
BRANCH  23  25
HETATM   25  O   UNK N   1      19.168  15.544   1.305  0.00  0.00    -0.307 OA
HETATM   26  H   UNK N   1      18.776  15.265   0.463  0.00  0.00     0.222 HD
ENDBRANCH  23  25
BRANCH  23  27
HETATM   27  O   UNK N   1      20.133  18.153   2.337  0.00  0.00    -0.294 OA
BRANCH  27  28
HETATM   28  C   UNK N   1      21.369  18.795   2.482  0.00  0.00     0.214 C 
BRANCH  28  29
HETATM   29  C   UNK N   1      21.165  20.297   2.638  0.00  0.00     0.166 C 
BRANCH  29  30
HETATM   30  C   UNK N   1      20.581  20.916   1.374  0.00  0.00     0.198 C 
BRANCH  30  31
HETATM   31  O   UNK N   1      20.738  20.051   0.288  0.00  0.00    -0.398 OA
HETATM   32  H   UNK N   1      20.096  19.967  -0.433  0.00  0.00     0.209 HD
ENDBRANCH  30  31
ENDBRANCH  29  30
BRANCH  29  33
HETATM   33  O   UNK N   1      20.299  20.534   3.704  0.00  0.00    -0.391 OA
HETATM   34  H   UNK N   1      19.939  21.408   3.915  0.00  0.00     0.210 HD
ENDBRANCH  29  33
ENDBRANCH  28  29
ENDBRANCH  27  28
ENDBRANCH  23  27
ENDBRANCH  22  23
ENDBRANCH  21  22
ENDBRANCH   1  21
BRANCH   1  35
HETATM   35  O   UNK N   1      20.743  17.077   5.482  0.00  0.00    -0.312 OA
BRANCH  35  36
HETATM   36  C   UNK N   1      21.813  17.731   5.992  0.00  0.00     0.259 C 
HETATM   37  O   UNK N   1      21.672  18.697   6.729  0.00  0.00    -0.265 OA
BRANCH  36  38
HETATM   38  C   UNK N   1      23.174  17.343   5.518  0.00  0.00     0.111 C 
BRANCH  38  39
HETATM   39  C   UNK N   1      23.919  18.494   4.879  0.00  0.00     0.010 C 
BRANCH  39  40
HETATM   40  C   UNK N   1      24.863  17.948   3.820  0.00  0.00     0.000 C 
BRANCH  40  41
HETATM   41  C   UNK N   1      24.599  16.474   3.559  0.00  0.00     0.000 C 
BRANCH  41  42
HETATM   42  C   UNK N   1      25.641  15.912   2.607  0.00  0.00     0.000 C 
BRANCH  42  43
HETATM   43  C   UNK N   1      27.032  16.400   2.992  0.00  0.00     0.000 C 
BRANCH  43  44
HETATM   44  C   UNK N   1      28.104  15.364   2.676  0.00  0.00     0.005 C 
BRANCH  44  45
HETATM   45  C   UNK N   1      29.279  15.529   3.624  0.00  0.00    -0.010 A 
HETATM   46  C   UNK N   1      29.709  14.221   4.269  0.00  0.00     0.010 A 
HETATM   47  C   UNK N   1      30.532  14.817   3.149  0.00  0.00    -0.010 A 
BRANCH  47  48
HETATM   48  C   UNK N   1      31.803  15.519   3.591  0.00  0.00     0.005 C 
BRANCH  48  49
HETATM   49  C   UNK N   1      31.456  16.869   4.202  0.00  0.00     0.000 C 
BRANCH  49  50
HETATM   50  C   UNK N   1      32.243  17.115   5.475  0.00  0.00     0.000 C 
BRANCH  50  51
HETATM   51  C   UNK N   1      31.425  16.633   6.657  0.00  0.00    -0.000 C 
BRANCH  51  52
HETATM   52  C   UNK N   1      31.665  17.527   7.855  0.00  0.00    -0.005 C 
HETATM   53  C   UNK N   1      33.097  18.019   7.835  0.00  0.00     0.005 C 
ENDBRANCH  51  52
ENDBRANCH  50  51
ENDBRANCH  49  50
ENDBRANCH  48  49
ENDBRANCH  47  48
ENDBRANCH  44  45
ENDBRANCH  43  44
ENDBRANCH  42  43
ENDBRANCH  41  42
ENDBRANCH  40  41
ENDBRANCH  39  40
ENDBRANCH  38  39
ENDBRANCH  36  38
ENDBRANCH  35  36
ENDBRANCH   1  35
TORSDOF 42
ENDMDL
MODEL 2
REMARK VINA RESULT:      -5.2      2.126      5.131
REMARK WARNING: 32 MAX_TORS EXCEEDED!!!
REMARK  42 active torsions:
REMARK  status: ('A' for Active; 'I' for Inactive)
REMARK    1  A    between atoms: C_5  and  C_3 
REMARK    2  A    between atoms: C_6  and  C_4 
REMARK    3  A    between atoms: C_7  and  C_5 
REMARK    4  A    between atoms: C_8  and  C_6 
REMARK    5  A    between atoms: C_9  and  C_7 
REMARK    6  A    between atoms: C_21  and  C_8 
REMARK    7  A    between atoms: C_10  and  C_9 
REMARK    8  A    between atoms: C_11  and  C_10 
REMARK    9  A    between atoms: C_12  and  C_11 
REMARK   10  A    between atoms: C_13  and  C_12 
REMARK   11  A    between atoms: C_14  and  C_13 
REMARK   12  A    between atoms: C_15  and  C_14 
REMARK   13  A    between atoms: C_16  and  C_15 
REMARK   14  A    between atoms: C_19  and  C_16 
REMARK   15  A    between atoms: C_18  and  C_17 
REMARK   16  A    between atoms: C_20  and  C_17 
REMARK   17  A    between atoms: C_22  and  C_18 
REMARK   18  A    between atoms: C_23  and  C_19 
REMARK   19  A    between atoms: C_24  and  C_20 
REMARK   20  A    between atoms: C_25  and  C_21 
REMARK   21  A    between atoms: C_26  and  C_22 
REMARK   22  A    between atoms: C_27  and  C_23 
REMARK   23  A    between atoms: C_28  and  C_24 
REMARK   24  A    between atoms: C_34  and  C_25 
REMARK   25  A    between atoms: C_35  and  C_26 
REMARK   26  A    between atoms: C_38  and  C_27 
REMARK   27  A    between atoms: C_39  and  C_28 
REMARK   28  A    between atoms: C_36  and  C_30 
REMARK   29  A    between atoms: O_40  and  C_30 
REMARK   30  A    between atoms: C_36  and  C_31 
REMARK   31  A    between atoms: O_47  and  C_31 
REMARK   32  A    between atoms: C_37  and  C_32 
REMARK   33  A    between atoms: O_46  and  C_32 
REMARK   34  A    between atoms: C_37  and  C_33 
REMARK   35  A    between atoms: O_48  and  C_33 
REMARK   36  A    between atoms: O_41  and  C_36 
REMARK   37  A    between atoms: C_37  and  O_49 
REMARK   38  A    between atoms: O_46  and  C_38 
REMARK   39  A    between atoms: O_49  and  C_39 
REMARK   40  A    between atoms: P_50  and  O_44 
REMARK   41  A    between atoms: P_50  and  O_47 
REMARK   42  A    between atoms: P_50  and  O_48 
ROOT
HETATM    1  C   UNK N   1      20.056  15.810   5.744  0.00  0.00     0.180 C 
ENDROOT
BRANCH   1   2
HETATM    2  C   UNK N   1      18.708  15.264   5.268  0.00  0.00     0.213 C 
BRANCH   2   3
HETATM    3  O   UNK N   1      18.821  14.481   4.129  0.00  0.00    -0.319 OA
BRANCH   3   4
HETATM    4  C   UNK N   1      18.797  13.122   4.104  0.00  0.00     0.258 C 
HETATM    5  O   UNK N   1      17.729  12.544   4.228  0.00  0.00    -0.265 OA
BRANCH   4   6
HETATM    6  C   UNK N   1      20.035  12.302   3.901  0.00  0.00     0.111 C 
BRANCH   6   7
HETATM    7  C   UNK N   1      20.988  12.971   2.930  0.00  0.00     0.010 C 
BRANCH   7   8
HETATM    8  C   UNK N   1      22.309  13.227   3.627  0.00  0.00     0.000 C 
BRANCH   8   9
HETATM    9  C   UNK N   1      23.208  12.005   3.515  0.00  0.00     0.000 C 
BRANCH   9  10
HETATM   10  C   UNK N   1      24.286  12.168   2.443  0.00  0.00     0.000 C 
BRANCH  10  11
HETATM   11  C   UNK N   1      24.891  13.570   2.414  0.00  0.00     0.000 C 
BRANCH  11  12
HETATM   12  C   UNK N   1      26.365  13.544   2.033  0.00  0.00     0.000 C 
BRANCH  12  13
HETATM   13  C   UNK N   1      27.008  14.898   2.264  0.00  0.00     0.000 C 
BRANCH  13  14
HETATM   14  C   UNK N   1      25.952  15.982   2.324  0.00  0.00     0.000 C 
BRANCH  14  15
HETATM   15  C   UNK N   1      26.446  17.110   3.196  0.00  0.00     0.000 C 
BRANCH  15  16
HETATM   16  C   UNK N   1      25.259  17.777   3.852  0.00  0.00     0.000 C 
BRANCH  16  17
HETATM   17  C   UNK N   1      25.752  18.850   4.794  0.00  0.00     0.000 C 
BRANCH  17  18
HETATM   18  C   UNK N   1      26.641  19.807   4.035  0.00  0.00    -0.000 C 
BRANCH  18  19
HETATM   19  C   UNK N   1      27.855  20.135   4.877  0.00  0.00    -0.005 C 
HETATM   20  C   UNK N   1      27.470  21.140   5.941  0.00  0.00     0.005 C 
ENDBRANCH  18  19
ENDBRANCH  17  18
ENDBRANCH  16  17
ENDBRANCH  15  16
ENDBRANCH  14  15
ENDBRANCH  13  14
ENDBRANCH  12  13
ENDBRANCH  11  12
ENDBRANCH  10  11
ENDBRANCH   9  10
ENDBRANCH   8   9
ENDBRANCH   7   8
ENDBRANCH   6   7
ENDBRANCH   4   6
ENDBRANCH   3   4
ENDBRANCH   2   3
ENDBRANCH   1   2
BRANCH   1  21
HETATM   21  C   UNK N   1      20.707  16.554   4.586  0.00  0.00     0.215 C 
BRANCH  21  22
HETATM   22  O   UNK N   1      19.855  17.409   3.866  0.00  0.00    -0.294 OA
BRANCH  22  23
HETATM   23  P   UNK N   1      20.602  17.626   2.291  0.00  0.00     0.393 P 
HETATM   24  O   UNK N   1      19.598  17.829   1.124  0.00  0.00    -0.631 OA
BRANCH  23  25
HETATM   25  O   UNK N   1      19.696  16.149   2.110  0.00  0.00    -0.307 OA
HETATM   26  H   UNK N   1      19.069  15.771   1.474  0.00  0.00     0.222 HD
ENDBRANCH  23  25
BRANCH  23  27
HETATM   27  O   UNK N   1      19.697  19.068   2.646  0.00  0.00    -0.294 OA
BRANCH  27  28
HETATM   28  C   UNK N   1      20.606  19.948   3.244  0.00  0.00     0.214 C 
BRANCH  28  29
HETATM   29  C   UNK N   1      21.421  20.666   2.177  0.00  0.00     0.166 C 
BRANCH  29  30
HETATM   30  C   UNK N   1      20.530  21.234   1.080  0.00  0.00     0.198 C 
BRANCH  30  31
HETATM   31  O   UNK N   1      20.584  20.428  -0.061  0.00  0.00    -0.398 OA
HETATM   32  H   UNK N   1      20.292  19.504  -0.084  0.00  0.00     0.209 HD
ENDBRANCH  30  31
ENDBRANCH  29  30
BRANCH  29  33
HETATM   33  O   UNK N   1      22.136  21.706   2.768  0.00  0.00    -0.391 OA
HETATM   34  H   UNK N   1      23.104  21.725   2.824  0.00  0.00     0.210 HD
ENDBRANCH  29  33
ENDBRANCH  28  29
ENDBRANCH  27  28
ENDBRANCH  23  27
ENDBRANCH  22  23
ENDBRANCH  21  22
ENDBRANCH   1  21
BRANCH   1  35
HETATM   35  O   UNK N   1      19.809  16.650   6.815  0.00  0.00    -0.312 OA
BRANCH  35  36
HETATM   36  C   UNK N   1      19.569  16.237   8.082  0.00  0.00     0.259 C 
HETATM   37  O   UNK N   1      18.478  16.409   8.607  0.00  0.00    -0.265 OA
BRANCH  36  38
HETATM   38  C   UNK N   1      20.711  15.701   8.880  0.00  0.00     0.111 C 
BRANCH  38  39
HETATM   39  C   UNK N   1      20.759  14.189   8.886  0.00  0.00     0.010 C 
BRANCH  39  40
HETATM   40  C   UNK N   1      20.224  13.680  10.214  0.00  0.00     0.000 C 
BRANCH  40  41
HETATM   41  C   UNK N   1      20.976  12.438  10.666  0.00  0.00     0.000 C 
BRANCH  41  42
HETATM   42  C   UNK N   1      22.453  12.749  10.835  0.00  0.00     0.000 C 
BRANCH  42  43
HETATM   43  C   UNK N   1      23.300  11.559  10.402  0.00  0.00     0.000 C 
BRANCH  43  44
HETATM   44  C   UNK N   1      23.268  11.358   8.891  0.00  0.00     0.005 C 
BRANCH  44  45
HETATM   45  C   UNK N   1      24.305  12.247   8.228  0.00  0.00    -0.010 A 
HETATM   46  C   UNK N   1      24.482  11.949   6.748  0.00  0.00     0.010 A 
HETATM   47  C   UNK N   1      23.714  13.176   7.185  0.00  0.00    -0.010 A 
BRANCH  47  48
HETATM   48  C   UNK N   1      24.476  14.484   7.071  0.00  0.00     0.005 C 
BRANCH  48  49
HETATM   49  C   UNK N   1      25.226  14.525   5.748  0.00  0.00     0.000 C 
BRANCH  49  50
HETATM   50  C   UNK N   1      26.683  14.893   5.953  0.00  0.00     0.000 C 
BRANCH  50  51
HETATM   51  C   UNK N   1      26.771  15.973   7.013  0.00  0.00    -0.000 C 
BRANCH  51  52
HETATM   52  C   UNK N   1      28.081  16.721   6.887  0.00  0.00    -0.005 C 
HETATM   53  C   UNK N   1      28.065  17.920   7.812  0.00  0.00     0.005 C 
ENDBRANCH  51  52
ENDBRANCH  50  51
ENDBRANCH  49  50
ENDBRANCH  48  49
ENDBRANCH  47  48
ENDBRANCH  44  45
ENDBRANCH  43  44
ENDBRANCH  42  43
ENDBRANCH  41  42
ENDBRANCH  40  41
ENDBRANCH  39  40
ENDBRANCH  38  39
ENDBRANCH  36  38
ENDBRANCH  35  36
ENDBRANCH   1  35
TORSDOF 42
ENDMDL
MODEL 3
REMARK VINA RESULT:      -5.0      6.755     11.221
REMARK WARNING: 32 MAX_TORS EXCEEDED!!!
REMARK  42 active torsions:
REMARK  status: ('A' for Active; 'I' for Inactive)
REMARK    1  A    between atoms: C_5  and  C_3 
REMARK    2  A    between atoms: C_6  and  C_4 
REMARK    3  A    between atoms: C_7  and  C_5 
REMARK    4  A    between atoms: C_8  and  C_6 
REMARK    5  A    between atoms: C_9  and  C_7 
REMARK    6  A    between atoms: C_21  and  C_8 
REMARK    7  A    between atoms: C_10  and  C_9 
REMARK    8  A    between atoms: C_11  and  C_10 
REMARK    9  A    between atoms: C_12  and  C_11 
REMARK   10  A    between atoms: C_13  and  C_12 
REMARK   11  A    between atoms: C_14  and  C_13 
REMARK   12  A    between atoms: C_15  and  C_14 
REMARK   13  A    between atoms: C_16  and  C_15 
REMARK   14  A    between atoms: C_19  and  C_16 
REMARK   15  A    between atoms: C_18  and  C_17 
REMARK   16  A    between atoms: C_20  and  C_17 
REMARK   17  A    between atoms: C_22  and  C_18 
REMARK   18  A    between atoms: C_23  and  C_19 
REMARK   19  A    between atoms: C_24  and  C_20 
REMARK   20  A    between atoms: C_25  and  C_21 
REMARK   21  A    between atoms: C_26  and  C_22 
REMARK   22  A    between atoms: C_27  and  C_23 
REMARK   23  A    between atoms: C_28  and  C_24 
REMARK   24  A    between atoms: C_34  and  C_25 
REMARK   25  A    between atoms: C_35  and  C_26 
REMARK   26  A    between atoms: C_38  and  C_27 
REMARK   27  A    between atoms: C_39  and  C_28 
REMARK   28  A    between atoms: C_36  and  C_30 
REMARK   29  A    between atoms: O_40  and  C_30 
REMARK   30  A    between atoms: C_36  and  C_31 
REMARK   31  A    between atoms: O_47  and  C_31 
REMARK   32  A    between atoms: C_37  and  C_32 
REMARK   33  A    between atoms: O_46  and  C_32 
REMARK   34  A    between atoms: C_37  and  C_33 
REMARK   35  A    between atoms: O_48  and  C_33 
REMARK   36  A    between atoms: O_41  and  C_36 
REMARK   37  A    between atoms: C_37  and  O_49 
REMARK   38  A    between atoms: O_46  and  C_38 
REMARK   39  A    between atoms: O_49  and  C_39 
REMARK   40  A    between atoms: P_50  and  O_44 
REMARK   41  A    between atoms: P_50  and  O_47 
REMARK   42  A    between atoms: P_50  and  O_48 
ROOT
HETATM    1  C   UNK N   1      34.191  16.425   6.272  0.00  0.00     0.180 C 
ENDROOT
BRANCH   1   2
HETATM    2  C   UNK N   1      33.407  16.771   5.003  0.00  0.00     0.213 C 
BRANCH   2   3
HETATM    3  O   UNK N   1      32.421  15.840   4.714  0.00  0.00    -0.319 OA
BRANCH   3   4
HETATM    4  C   UNK N   1      31.176  16.130   4.252  0.00  0.00     0.258 C 
HETATM    5  O   UNK N   1      30.736  17.259   4.401  0.00  0.00    -0.265 OA
BRANCH   4   6
HETATM    6  C   UNK N   1      30.330  15.121   3.539  0.00  0.00     0.111 C 
BRANCH   6   7
HETATM    7  C   UNK N   1      29.317  15.790   2.630  0.00  0.00     0.010 C 
BRANCH   7   8
HETATM    8  C   UNK N   1      28.470  14.727   1.962  0.00  0.00     0.000 C 
BRANCH   8   9
HETATM    9  C   UNK N   1      26.995  15.079   2.078  0.00  0.00     0.000 C 
BRANCH   9  10
HETATM   10  C   UNK N   1      26.137  13.879   2.482  0.00  0.00     0.000 C 
BRANCH  10  11
HETATM   11  C   UNK N   1      25.476  14.051   3.847  0.00  0.00     0.000 C 
BRANCH  11  12
HETATM   12  C   UNK N   1      24.573  12.874   4.193  0.00  0.00     0.000 C 
BRANCH  12  13
HETATM   13  C   UNK N   1      24.651  12.548   5.672  0.00  0.00     0.000 C 
BRANCH  13  14
HETATM   14  C   UNK N   1      24.685  13.820   6.494  0.00  0.00     0.000 C 
BRANCH  14  15
HETATM   15  C   UNK N   1      25.088  13.486   7.909  0.00  0.00     0.000 C 
BRANCH  15  16
HETATM   16  C   UNK N   1      24.028  12.601   8.523  0.00  0.00     0.000 C 
BRANCH  16  17
HETATM   17  C   UNK N   1      22.791  13.426   8.795  0.00  0.00     0.000 C 
BRANCH  17  18
HETATM   18  C   UNK N   1      22.317  13.160  10.205  0.00  0.00    -0.000 C 
BRANCH  18  19
HETATM   19  C   UNK N   1      22.931  11.870  10.703  0.00  0.00    -0.005 C 
HETATM   20  C   UNK N   1      23.005  11.901  12.213  0.00  0.00     0.005 C 
ENDBRANCH  18  19
ENDBRANCH  17  18
ENDBRANCH  16  17
ENDBRANCH  15  16
ENDBRANCH  14  15
ENDBRANCH  13  14
ENDBRANCH  12  13
ENDBRANCH  11  12
ENDBRANCH  10  11
ENDBRANCH   9  10
ENDBRANCH   8   9
ENDBRANCH   7   8
ENDBRANCH   6   7
ENDBRANCH   4   6
ENDBRANCH   3   4
ENDBRANCH   2   3
ENDBRANCH   1   2
BRANCH   1  21
HETATM   21  C   UNK N   1      35.268  15.413   5.906  0.00  0.00     0.215 C 
BRANCH  21  22
HETATM   22  O   UNK N   1      35.802  14.686   6.984  0.00  0.00    -0.294 OA
BRANCH  22  23
HETATM   23  P   UNK N   1      34.440  13.881   7.749  0.00  0.00     0.393 P 
HETATM   24  O   UNK N   1      34.818  12.621   8.575  0.00  0.00    -0.631 OA
BRANCH  23  25
HETATM   25  O   UNK N   1      35.049  12.684   6.639  0.00  0.00    -0.307 OA
HETATM   26  H   UNK N   1      35.419  11.789   6.689  0.00  0.00     0.222 HD
ENDBRANCH  23  25
BRANCH  23  27
HETATM   27  O   UNK N   1      35.516  14.406   9.011  0.00  0.00    -0.294 OA
BRANCH  27  28
HETATM   28  C   UNK N   1      35.290  13.538  10.085  0.00  0.00     0.214 C 
BRANCH  28  29
HETATM   29  C   UNK N   1      35.450  14.284  11.404  0.00  0.00     0.166 C 
BRANCH  29  30
HETATM   30  C   UNK N   1      35.558  15.788  11.187  0.00  0.00     0.198 C 
BRANCH  30  31
HETATM   31  O   UNK N   1      36.884  16.154  10.946  0.00  0.00    -0.398 OA
HETATM   32  H   UNK N   1      37.500  15.634  10.407  0.00  0.00     0.209 HD
ENDBRANCH  30  31
ENDBRANCH  29  30
BRANCH  29  33
HETATM   33  O   UNK N   1      34.351  14.017  12.218  0.00  0.00    -0.391 OA
HETATM   34  H   UNK N   1      34.180  13.151  12.618  0.00  0.00     0.210 HD
ENDBRANCH  29  33
ENDBRANCH  28  29
ENDBRANCH  27  28
ENDBRANCH  23  27
ENDBRANCH  22  23
ENDBRANCH  21  22
ENDBRANCH   1  21
BRANCH   1  35
HETATM   35  O   UNK N   1      34.738  17.599   6.755  0.00  0.00    -0.312 OA
BRANCH  35  36
HETATM   36  C   UNK N   1      34.421  18.169   7.941  0.00  0.00     0.259 C 
HETATM   37  O   UNK N   1      35.049  19.127   8.371  0.00  0.00    -0.265 OA
BRANCH  36  38
HETATM   38  C   UNK N   1      33.383  17.512   8.789  0.00  0.00     0.111 C 
BRANCH  38  39
HETATM   39  C   UNK N   1      31.982  17.976   8.459  0.00  0.00     0.010 C 
BRANCH  39  40
HETATM   40  C   UNK N   1      31.041  16.783   8.497  0.00  0.00     0.000 C 
BRANCH  40  41
HETATM   41  C   UNK N   1      29.922  17.002   9.503  0.00  0.00     0.000 C 
BRANCH  41  42
HETATM   42  C   UNK N   1      29.477  18.454   9.490  0.00  0.00     0.000 C 
BRANCH  42  43
HETATM   43  C   UNK N   1      28.233  18.622   8.626  0.00  0.00     0.000 C 
BRANCH  43  44
HETATM   44  C   UNK N   1      27.758  17.294   8.049  0.00  0.00     0.005 C 
BRANCH  44  45
HETATM   45  C   UNK N   1      27.911  17.301   6.539  0.00  0.00    -0.010 A 
HETATM   46  C   UNK N   1      27.718  15.928   5.917  0.00  0.00     0.010 A 
HETATM   47  C   UNK N   1      26.624  16.966   5.808  0.00  0.00    -0.010 A 
BRANCH  47  48
HETATM   48  C   UNK N   1      26.524  17.654   4.459  0.00  0.00     0.005 C 
BRANCH  48  49
HETATM   49  C   UNK N   1      27.658  18.658   4.312  0.00  0.00     0.000 C 
BRANCH  49  50
HETATM   50  C   UNK N   1      27.131  20.031   3.939  0.00  0.00     0.000 C 
BRANCH  50  51
HETATM   51  C   UNK N   1      25.911  20.334   4.787  0.00  0.00    -0.000 C 
BRANCH  51  52
HETATM   52  C   UNK N   1      26.330  20.652   6.207  0.00  0.00    -0.005 C 
HETATM   53  C   UNK N   1      27.385  21.738   6.188  0.00  0.00     0.005 C 
ENDBRANCH  51  52
ENDBRANCH  50  51
ENDBRANCH  49  50
ENDBRANCH  48  49
ENDBRANCH  47  48
ENDBRANCH  44  45
ENDBRANCH  43  44
ENDBRANCH  42  43
ENDBRANCH  41  42
ENDBRANCH  40  41
ENDBRANCH  39  40
ENDBRANCH  38  39
ENDBRANCH  36  38
ENDBRANCH  35  36
ENDBRANCH   1  35
TORSDOF 42
ENDMDL
MODEL 4
REMARK VINA RESULT:      -5.0      6.937     11.581
REMARK WARNING: 32 MAX_TORS EXCEEDED!!!
REMARK  42 active torsions:
REMARK  status: ('A' for Active; 'I' for Inactive)
REMARK    1  A    between atoms: C_5  and  C_3 
REMARK    2  A    between atoms: C_6  and  C_4 
REMARK    3  A    between atoms: C_7  and  C_5 
REMARK    4  A    between atoms: C_8  and  C_6 
REMARK    5  A    between atoms: C_9  and  C_7 
REMARK    6  A    between atoms: C_21  and  C_8 
REMARK    7  A    between atoms: C_10  and  C_9 
REMARK    8  A    between atoms: C_11  and  C_10 
REMARK    9  A    between atoms: C_12  and  C_11 
REMARK   10  A    between atoms: C_13  and  C_12 
REMARK   11  A    between atoms: C_14  and  C_13 
REMARK   12  A    between atoms: C_15  and  C_14 
REMARK   13  A    between atoms: C_16  and  C_15 
REMARK   14  A    between atoms: C_19  and  C_16 
REMARK   15  A    between atoms: C_18  and  C_17 
REMARK   16  A    between atoms: C_20  and  C_17 
REMARK   17  A    between atoms: C_22  and  C_18 
REMARK   18  A    between atoms: C_23  and  C_19 
REMARK   19  A    between atoms: C_24  and  C_20 
REMARK   20  A    between atoms: C_25  and  C_21 
REMARK   21  A    between atoms: C_26  and  C_22 
REMARK   22  A    between atoms: C_27  and  C_23 
REMARK   23  A    between atoms: C_28  and  C_24 
REMARK   24  A    between atoms: C_34  and  C_25 
REMARK   25  A    between atoms: C_35  and  C_26 
REMARK   26  A    between atoms: C_38  and  C_27 
REMARK   27  A    between atoms: C_39  and  C_28 
REMARK   28  A    between atoms: C_36  and  C_30 
REMARK   29  A    between atoms: O_40  and  C_30 
REMARK   30  A    between atoms: C_36  and  C_31 
REMARK   31  A    between atoms: O_47  and  C_31 
REMARK   32  A    between atoms: C_37  and  C_32 
REMARK   33  A    between atoms: O_46  and  C_32 
REMARK   34  A    between atoms: C_37  and  C_33 
REMARK   35  A    between atoms: O_48  and  C_33 
REMARK   36  A    between atoms: O_41  and  C_36 
REMARK   37  A    between atoms: C_37  and  O_49 
REMARK   38  A    between atoms: O_46  and  C_38 
REMARK   39  A    between atoms: O_49  and  C_39 
REMARK   40  A    between atoms: P_50  and  O_44 
REMARK   41  A    between atoms: P_50  and  O_47 
REMARK   42  A    between atoms: P_50  and  O_48 
ROOT
HETATM    1  C   UNK N   1      34.031  16.346   6.285  0.00  0.00     0.180 C 
ENDROOT
BRANCH   1   2
HETATM    2  C   UNK N   1      33.413  16.540   4.897  0.00  0.00     0.213 C 
BRANCH   2   3
HETATM    3  O   UNK N   1      32.202  17.213   4.942  0.00  0.00    -0.319 OA
BRANCH   3   4
HETATM    4  C   UNK N   1      31.095  16.888   4.223  0.00  0.00     0.258 C 
HETATM    5  O   UNK N   1      31.206  16.670   3.027  0.00  0.00    -0.265 OA
BRANCH   4   6
HETATM    6  C   UNK N   1      29.741  16.760   4.850  0.00  0.00     0.111 C 
BRANCH   6   7
HETATM    7  C   UNK N   1      28.645  17.187   3.893  0.00  0.00     0.010 C 
BRANCH   7   8
HETATM    8  C   UNK N   1      27.602  16.092   3.812  0.00  0.00     0.000 C 
BRANCH   8   9
HETATM    9  C   UNK N   1      26.978  15.855   5.179  0.00  0.00     0.000 C 
BRANCH   9  10
HETATM   10  C   UNK N   1      25.459  15.700   5.111  0.00  0.00     0.000 C 
BRANCH  10  11
HETATM   11  C   UNK N   1      24.837  15.323   6.454  0.00  0.00     0.000 C 
BRANCH  11  12
HETATM   12  C   UNK N   1      25.557  14.147   7.102  0.00  0.00     0.000 C 
BRANCH  12  13
HETATM   13  C   UNK N   1      25.367  12.882   6.287  0.00  0.00     0.000 C 
BRANCH  13  14
HETATM   14  C   UNK N   1      23.984  12.308   6.514  0.00  0.00     0.000 C 
BRANCH  14  15
HETATM   15  C   UNK N   1      23.845  11.902   7.960  0.00  0.00     0.000 C 
BRANCH  15  16
HETATM   16  C   UNK N   1      22.560  12.477   8.508  0.00  0.00     0.000 C 
BRANCH  16  17
HETATM   17  C   UNK N   1      22.855  13.207   9.798  0.00  0.00     0.000 C 
BRANCH  17  18
HETATM   18  C   UNK N   1      22.168  12.493  10.940  0.00  0.00    -0.000 C 
BRANCH  18  19
HETATM   19  C   UNK N   1      23.172  11.615  11.655  0.00  0.00    -0.005 C 
HETATM   20  C   UNK N   1      23.224  12.003  13.116  0.00  0.00     0.005 C 
ENDBRANCH  18  19
ENDBRANCH  17  18
ENDBRANCH  16  17
ENDBRANCH  15  16
ENDBRANCH  14  15
ENDBRANCH  13  14
ENDBRANCH  12  13
ENDBRANCH  11  12
ENDBRANCH  10  11
ENDBRANCH   9  10
ENDBRANCH   8   9
ENDBRANCH   7   8
ENDBRANCH   6   7
ENDBRANCH   4   6
ENDBRANCH   3   4
ENDBRANCH   2   3
ENDBRANCH   1   2
BRANCH   1  21
HETATM   21  C   UNK N   1      35.124  15.292   6.178  0.00  0.00     0.215 C 
BRANCH  21  22
HETATM   22  O   UNK N   1      35.953  15.169   7.307  0.00  0.00    -0.294 OA
BRANCH  22  23
HETATM   23  P   UNK N   1      35.411  13.727   8.153  0.00  0.00     0.393 P 
HETATM   24  O   UNK N   1      36.557  12.802   8.648  0.00  0.00    -0.631 OA
BRANCH  23  25
HETATM   25  O   UNK N   1      36.223  13.093   6.748  0.00  0.00    -0.307 OA
HETATM   26  H   UNK N   1      36.010  12.502   6.008  0.00  0.00     0.222 HD
ENDBRANCH  23  25
BRANCH  23  27
HETATM   27  O   UNK N   1      36.372  14.659   9.264  0.00  0.00    -0.294 OA
BRANCH  27  28
HETATM   28  C   UNK N   1      35.457  15.342  10.074  0.00  0.00     0.214 C 
BRANCH  28  29
HETATM   29  C   UNK N   1      34.625  14.351  10.877  0.00  0.00     0.166 C 
BRANCH  29  30
HETATM   30  C   UNK N   1      35.390  13.832  12.088  0.00  0.00     0.198 C 
BRANCH  30  31
HETATM   31  O   UNK N   1      36.492  14.648  12.359  0.00  0.00    -0.398 OA
HETATM   32  H   UNK N   1      37.218  14.398  12.950  0.00  0.00     0.209 HD
ENDBRANCH  30  31
ENDBRANCH  29  30
BRANCH  29  33
HETATM   33  O   UNK N   1      33.457  14.976  11.309  0.00  0.00    -0.391 OA
HETATM   34  H   UNK N   1      33.409  15.915  11.544  0.00  0.00     0.210 HD
ENDBRANCH  29  33
ENDBRANCH  28  29
ENDBRANCH  27  28
ENDBRANCH  23  27
ENDBRANCH  22  23
ENDBRANCH  21  22
ENDBRANCH   1  21
BRANCH   1  35
HETATM   35  O   UNK N   1      34.539  17.568   6.686  0.00  0.00    -0.312 OA
BRANCH  35  36
HETATM   36  C   UNK N   1      34.247  18.180   7.858  0.00  0.00     0.259 C 
HETATM   37  O   UNK N   1      34.965  19.063   8.307  0.00  0.00    -0.265 OA
BRANCH  36  38
HETATM   38  C   UNK N   1      33.110  17.652   8.669  0.00  0.00     0.111 C 
BRANCH  38  39
HETATM   39  C   UNK N   1      31.784  18.267   8.281  0.00  0.00     0.010 C 
BRANCH  39  40
HETATM   40  C   UNK N   1      30.658  17.419   8.850  0.00  0.00     0.000 C 
BRANCH  40  41
HETATM   41  C   UNK N   1      29.655  18.277   9.605  0.00  0.00     0.000 C 
BRANCH  41  42
HETATM   42  C   UNK N   1      28.239  17.924   9.185  0.00  0.00     0.000 C 
BRANCH  42  43
HETATM   43  C   UNK N   1      28.063  18.120   7.685  0.00  0.00     0.000 C 
BRANCH  43  44
HETATM   44  C   UNK N   1      28.178  19.587   7.287  0.00  0.00     0.005 C 
BRANCH  44  45
HETATM   45  C   UNK N   1      27.019  19.971   6.384  0.00  0.00    -0.010 A 
HETATM   46  C   UNK N   1      26.956  21.463   6.102  0.00  0.00     0.010 A 
HETATM   47  C   UNK N   1      27.465  20.515   5.040  0.00  0.00    -0.010 A 
BRANCH  47  48
HETATM   48  C   UNK N   1      26.478  20.206   3.930  0.00  0.00     0.005 C 
BRANCH  48  49
HETATM   49  C   UNK N   1      25.462  19.185   4.418  0.00  0.00     0.000 C 
BRANCH  49  50
HETATM   50  C   UNK N   1      24.080  19.473   3.862  0.00  0.00     0.000 C 
BRANCH  50  51
HETATM   51  C   UNK N   1      23.258  18.200   3.912  0.00  0.00    -0.000 C 
BRANCH  51  52
HETATM   52  C   UNK N   1      21.848  18.510   4.371  0.00  0.00    -0.005 C 
HETATM   53  C   UNK N   1      21.732  18.233   5.855  0.00  0.00     0.005 C 
ENDBRANCH  51  52
ENDBRANCH  50  51
ENDBRANCH  49  50
ENDBRANCH  48  49
ENDBRANCH  47  48
ENDBRANCH  44  45
ENDBRANCH  43  44
ENDBRANCH  42  43
ENDBRANCH  41  42
ENDBRANCH  40  41
ENDBRANCH  39  40
ENDBRANCH  38  39
ENDBRANCH  36  38
ENDBRANCH  35  36
ENDBRANCH   1  35
TORSDOF 42
ENDMDL
MODEL 5
REMARK VINA RESULT:      -5.0      2.602      6.469
REMARK WARNING: 32 MAX_TORS EXCEEDED!!!
REMARK  42 active torsions:
REMARK  status: ('A' for Active; 'I' for Inactive)
REMARK    1  A    between atoms: C_5  and  C_3 
REMARK    2  A    between atoms: C_6  and  C_4 
REMARK    3  A    between atoms: C_7  and  C_5 
REMARK    4  A    between atoms: C_8  and  C_6 
REMARK    5  A    between atoms: C_9  and  C_7 
REMARK    6  A    between atoms: C_21  and  C_8 
REMARK    7  A    between atoms: C_10  and  C_9 
REMARK    8  A    between atoms: C_11  and  C_10 
REMARK    9  A    between atoms: C_12  and  C_11 
REMARK   10  A    between atoms: C_13  and  C_12 
REMARK   11  A    between atoms: C_14  and  C_13 
REMARK   12  A    between atoms: C_15  and  C_14 
REMARK   13  A    between atoms: C_16  and  C_15 
REMARK   14  A    between atoms: C_19  and  C_16 
REMARK   15  A    between atoms: C_18  and  C_17 
REMARK   16  A    between atoms: C_20  and  C_17 
REMARK   17  A    between atoms: C_22  and  C_18 
REMARK   18  A    between atoms: C_23  and  C_19 
REMARK   19  A    between atoms: C_24  and  C_20 
REMARK   20  A    between atoms: C_25  and  C_21 
REMARK   21  A    between atoms: C_26  and  C_22 
REMARK   22  A    between atoms: C_27  and  C_23 
REMARK   23  A    between atoms: C_28  and  C_24 
REMARK   24  A    between atoms: C_34  and  C_25 
REMARK   25  A    between atoms: C_35  and  C_26 
REMARK   26  A    between atoms: C_38  and  C_27 
REMARK   27  A    between atoms: C_39  and  C_28 
REMARK   28  A    between atoms: C_36  and  C_30 
REMARK   29  A    between atoms: O_40  and  C_30 
REMARK   30  A    between atoms: C_36  and  C_31 
REMARK   31  A    between atoms: O_47  and  C_31 
REMARK   32  A    between atoms: C_37  and  C_32 
REMARK   33  A    between atoms: O_46  and  C_32 
REMARK   34  A    between atoms: C_37  and  C_33 
REMARK   35  A    between atoms: O_48  and  C_33 
REMARK   36  A    between atoms: O_41  and  C_36 
REMARK   37  A    between atoms: C_37  and  O_49 
REMARK   38  A    between atoms: O_46  and  C_38 
REMARK   39  A    between atoms: O_49  and  C_39 
REMARK   40  A    between atoms: P_50  and  O_44 
REMARK   41  A    between atoms: P_50  and  O_47 
REMARK   42  A    between atoms: P_50  and  O_48 
ROOT
HETATM    1  C   UNK N   1      20.683  15.806   6.388  0.00  0.00     0.180 C 
ENDROOT
BRANCH   1   2
HETATM    2  C   UNK N   1      21.213  14.571   5.654  0.00  0.00     0.213 C 
BRANCH   2   3
HETATM    3  O   UNK N   1      21.696  14.869   4.389  0.00  0.00    -0.319 OA
BRANCH   3   4
HETATM    4  C   UNK N   1      20.962  14.861   3.245  0.00  0.00     0.258 C 
HETATM    5  O   UNK N   1      19.744  14.822   3.321  0.00  0.00    -0.265 OA
BRANCH   4   6
HETATM    6  C   UNK N   1      21.592  14.925   1.888  0.00  0.00     0.111 C 
BRANCH   6   7
HETATM    7  C   UNK N   1      21.664  13.554   1.245  0.00  0.00     0.010 C 
BRANCH   7   8
HETATM    8  C   UNK N   1      22.836  13.515   0.286  0.00  0.00     0.000 C 
BRANCH   8   9
HETATM    9  C   UNK N   1      24.098  13.078   1.013  0.00  0.00     0.000 C 
BRANCH   9  10
HETATM   10  C   UNK N   1      24.622  11.730   0.517  0.00  0.00     0.000 C 
BRANCH  10  11
HETATM   11  C   UNK N   1      25.481  11.007   1.552  0.00  0.00     0.000 C 
BRANCH  11  12
HETATM   12  C   UNK N   1      26.968  11.143   1.251  0.00  0.00     0.000 C 
BRANCH  12  13
HETATM   13  C   UNK N   1      27.622  12.133   2.196  0.00  0.00     0.000 C 
BRANCH  13  14
HETATM   14  C   UNK N   1      28.803  12.804   1.526  0.00  0.00     0.000 C 
BRANCH  14  15
HETATM   15  C   UNK N   1      28.699  14.297   1.714  0.00  0.00     0.000 C 
BRANCH  15  16
HETATM   16  C   UNK N   1      27.251  14.661   1.946  0.00  0.00     0.000 C 
BRANCH  16  17
HETATM   17  C   UNK N   1      27.158  15.589   3.135  0.00  0.00     0.000 C 
BRANCH  17  18
HETATM   18  C   UNK N   1      26.295  14.949   4.198  0.00  0.00    -0.000 C 
BRANCH  18  19
HETATM   19  C   UNK N   1      27.082  14.851   5.487  0.00  0.00    -0.005 C 
HETATM   20  C   UNK N   1      26.221  15.324   6.637  0.00  0.00     0.005 C 
ENDBRANCH  18  19
ENDBRANCH  17  18
ENDBRANCH  16  17
ENDBRANCH  15  16
ENDBRANCH  14  15
ENDBRANCH  13  14
ENDBRANCH  12  13
ENDBRANCH  11  12
ENDBRANCH  10  11
ENDBRANCH   9  10
ENDBRANCH   8   9
ENDBRANCH   7   8
ENDBRANCH   6   7
ENDBRANCH   4   6
ENDBRANCH   3   4
ENDBRANCH   2   3
ENDBRANCH   1   2
BRANCH   1  21
HETATM   21  C   UNK N   1      20.076  15.353   7.708  0.00  0.00     0.215 C 
BRANCH  21  22
HETATM   22  O   UNK N   1      20.281  14.001   8.033  0.00  0.00    -0.294 OA
BRANCH  22  23
HETATM   23  P   UNK N   1      20.773  13.976   9.720  0.00  0.00     0.393 P 
HETATM   24  O   UNK N   1      20.087  12.875  10.574  0.00  0.00    -0.631 OA
BRANCH  23  25
HETATM   25  O   UNK N   1      19.073  14.349   9.798  0.00  0.00    -0.307 OA
HETATM   26  H   UNK N   1      18.340  14.468   9.173  0.00  0.00     0.222 HD
ENDBRANCH  23  25
BRANCH  23  27
HETATM   27  O   UNK N   1      21.213  12.445   9.022  0.00  0.00    -0.294 OA
BRANCH  27  28
HETATM   28  C   UNK N   1      22.554  12.575   8.642  0.00  0.00     0.214 C 
BRANCH  28  29
HETATM   29  C   UNK N   1      23.443  11.758   9.570  0.00  0.00     0.166 C 
BRANCH  29  30
HETATM   30  C   UNK N   1      24.575  12.600  10.144  0.00  0.00     0.198 C 
BRANCH  30  31
HETATM   31  O   UNK N   1      24.801  12.269  11.483  0.00  0.00    -0.398 OA
HETATM   32  H   UNK N   1      24.454  11.470  11.909  0.00  0.00     0.209 HD
ENDBRANCH  30  31
ENDBRANCH  29  30
BRANCH  29  33
HETATM   33  O   UNK N   1      22.674  11.253  10.616  0.00  0.00    -0.391 OA
HETATM   34  H   UNK N   1      22.455  10.313  10.712  0.00  0.00     0.210 HD
ENDBRANCH  29  33
ENDBRANCH  28  29
ENDBRANCH  27  28
ENDBRANCH  23  27
ENDBRANCH  22  23
ENDBRANCH  21  22
ENDBRANCH   1  21
BRANCH   1  35
HETATM   35  O   UNK N   1      21.751  16.661   6.585  0.00  0.00    -0.312 OA
BRANCH  35  36
HETATM   36  C   UNK N   1      21.769  17.970   6.238  0.00  0.00     0.259 C 
HETATM   37  O   UNK N   1      21.068  18.788   6.818  0.00  0.00    -0.265 OA
BRANCH  36  38
HETATM   38  C   UNK N   1      22.551  18.373   5.032  0.00  0.00     0.111 C 
BRANCH  38  39
HETATM   39  C   UNK N   1      23.798  17.539   4.842  0.00  0.00     0.010 C 
BRANCH  39  40
HETATM   40  C   UNK N   1      24.699  18.219   3.824  0.00  0.00     0.000 C 
BRANCH  40  41
HETATM   41  C   UNK N   1      24.237  19.641   3.548  0.00  0.00     0.000 C 
BRANCH  41  42
HETATM   42  C   UNK N   1      25.319  20.414   2.813  0.00  0.00     0.000 C 
BRANCH  42  43
HETATM   43  C   UNK N   1      26.670  20.211   3.487  0.00  0.00     0.000 C 
BRANCH  43  44
HETATM   44  C   UNK N   1      26.758  20.949   4.817  0.00  0.00     0.005 C 
BRANCH  44  45
HETATM   45  C   UNK N   1      27.841  20.332   5.683  0.00  0.00    -0.010 A 
HETATM   46  C   UNK N   1      27.383  20.062   7.106  0.00  0.00     0.010 A 
HETATM   47  C   UNK N   1      27.516  18.918   6.127  0.00  0.00    -0.010 A 
BRANCH  47  48
HETATM   48  C   UNK N   1      28.758  18.063   6.305  0.00  0.00     0.005 C 
BRANCH  48  49
HETATM   49  C   UNK N   1      29.387  17.786   4.947  0.00  0.00     0.000 C 
BRANCH  49  50
HETATM   50  C   UNK N   1      30.572  16.847   5.071  0.00  0.00     0.000 C 
BRANCH  50  51
HETATM   51  C   UNK N   1      31.384  16.913   3.793  0.00  0.00    -0.000 C 
BRANCH  51  52
HETATM   52  C   UNK N   1      32.682  17.653   4.037  0.00  0.00    -0.005 C 
HETATM   53  C   UNK N   1      33.165  17.366   5.444  0.00  0.00     0.005 C 
ENDBRANCH  51  52
ENDBRANCH  50  51
ENDBRANCH  49  50
ENDBRANCH  48  49
ENDBRANCH  47  48
ENDBRANCH  44  45
ENDBRANCH  43  44
ENDBRANCH  42  43
ENDBRANCH  41  42
ENDBRANCH  40  41
ENDBRANCH  39  40
ENDBRANCH  38  39
ENDBRANCH  36  38
ENDBRANCH  35  36
ENDBRANCH   1  35
TORSDOF 42
ENDMDL
MODEL 6
REMARK VINA RESULT:      -4.9      2.341      7.380
REMARK WARNING: 32 MAX_TORS EXCEEDED!!!
REMARK  42 active torsions:
REMARK  status: ('A' for Active; 'I' for Inactive)
REMARK    1  A    between atoms: C_5  and  C_3 
REMARK    2  A    between atoms: C_6  and  C_4 
REMARK    3  A    between atoms: C_7  and  C_5 
REMARK    4  A    between atoms: C_8  and  C_6 
REMARK    5  A    between atoms: C_9  and  C_7 
REMARK    6  A    between atoms: C_21  and  C_8 
REMARK    7  A    between atoms: C_10  and  C_9 
REMARK    8  A    between atoms: C_11  and  C_10 
REMARK    9  A    between atoms: C_12  and  C_11 
REMARK   10  A    between atoms: C_13  and  C_12 
REMARK   11  A    between atoms: C_14  and  C_13 
REMARK   12  A    between atoms: C_15  and  C_14 
REMARK   13  A    between atoms: C_16  and  C_15 
REMARK   14  A    between atoms: C_19  and  C_16 
REMARK   15  A    between atoms: C_18  and  C_17 
REMARK   16  A    between atoms: C_20  and  C_17 
REMARK   17  A    between atoms: C_22  and  C_18 
REMARK   18  A    between atoms: C_23  and  C_19 
REMARK   19  A    between atoms: C_24  and  C_20 
REMARK   20  A    between atoms: C_25  and  C_21 
REMARK   21  A    between atoms: C_26  and  C_22 
REMARK   22  A    between atoms: C_27  and  C_23 
REMARK   23  A    between atoms: C_28  and  C_24 
REMARK   24  A    between atoms: C_34  and  C_25 
REMARK   25  A    between atoms: C_35  and  C_26 
REMARK   26  A    between atoms: C_38  and  C_27 
REMARK   27  A    between atoms: C_39  and  C_28 
REMARK   28  A    between atoms: C_36  and  C_30 
REMARK   29  A    between atoms: O_40  and  C_30 
REMARK   30  A    between atoms: C_36  and  C_31 
REMARK   31  A    between atoms: O_47  and  C_31 
REMARK   32  A    between atoms: C_37  and  C_32 
REMARK   33  A    between atoms: O_46  and  C_32 
REMARK   34  A    between atoms: C_37  and  C_33 
REMARK   35  A    between atoms: O_48  and  C_33 
REMARK   36  A    between atoms: O_41  and  C_36 
REMARK   37  A    between atoms: C_37  and  O_49 
REMARK   38  A    between atoms: O_46  and  C_38 
REMARK   39  A    between atoms: O_49  and  C_39 
REMARK   40  A    between atoms: P_50  and  O_44 
REMARK   41  A    between atoms: P_50  and  O_47 
REMARK   42  A    between atoms: P_50  and  O_48 
ROOT
HETATM    1  C   UNK N   1      21.367  18.844   4.349  0.00  0.00     0.180 C 
ENDROOT
BRANCH   1   2
HETATM    2  C   UNK N   1      22.617  19.252   3.564  0.00  0.00     0.213 C 
BRANCH   2   3
HETATM    3  O   UNK N   1      23.768  18.641   4.038  0.00  0.00    -0.319 OA
BRANCH   3   4
HETATM    4  C   UNK N   1      25.036  18.955   3.663  0.00  0.00     0.258 C 
HETATM    5  O   UNK N   1      25.676  18.153   3.002  0.00  0.00    -0.265 OA
BRANCH   4   6
HETATM    6  C   UNK N   1      25.673  20.265   4.010  0.00  0.00     0.111 C 
BRANCH   6   7
HETATM    7  C   UNK N   1      27.144  20.281   3.640  0.00  0.00     0.010 C 
BRANCH   7   8
HETATM    8  C   UNK N   1      27.959  19.807   4.825  0.00  0.00     0.000 C 
BRANCH   8   9
HETATM    9  C   UNK N   1      27.589  20.598   6.070  0.00  0.00     0.000 C 
BRANCH   9  10
HETATM   10  C   UNK N   1      27.448  19.710   7.307  0.00  0.00     0.000 C 
BRANCH  10  11
HETATM   11  C   UNK N   1      28.584  18.699   7.448  0.00  0.00     0.000 C 
BRANCH  11  12
HETATM   12  C   UNK N   1      29.132  18.656   8.868  0.00  0.00     0.000 C 
BRANCH  12  13
HETATM   13  C   UNK N   1      30.566  18.161   8.880  0.00  0.00     0.000 C 
BRANCH  13  14
HETATM   14  C   UNK N   1      30.755  17.060   7.857  0.00  0.00     0.000 C 
BRANCH  14  15
HETATM   15  C   UNK N   1      32.095  17.230   7.186  0.00  0.00     0.000 C 
BRANCH  15  16
HETATM   16  C   UNK N   1      32.949  18.152   8.026  0.00  0.00     0.000 C 
BRANCH  16  17
HETATM   17  C   UNK N   1      34.354  17.600   8.094  0.00  0.00     0.000 C 
BRANCH  17  18
HETATM   18  C   UNK N   1      34.560  16.932   9.433  0.00  0.00    -0.000 C 
BRANCH  18  19
HETATM   19  C   UNK N   1      34.708  15.440   9.229  0.00  0.00    -0.005 C 
HETATM   20  C   UNK N   1      35.135  15.169   7.803  0.00  0.00     0.005 C 
ENDBRANCH  18  19
ENDBRANCH  17  18
ENDBRANCH  16  17
ENDBRANCH  15  16
ENDBRANCH  14  15
ENDBRANCH  13  14
ENDBRANCH  12  13
ENDBRANCH  11  12
ENDBRANCH  10  11
ENDBRANCH   9  10
ENDBRANCH   8   9
ENDBRANCH   7   8
ENDBRANCH   6   7
ENDBRANCH   4   6
ENDBRANCH   3   4
ENDBRANCH   2   3
ENDBRANCH   1   2
BRANCH   1  21
HETATM   21  C   UNK N   1      20.438  18.087   3.410  0.00  0.00     0.215 C 
BRANCH  21  22
HETATM   22  O   UNK N   1      21.076  17.352   2.396  0.00  0.00    -0.294 OA
BRANCH  22  23
HETATM   23  P   UNK N   1      19.870  17.103   1.143  0.00  0.00     0.393 P 
HETATM   24  O   UNK N   1      20.376  17.373  -0.300  0.00  0.00    -0.631 OA
BRANCH  23  25
HETATM   25  O   UNK N   1      20.240  18.802   1.021  0.00  0.00    -0.307 OA
HETATM   26  H   UNK N   1      20.992  19.383   1.212  0.00  0.00     0.222 HD
ENDBRANCH  23  25
BRANCH  23  27
HETATM   27  O   UNK N   1      21.173  15.990   0.846  0.00  0.00    -0.294 OA
BRANCH  27  28
HETATM   28  C   UNK N   1      20.631  14.714   1.039  0.00  0.00     0.214 C 
BRANCH  28  29
HETATM   29  C   UNK N   1      21.746  13.682   1.149  0.00  0.00     0.166 C 
BRANCH  29  30
HETATM   30  C   UNK N   1      23.120  14.328   1.029  0.00  0.00     0.198 C 
BRANCH  30  31
HETATM   31  O   UNK N   1      23.793  13.843  -0.096  0.00  0.00    -0.398 OA
HETATM   32  H   UNK N   1      24.656  14.170  -0.392  0.00  0.00     0.209 HD
ENDBRANCH  30  31
ENDBRANCH  29  30
BRANCH  29  33
HETATM   33  O   UNK N   1      21.651  13.033   2.378  0.00  0.00    -0.391 OA
HETATM   34  H   UNK N   1      22.034  12.160   2.553  0.00  0.00     0.210 HD
ENDBRANCH  29  33
ENDBRANCH  28  29
ENDBRANCH  27  28
ENDBRANCH  23  27
ENDBRANCH  22  23
ENDBRANCH  21  22
ENDBRANCH   1  21
BRANCH   1  35
HETATM   35  O   UNK N   1      21.781  18.052   5.404  0.00  0.00    -0.312 OA
BRANCH  35  36
HETATM   36  C   UNK N   1      21.085  17.864   6.550  0.00  0.00     0.259 C 
HETATM   37  O   UNK N   1      20.877  18.790   7.322  0.00  0.00    -0.265 OA
BRANCH  36  38
HETATM   38  C   UNK N   1      20.703  16.472   6.928  0.00  0.00     0.111 C 
BRANCH  38  39
HETATM   39  C   UNK N   1      20.229  16.366   8.360  0.00  0.00     0.010 C 
BRANCH  39  40
HETATM   40  C   UNK N   1      21.065  15.324   9.084  0.00  0.00     0.000 C 
BRANCH  40  41
HETATM   41  C   UNK N   1      20.181  14.329   9.820  0.00  0.00     0.000 C 
BRANCH  41  42
HETATM   42  C   UNK N   1      20.797  12.941   9.773  0.00  0.00     0.000 C 
BRANCH  42  43
HETATM   43  C   UNK N   1      20.950  12.378  11.180  0.00  0.00     0.000 C 
BRANCH  43  44
HETATM   44  C   UNK N   1      22.369  11.890  11.445  0.00  0.00     0.005 C 
BRANCH  44  45
HETATM   45  C   UNK N   1      23.344  12.606  10.528  0.00  0.00    -0.010 A 
HETATM   46  C   UNK N   1      24.793  12.231  10.792  0.00  0.00     0.010 A 
HETATM   47  C   UNK N   1      24.075  11.668   9.586  0.00  0.00    -0.010 A 
BRANCH  47  48
HETATM   48  C   UNK N   1      24.428  12.328   8.265  0.00  0.00     0.005 C 
BRANCH  48  49
HETATM   49  C   UNK N   1      23.203  12.351   7.362  0.00  0.00     0.000 C 
BRANCH  49  50
HETATM   50  C   UNK N   1      23.120  13.648   6.581  0.00  0.00     0.000 C 
BRANCH  50  51
HETATM   51  C   UNK N   1      24.261  14.551   7.008  0.00  0.00    -0.000 C 
BRANCH  51  52
HETATM   52  C   UNK N   1      24.334  15.762   6.102  0.00  0.00    -0.005 C 
HETATM   53  C   UNK N   1      25.786  16.106   5.842  0.00  0.00     0.005 C 
ENDBRANCH  51  52
ENDBRANCH  50  51
ENDBRANCH  49  50
ENDBRANCH  48  49
ENDBRANCH  47  48
ENDBRANCH  44  45
ENDBRANCH  43  44
ENDBRANCH  42  43
ENDBRANCH  41  42
ENDBRANCH  40  41
ENDBRANCH  39  40
ENDBRANCH  38  39
ENDBRANCH  36  38
ENDBRANCH  35  36
ENDBRANCH   1  35
TORSDOF 42
ENDMDL
MODEL 7
REMARK VINA RESULT:      -4.9      2.027      7.066
REMARK WARNING: 32 MAX_TORS EXCEEDED!!!
REMARK  42 active torsions:
REMARK  status: ('A' for Active; 'I' for Inactive)
REMARK    1  A    between atoms: C_5  and  C_3 
REMARK    2  A    between atoms: C_6  and  C_4 
REMARK    3  A    between atoms: C_7  and  C_5 
REMARK    4  A    between atoms: C_8  and  C_6 
REMARK    5  A    between atoms: C_9  and  C_7 
REMARK    6  A    between atoms: C_21  and  C_8 
REMARK    7  A    between atoms: C_10  and  C_9 
REMARK    8  A    between atoms: C_11  and  C_10 
REMARK    9  A    between atoms: C_12  and  C_11 
REMARK   10  A    between atoms: C_13  and  C_12 
REMARK   11  A    between atoms: C_14  and  C_13 
REMARK   12  A    between atoms: C_15  and  C_14 
REMARK   13  A    between atoms: C_16  and  C_15 
REMARK   14  A    between atoms: C_19  and  C_16 
REMARK   15  A    between atoms: C_18  and  C_17 
REMARK   16  A    between atoms: C_20  and  C_17 
REMARK   17  A    between atoms: C_22  and  C_18 
REMARK   18  A    between atoms: C_23  and  C_19 
REMARK   19  A    between atoms: C_24  and  C_20 
REMARK   20  A    between atoms: C_25  and  C_21 
REMARK   21  A    between atoms: C_26  and  C_22 
REMARK   22  A    between atoms: C_27  and  C_23 
REMARK   23  A    between atoms: C_28  and  C_24 
REMARK   24  A    between atoms: C_34  and  C_25 
REMARK   25  A    between atoms: C_35  and  C_26 
REMARK   26  A    between atoms: C_38  and  C_27 
REMARK   27  A    between atoms: C_39  and  C_28 
REMARK   28  A    between atoms: C_36  and  C_30 
REMARK   29  A    between atoms: O_40  and  C_30 
REMARK   30  A    between atoms: C_36  and  C_31 
REMARK   31  A    between atoms: O_47  and  C_31 
REMARK   32  A    between atoms: C_37  and  C_32 
REMARK   33  A    between atoms: O_46  and  C_32 
REMARK   34  A    between atoms: C_37  and  C_33 
REMARK   35  A    between atoms: O_48  and  C_33 
REMARK   36  A    between atoms: O_41  and  C_36 
REMARK   37  A    between atoms: C_37  and  O_49 
REMARK   38  A    between atoms: O_46  and  C_38 
REMARK   39  A    between atoms: O_49  and  C_39 
REMARK   40  A    between atoms: P_50  and  O_44 
REMARK   41  A    between atoms: P_50  and  O_47 
REMARK   42  A    between atoms: P_50  and  O_48 
ROOT
HETATM    1  C   UNK N   1      21.263  18.736   4.359  0.00  0.00     0.180 C 
ENDROOT
BRANCH   1   2
HETATM    2  C   UNK N   1      22.514  19.141   3.576  0.00  0.00     0.213 C 
BRANCH   2   3
HETATM    3  O   UNK N   1      23.631  18.400   3.934  0.00  0.00    -0.319 OA
BRANCH   3   4
HETATM    4  C   UNK N   1      24.922  18.773   3.727  0.00  0.00     0.258 C 
HETATM    5  O   UNK N   1      25.668  18.018   3.123  0.00  0.00    -0.265 OA
BRANCH   4   6
HETATM    6  C   UNK N   1      25.459  20.092   4.190  0.00  0.00     0.111 C 
BRANCH   6   7
HETATM    7  C   UNK N   1      26.831  20.366   3.606  0.00  0.00     0.010 C 
BRANCH   7   8
HETATM    8  C   UNK N   1      27.888  19.996   4.625  0.00  0.00     0.000 C 
BRANCH   8   9
HETATM    9  C   UNK N   1      27.573  20.637   5.968  0.00  0.00     0.000 C 
BRANCH   9  10
HETATM   10  C   UNK N   1      27.801  19.682   7.140  0.00  0.00     0.000 C 
BRANCH  10  11
HETATM   11  C   UNK N   1      28.171  18.269   6.695  0.00  0.00     0.000 C 
BRANCH  11  12
HETATM   12  C   UNK N   1      29.284  17.678   7.550  0.00  0.00     0.000 C 
BRANCH  12  13
HETATM   13  C   UNK N   1      30.367  17.066   6.683  0.00  0.00     0.000 C 
BRANCH  13  14
HETATM   14  C   UNK N   1      29.929  17.034   5.233  0.00  0.00     0.000 C 
BRANCH  14  15
HETATM   15  C   UNK N   1      30.302  15.702   4.630  0.00  0.00     0.000 C 
BRANCH  15  16
HETATM   16  C   UNK N   1      29.480  14.619   5.289  0.00  0.00     0.000 C 
BRANCH  16  17
HETATM   17  C   UNK N   1      28.516  14.044   4.277  0.00  0.00     0.000 C 
BRANCH  17  18
HETATM   18  C   UNK N   1      28.960  14.440   2.888  0.00  0.00    -0.000 C 
BRANCH  18  19
HETATM   19  C   UNK N   1      27.765  14.934   2.103  0.00  0.00    -0.005 C 
HETATM   20  C   UNK N   1      26.603  13.988   2.313  0.00  0.00     0.005 C 
ENDBRANCH  18  19
ENDBRANCH  17  18
ENDBRANCH  16  17
ENDBRANCH  15  16
ENDBRANCH  14  15
ENDBRANCH  13  14
ENDBRANCH  12  13
ENDBRANCH  11  12
ENDBRANCH  10  11
ENDBRANCH   9  10
ENDBRANCH   8   9
ENDBRANCH   7   8
ENDBRANCH   6   7
ENDBRANCH   4   6
ENDBRANCH   3   4
ENDBRANCH   2   3
ENDBRANCH   1   2
BRANCH   1  21
HETATM   21  C   UNK N   1      20.397  17.865   3.460  0.00  0.00     0.215 C 
BRANCH  21  22
HETATM   22  O   UNK N   1      21.065  17.268   2.377  0.00  0.00    -0.294 OA
BRANCH  22  23
HETATM   23  P   UNK N   1      19.857  17.054   1.118  0.00  0.00     0.393 P 
HETATM   24  O   UNK N   1      20.377  17.311  -0.323  0.00  0.00    -0.631 OA
BRANCH  23  25
HETATM   25  O   UNK N   1      20.275  18.742   0.999  0.00  0.00    -0.307 OA
HETATM   26  H   UNK N   1      20.685  19.416   1.563  0.00  0.00     0.222 HD
ENDBRANCH  23  25
BRANCH  23  27
HETATM   27  O   UNK N   1      21.129  15.905   0.826  0.00  0.00    -0.294 OA
BRANCH  27  28
HETATM   28  C   UNK N   1      20.540  14.644   0.974  0.00  0.00     0.214 C 
BRANCH  28  29
HETATM   29  C   UNK N   1      21.609  13.559   0.945  0.00  0.00     0.166 C 
BRANCH  29  30
HETATM   30  C   UNK N   1      23.005  14.153   0.812  0.00  0.00     0.198 C 
BRANCH  30  31
HETATM   31  O   UNK N   1      23.682  13.576  -0.266  0.00  0.00    -0.398 OA
HETATM   32  H   UNK N   1      24.561  13.856  -0.565  0.00  0.00     0.209 HD
ENDBRANCH  30  31
ENDBRANCH  29  30
BRANCH  29  33
HETATM   33  O   UNK N   1      21.539  12.816   2.122  0.00  0.00    -0.391 OA
HETATM   34  H   UNK N   1      21.888  11.915   2.206  0.00  0.00     0.210 HD
ENDBRANCH  29  33
ENDBRANCH  28  29
ENDBRANCH  27  28
ENDBRANCH  23  27
ENDBRANCH  22  23
ENDBRANCH  21  22
ENDBRANCH   1  21
BRANCH   1  35
HETATM   35  O   UNK N   1      21.682  18.048   5.483  0.00  0.00    -0.312 OA
BRANCH  35  36
HETATM   36  C   UNK N   1      20.970  17.930   6.629  0.00  0.00     0.259 C 
HETATM   37  O   UNK N   1      20.865  18.867   7.408  0.00  0.00    -0.265 OA
BRANCH  36  38
HETATM   38  C   UNK N   1      20.436  16.585   6.996  0.00  0.00     0.111 C 
BRANCH  38  39
HETATM   39  C   UNK N   1      20.106  16.472   8.468  0.00  0.00     0.010 C 
BRANCH  39  40
HETATM   40  C   UNK N   1      20.975  15.392   9.091  0.00  0.00     0.000 C 
BRANCH  40  41
HETATM   41  C   UNK N   1      20.125  14.328   9.766  0.00  0.00     0.000 C 
BRANCH  41  42
HETATM   42  C   UNK N   1      20.820  12.979   9.701  0.00  0.00     0.000 C 
BRANCH  42  43
HETATM   43  C   UNK N   1      20.931  12.369  11.092  0.00  0.00     0.000 C 
BRANCH  43  44
HETATM   44  C   UNK N   1      22.354  11.918  11.403  0.00  0.00     0.005 C 
BRANCH  44  45
HETATM   45  C   UNK N   1      23.337  12.659  10.515  0.00  0.00    -0.010 A 
HETATM   46  C   UNK N   1      24.784  12.274  10.781  0.00  0.00     0.010 A 
HETATM   47  C   UNK N   1      24.075  11.747   9.552  0.00  0.00    -0.010 A 
BRANCH  47  48
HETATM   48  C   UNK N   1      24.440  12.444   8.254  0.00  0.00     0.005 C 
BRANCH  48  49
HETATM   49  C   UNK N   1      23.341  12.219   7.226  0.00  0.00     0.000 C 
BRANCH  49  50
HETATM   50  C   UNK N   1      22.998  13.504   6.497  0.00  0.00     0.000 C 
BRANCH  50  51
HETATM   51  C   UNK N   1      23.817  14.635   7.087  0.00  0.00    -0.000 C 
BRANCH  51  52
HETATM   52  C   UNK N   1      24.149  15.651   6.015  0.00  0.00    -0.005 C 
HETATM   53  C   UNK N   1      25.648  15.684   5.801  0.00  0.00     0.005 C 
ENDBRANCH  51  52
ENDBRANCH  50  51
ENDBRANCH  49  50
ENDBRANCH  48  49
ENDBRANCH  47  48
ENDBRANCH  44  45
ENDBRANCH  43  44
ENDBRANCH  42  43
ENDBRANCH  41  42
ENDBRANCH  40  41
ENDBRANCH  39  40
ENDBRANCH  38  39
ENDBRANCH  36  38
ENDBRANCH  35  36
ENDBRANCH   1  35
TORSDOF 42
ENDMDL
MODEL 8
REMARK VINA RESULT:      -4.9      9.696     14.149
REMARK WARNING: 32 MAX_TORS EXCEEDED!!!
REMARK  42 active torsions:
REMARK  status: ('A' for Active; 'I' for Inactive)
REMARK    1  A    between atoms: C_5  and  C_3 
REMARK    2  A    between atoms: C_6  and  C_4 
REMARK    3  A    between atoms: C_7  and  C_5 
REMARK    4  A    between atoms: C_8  and  C_6 
REMARK    5  A    between atoms: C_9  and  C_7 
REMARK    6  A    between atoms: C_21  and  C_8 
REMARK    7  A    between atoms: C_10  and  C_9 
REMARK    8  A    between atoms: C_11  and  C_10 
REMARK    9  A    between atoms: C_12  and  C_11 
REMARK   10  A    between atoms: C_13  and  C_12 
REMARK   11  A    between atoms: C_14  and  C_13 
REMARK   12  A    between atoms: C_15  and  C_14 
REMARK   13  A    between atoms: C_16  and  C_15 
REMARK   14  A    between atoms: C_19  and  C_16 
REMARK   15  A    between atoms: C_18  and  C_17 
REMARK   16  A    between atoms: C_20  and  C_17 
REMARK   17  A    between atoms: C_22  and  C_18 
REMARK   18  A    between atoms: C_23  and  C_19 
REMARK   19  A    between atoms: C_24  and  C_20 
REMARK   20  A    between atoms: C_25  and  C_21 
REMARK   21  A    between atoms: C_26  and  C_22 
REMARK   22  A    between atoms: C_27  and  C_23 
REMARK   23  A    between atoms: C_28  and  C_24 
REMARK   24  A    between atoms: C_34  and  C_25 
REMARK   25  A    between atoms: C_35  and  C_26 
REMARK   26  A    between atoms: C_38  and  C_27 
REMARK   27  A    between atoms: C_39  and  C_28 
REMARK   28  A    between atoms: C_36  and  C_30 
REMARK   29  A    between atoms: O_40  and  C_30 
REMARK   30  A    between atoms: C_36  and  C_31 
REMARK   31  A    between atoms: O_47  and  C_31 
REMARK   32  A    between atoms: C_37  and  C_32 
REMARK   33  A    between atoms: O_46  and  C_32 
REMARK   34  A    between atoms: C_37  and  C_33 
REMARK   35  A    between atoms: O_48  and  C_33 
REMARK   36  A    between atoms: O_41  and  C_36 
REMARK   37  A    between atoms: C_37  and  O_49 
REMARK   38  A    between atoms: O_46  and  C_38 
REMARK   39  A    between atoms: O_49  and  C_39 
REMARK   40  A    between atoms: P_50  and  O_44 
REMARK   41  A    between atoms: P_50  and  O_47 
REMARK   42  A    between atoms: P_50  and  O_48 
ROOT
HETATM    1  C   UNK N   1      35.326  15.521  10.544  0.00  0.00     0.180 C 
ENDROOT
BRANCH   1   2
HETATM    2  C   UNK N   1      35.467  17.007  10.203  0.00  0.00     0.213 C 
BRANCH   2   3
HETATM    3  O   UNK N   1      34.324  17.531   9.618  0.00  0.00    -0.319 OA
BRANCH   3   4
HETATM    4  C   UNK N   1      34.279  18.186   8.427  0.00  0.00     0.258 C 
HETATM    5  O   UNK N   1      35.029  19.131   8.242  0.00  0.00    -0.265 OA
BRANCH   4   6
HETATM    6  C   UNK N   1      33.359  17.774   7.320  0.00  0.00     0.111 C 
BRANCH   6   7
HETATM    7  C   UNK N   1      33.699  16.389   6.805  0.00  0.00     0.010 C 
BRANCH   7   8
HETATM    8  C   UNK N   1      33.864  16.444   5.301  0.00  0.00     0.000 C 
BRANCH   8   9
HETATM    9  C   UNK N   1      33.148  17.661   4.736  0.00  0.00     0.000 C 
BRANCH   9  10
HETATM   10  C   UNK N   1      32.321  17.329   3.493  0.00  0.00     0.000 C 
BRANCH  10  11
HETATM   11  C   UNK N   1      32.131  15.828   3.288  0.00  0.00     0.000 C 
BRANCH  11  12
HETATM   12  C   UNK N   1      30.712  15.385   3.621  0.00  0.00     0.000 C 
BRANCH  12  13
HETATM   13  C   UNK N   1      29.803  16.583   3.816  0.00  0.00     0.000 C 
BRANCH  13  14
HETATM   14  C   UNK N   1      29.006  16.440   5.096  0.00  0.00     0.000 C 
BRANCH  14  15
HETATM   15  C   UNK N   1      29.954  16.408   6.270  0.00  0.00     0.000 C 
BRANCH  15  16
HETATM   16  C   UNK N   1      29.589  17.523   7.223  0.00  0.00     0.000 C 
BRANCH  16  17
HETATM   17  C   UNK N   1      28.163  17.949   6.963  0.00  0.00     0.000 C 
BRANCH  17  18
HETATM   18  C   UNK N   1      28.044  19.441   7.172  0.00  0.00    -0.000 C 
BRANCH  18  19
HETATM   19  C   UNK N   1      27.737  20.108   5.849  0.00  0.00    -0.005 C 
HETATM   20  C   UNK N   1      26.291  20.549   5.834  0.00  0.00     0.005 C 
ENDBRANCH  18  19
ENDBRANCH  17  18
ENDBRANCH  16  17
ENDBRANCH  15  16
ENDBRANCH  14  15
ENDBRANCH  13  14
ENDBRANCH  12  13
ENDBRANCH  11  12
ENDBRANCH  10  11
ENDBRANCH   9  10
ENDBRANCH   8   9
ENDBRANCH   7   8
ENDBRANCH   6   7
ENDBRANCH   4   6
ENDBRANCH   3   4
ENDBRANCH   2   3
ENDBRANCH   1   2
BRANCH   1  21
HETATM   21  C   UNK N   1      35.888  14.710   9.385  0.00  0.00     0.215 C 
BRANCH  21  22
HETATM   22  O   UNK N   1      34.990  13.804   8.794  0.00  0.00    -0.294 OA
BRANCH  22  23
HETATM   23  P   UNK N   1      35.477  12.208   9.344  0.00  0.00     0.393 P 
HETATM   24  O   UNK N   1      34.623  11.043   8.774  0.00  0.00    -0.631 OA
BRANCH  23  25
HETATM   25  O   UNK N   1      33.860  12.380   9.972  0.00  0.00    -0.307 OA
HETATM   26  H   UNK N   1      33.224  11.835  10.461  0.00  0.00     0.222 HD
ENDBRANCH  23  25
BRANCH  23  27
HETATM   27  O   UNK N   1      35.659  12.246   7.615  0.00  0.00    -0.294 OA
BRANCH  27  28
HETATM   28  C   UNK N   1      34.596  11.489   7.107  0.00  0.00     0.214 C 
BRANCH  28  29
HETATM   29  C   UNK N   1      34.077  12.113   5.818  0.00  0.00     0.166 C 
BRANCH  29  30
HETATM   30  C   UNK N   1      32.804  12.915   6.058  0.00  0.00     0.198 C 
BRANCH  30  31
HETATM   31  O   UNK N   1      32.569  13.062   7.428  0.00  0.00    -0.398 OA
HETATM   32  H   UNK N   1      33.019  12.545   8.113  0.00  0.00     0.209 HD
ENDBRANCH  30  31
ENDBRANCH  29  30
BRANCH  29  33
HETATM   33  O   UNK N   1      35.054  12.956   5.291  0.00  0.00    -0.391 OA
HETATM   34  H   UNK N   1      35.603  13.542   5.833  0.00  0.00     0.210 HD
ENDBRANCH  29  33
ENDBRANCH  28  29
ENDBRANCH  27  28
ENDBRANCH  23  27
ENDBRANCH  22  23
ENDBRANCH  21  22
ENDBRANCH   1  21
BRANCH   1  35
HETATM   35  O   UNK N   1      36.031  15.296  11.712  0.00  0.00    -0.312 OA
BRANCH  35  36
HETATM   36  C   UNK N   1      35.662  14.428  12.684  0.00  0.00     0.259 C 
HETATM   37  O   UNK N   1      34.626  13.784  12.596  0.00  0.00    -0.265 OA
BRANCH  36  38
HETATM   38  C   UNK N   1      36.469  14.383  13.938  0.00  0.00     0.111 C 
BRANCH  38  39
HETATM   39  C   UNK N   1      36.625  12.979  14.480  0.00  0.00     0.010 C 
BRANCH  39  40
HETATM   40  C   UNK N   1      36.225  12.966  15.946  0.00  0.00     0.000 C 
BRANCH  40  41
HETATM   41  C   UNK N   1      36.415  14.335  16.578  0.00  0.00     0.000 C 
BRANCH  41  42
HETATM   42  C   UNK N   1      35.678  14.411  17.904  0.00  0.00     0.000 C 
BRANCH  42  43
HETATM   43  C   UNK N   1      34.933  13.111  18.175  0.00  0.00     0.000 C 
BRANCH  43  44
HETATM   44  C   UNK N   1      35.332  12.495  19.510  0.00  0.00     0.005 C 
BRANCH  44  45
HETATM   45  C   UNK N   1      35.807  11.068  19.301  0.00  0.00    -0.010 A 
HETATM   46  C   UNK N   1      35.423  10.141  20.443  0.00  0.00     0.010 A 
HETATM   47  C   UNK N   1      34.669  10.079  19.133  0.00  0.00    -0.010 A 
BRANCH  47  48
HETATM   48  C   UNK N   1      35.039   8.912  18.236  0.00  0.00     0.005 C 
BRANCH  48  49
HETATM   49  C   UNK N   1      36.320   9.233  17.481  0.00  0.00     0.000 C 
BRANCH  49  50
HETATM   50  C   UNK N   1      36.183   8.919  16.004  0.00  0.00     0.000 C 
BRANCH  50  51
HETATM   51  C   UNK N   1      34.983   9.665  15.455  0.00  0.00    -0.000 C 
BRANCH  51  52
HETATM   52  C   UNK N   1      35.024   9.675  13.941  0.00  0.00    -0.005 C 
HETATM   53  C   UNK N   1      33.837  10.453  13.412  0.00  0.00     0.005 C 
ENDBRANCH  51  52
ENDBRANCH  50  51
ENDBRANCH  49  50
ENDBRANCH  48  49
ENDBRANCH  47  48
ENDBRANCH  44  45
ENDBRANCH  43  44
ENDBRANCH  42  43
ENDBRANCH  41  42
ENDBRANCH  40  41
ENDBRANCH  39  40
ENDBRANCH  38  39
ENDBRANCH  36  38
ENDBRANCH  35  36
ENDBRANCH   1  35
TORSDOF 42
ENDMDL
MODEL 9
REMARK VINA RESULT:      -4.9      1.708      6.477
REMARK WARNING: 32 MAX_TORS EXCEEDED!!!
REMARK  42 active torsions:
REMARK  status: ('A' for Active; 'I' for Inactive)
REMARK    1  A    between atoms: C_5  and  C_3 
REMARK    2  A    between atoms: C_6  and  C_4 
REMARK    3  A    between atoms: C_7  and  C_5 
REMARK    4  A    between atoms: C_8  and  C_6 
REMARK    5  A    between atoms: C_9  and  C_7 
REMARK    6  A    between atoms: C_21  and  C_8 
REMARK    7  A    between atoms: C_10  and  C_9 
REMARK    8  A    between atoms: C_11  and  C_10 
REMARK    9  A    between atoms: C_12  and  C_11 
REMARK   10  A    between atoms: C_13  and  C_12 
REMARK   11  A    between atoms: C_14  and  C_13 
REMARK   12  A    between atoms: C_15  and  C_14 
REMARK   13  A    between atoms: C_16  and  C_15 
REMARK   14  A    between atoms: C_19  and  C_16 
REMARK   15  A    between atoms: C_18  and  C_17 
REMARK   16  A    between atoms: C_20  and  C_17 
REMARK   17  A    between atoms: C_22  and  C_18 
REMARK   18  A    between atoms: C_23  and  C_19 
REMARK   19  A    between atoms: C_24  and  C_20 
REMARK   20  A    between atoms: C_25  and  C_21 
REMARK   21  A    between atoms: C_26  and  C_22 
REMARK   22  A    between atoms: C_27  and  C_23 
REMARK   23  A    between atoms: C_28  and  C_24 
REMARK   24  A    between atoms: C_34  and  C_25 
REMARK   25  A    between atoms: C_35  and  C_26 
REMARK   26  A    between atoms: C_38  and  C_27 
REMARK   27  A    between atoms: C_39  and  C_28 
REMARK   28  A    between atoms: C_36  and  C_30 
REMARK   29  A    between atoms: O_40  and  C_30 
REMARK   30  A    between atoms: C_36  and  C_31 
REMARK   31  A    between atoms: O_47  and  C_31 
REMARK   32  A    between atoms: C_37  and  C_32 
REMARK   33  A    between atoms: O_46  and  C_32 
REMARK   34  A    between atoms: C_37  and  C_33 
REMARK   35  A    between atoms: O_48  and  C_33 
REMARK   36  A    between atoms: O_41  and  C_36 
REMARK   37  A    between atoms: C_37  and  O_49 
REMARK   38  A    between atoms: O_46  and  C_38 
REMARK   39  A    between atoms: O_49  and  C_39 
REMARK   40  A    between atoms: P_50  and  O_44 
REMARK   41  A    between atoms: P_50  and  O_47 
REMARK   42  A    between atoms: P_50  and  O_48 
ROOT
HETATM    1  C   UNK N   1      20.447  16.501   5.988  0.00  0.00     0.180 C 
ENDROOT
BRANCH   1   2
HETATM    2  C   UNK N   1      21.544  17.387   5.394  0.00  0.00     0.213 C 
BRANCH   2   3
HETATM    3  O   UNK N   1      21.081  18.644   5.036  0.00  0.00    -0.319 OA
BRANCH   3   4
HETATM    4  C   UNK N   1      21.630  19.444   4.084  0.00  0.00     0.258 C 
HETATM    5  O   UNK N   1      20.982  20.383   3.652  0.00  0.00    -0.265 OA
BRANCH   4   6
HETATM    6  C   UNK N   1      23.018  19.231   3.562  0.00  0.00     0.111 C 
BRANCH   6   7
HETATM    7  C   UNK N   1      23.585  20.503   2.964  0.00  0.00     0.010 C 
BRANCH   7   8
HETATM    8  C   UNK N   1      25.080  20.342   2.779  0.00  0.00     0.000 C 
BRANCH   8   9
HETATM    9  C   UNK N   1      25.729  19.915   4.087  0.00  0.00     0.000 C 
BRANCH   9  10
HETATM   10  C   UNK N   1      27.146  20.467   4.244  0.00  0.00     0.000 C 
BRANCH  10  11
HETATM   11  C   UNK N   1      28.046  19.567   5.088  0.00  0.00     0.000 C 
BRANCH  11  12
HETATM   12  C   UNK N   1      28.063  19.993   6.550  0.00  0.00     0.000 C 
BRANCH  12  13
HETATM   13  C   UNK N   1      27.823  18.806   7.463  0.00  0.00     0.000 C 
BRANCH  13  14
HETATM   14  C   UNK N   1      29.001  18.606   8.393  0.00  0.00     0.000 C 
BRANCH  14  15
HETATM   15  C   UNK N   1      29.955  17.610   7.781  0.00  0.00     0.000 C 
BRANCH  15  16
HETATM   16  C   UNK N   1      31.287  17.712   8.486  0.00  0.00     0.000 C 
BRANCH  16  17
HETATM   17  C   UNK N   1      32.396  17.493   7.483  0.00  0.00     0.000 C 
BRANCH  17  18
HETATM   18  C   UNK N   1      31.792  17.145   6.143  0.00  0.00    -0.000 C 
BRANCH  18  19
HETATM   19  C   UNK N   1      32.754  17.540   5.044  0.00  0.00    -0.005 C 
HETATM   20  C   UNK N   1      32.101  17.309   3.699  0.00  0.00     0.005 C 
ENDBRANCH  18  19
ENDBRANCH  17  18
ENDBRANCH  16  17
ENDBRANCH  15  16
ENDBRANCH  14  15
ENDBRANCH  13  14
ENDBRANCH  12  13
ENDBRANCH  11  12
ENDBRANCH  10  11
ENDBRANCH   9  10
ENDBRANCH   8   9
ENDBRANCH   7   8
ENDBRANCH   6   7
ENDBRANCH   4   6
ENDBRANCH   3   4
ENDBRANCH   2   3
ENDBRANCH   1   2
BRANCH   1  21
HETATM   21  C   UNK N   1      20.029  15.485   4.934  0.00  0.00     0.215 C 
BRANCH  21  22
HETATM   22  O   UNK N   1      21.068  14.688   4.422  0.00  0.00    -0.294 OA
BRANCH  22  23
HETATM   23  P   UNK N   1      20.352  13.720   3.142  0.00  0.00     0.393 P 
HETATM   24  O   UNK N   1      18.848  14.009   2.881  0.00  0.00    -0.631 OA
BRANCH  23  25
HETATM   25  O   UNK N   1      19.465  13.238   4.563  0.00  0.00    -0.307 OA
HETATM   26  H   UNK N   1      18.556  12.977   4.782  0.00  0.00     0.222 HD
ENDBRANCH  23  25
BRANCH  23  27
HETATM   27  O   UNK N   1      20.232  15.388   2.667  0.00  0.00    -0.294 OA
BRANCH  27  28
HETATM   28  C   UNK N   1      20.062  15.374   1.278  0.00  0.00     0.214 C 
BRANCH  28  29
HETATM   29  C   UNK N   1      19.635  16.752   0.788  0.00  0.00     0.166 C 
BRANCH  29  30
HETATM   30  C   UNK N   1      19.916  17.828   1.829  0.00  0.00     0.198 C 
BRANCH  30  31
HETATM   31  O   UNK N   1      18.734  18.480   2.190  0.00  0.00    -0.398 OA
HETATM   32  H   UNK N   1      17.850  18.191   1.915  0.00  0.00     0.209 HD
ENDBRANCH  30  31
ENDBRANCH  29  30
BRANCH  29  33
HETATM   33  O   UNK N   1      20.327  17.057  -0.382  0.00  0.00    -0.391 OA
HETATM   34  H   UNK N   1      20.196  17.878  -0.881  0.00  0.00     0.210 HD
ENDBRANCH  29  33
ENDBRANCH  28  29
ENDBRANCH  27  28
ENDBRANCH  23  27
ENDBRANCH  22  23
ENDBRANCH  21  22
ENDBRANCH   1  21
BRANCH   1  35
HETATM   35  O   UNK N   1      20.973  15.885   7.109  0.00  0.00    -0.312 OA
BRANCH  35  36
HETATM   36  C   UNK N   1      20.523  16.066   8.373  0.00  0.00     0.259 C 
HETATM   37  O   UNK N   1      20.503  17.176   8.885  0.00  0.00    -0.265 OA
BRANCH  36  38
HETATM   38  C   UNK N   1      20.191  14.859   9.187  0.00  0.00     0.111 C 
BRANCH  38  39
HETATM   39  C   UNK N   1      21.421  14.099   9.630  0.00  0.00     0.010 C 
BRANCH  39  40
HETATM   40  C   UNK N   1      20.997  12.945  10.524  0.00  0.00     0.000 C 
BRANCH  40  41
HETATM   41  C   UNK N   1      22.043  11.841  10.525  0.00  0.00     0.000 C 
BRANCH  41  42
HETATM   42  C   UNK N   1      23.411  12.411  10.855  0.00  0.00     0.000 C 
BRANCH  42  43
HETATM   43  C   UNK N   1      24.413  12.059   9.764  0.00  0.00     0.000 C 
BRANCH  43  44
HETATM   44  C   UNK N   1      23.729  11.486   8.528  0.00  0.00     0.005 C 
BRANCH  44  45
HETATM   45  C   UNK N   1      24.370  12.049   7.272  0.00  0.00    -0.010 A 
HETATM   46  C   UNK N   1      23.459  13.004   6.518  0.00  0.00     0.010 A 
HETATM   47  C   UNK N   1      24.604  13.546   7.343  0.00  0.00    -0.010 A 
BRANCH  47  48
HETATM   48  C   UNK N   1      25.819  13.984   6.544  0.00  0.00     0.005 C 
BRANCH  48  49
HETATM   49  C   UNK N   1      26.104  15.454   6.811  0.00  0.00     0.000 C 
BRANCH  49  50
HETATM   50  C   UNK N   1      26.334  16.214   5.519  0.00  0.00     0.000 C 
BRANCH  50  51
HETATM   51  C   UNK N   1      25.013  16.342   4.785  0.00  0.00    -0.000 C 
BRANCH  51  52
HETATM   52  C   UNK N   1      25.242  16.292   3.289  0.00  0.00    -0.005 C 
HETATM   53  C   UNK N   1      24.707  14.984   2.744  0.00  0.00     0.005 C 
ENDBRANCH  51  52
ENDBRANCH  50  51
ENDBRANCH  49  50
ENDBRANCH  48  49
ENDBRANCH  47  48
ENDBRANCH  44  45
ENDBRANCH  43  44
ENDBRANCH  42  43
ENDBRANCH  41  42
ENDBRANCH  40  41
ENDBRANCH  39  40
ENDBRANCH  38  39
ENDBRANCH  36  38
ENDBRANCH  35  36
ENDBRANCH   1  35
TORSDOF 42
ENDMDL
