REMARK  2 active torsions:
REMARK  status: ('A' for Active; 'I' for Inactive)
REMARK    1  A    between atoms: C_2  and  N_3 
REMARK       I    between atoms: N_3  and  C_4 
REMARK    2  A    between atoms: C_4  and  O_6 
ROOT
HETATM    1  N   UNK N   1       1.048   0.420  -0.003  0.00  0.00    -0.337 N 
HETATM    2  C   UNK N   1       2.244   1.051  -0.001  0.00  0.00     0.360 C 
HETATM    3  O   UNK N   1       2.301   2.277   0.005  0.00  0.00    -0.239 OA
HETATM    4  H   UNK N   1       1.037  -0.564  -0.008  0.00  0.00     0.164 HD
ENDROOT
BRANCH   1   5
HETATM    5  C   UNK N   1      -0.208   1.121   0.001  0.00  0.00     0.120 C 
HETATM    6  C   UNK N   1      -1.331   0.104   0.000  0.00  0.00     0.026 C 
ENDBRANCH   1   5
BRANCH   2   7
HETATM    7  O   UNK N   1       3.375   0.308  -0.004  0.00  0.00    -0.309 OA
HETATM    8  C   UNK N   1       4.634   0.861   0.002  0.00  0.00     0.215 C 
ENDBRANCH   2   7
TORSDOF 2
