MODEL 1
REMARK VINA RESULT:      -7.7      0.000      0.000
REMARK  18 active torsions:
REMARK  status: ('A' for Active; 'I' for Inactive)
REMARK    1  A    between atoms: C_13  and  C_11 
REMARK    2  A    between atoms: C_37  and  C_13 
REMARK    3  A    between atoms: C_16  and  C_15 
REMARK    4  A    between atoms: C_27  and  C_15 
REMARK    5  A    between atoms: C_35  and  C_16 
REMARK    6  A    between atoms: N_51  and  C_17 
REMARK    7  A    between atoms: C_38  and  C_21 
REMARK    8  A    between atoms: C_39  and  C_21 
REMARK    9  A    between atoms: N_51  and  C_25 
REMARK   10  A    between atoms: O_52  and  C_25 
REMARK   11  A    between atoms: C_38  and  C_27 
REMARK   12  A    between atoms: C_35  and  C_28 
REMARK   13  A    between atoms: C_37  and  C_28 
REMARK   14  A    between atoms: C_30  and  O_53 
REMARK   15  A    between atoms: C_31  and  O_54 
REMARK   16  A    between atoms: C_37  and  O_58 
REMARK   17  A    between atoms: C_38  and  O_59 
REMARK   18  A    between atoms: C_42  and  O_60 
ROOT
HETATM    1  C   UNK N   1      23.607  15.258   4.559  0.00  0.00     0.012 C 
HETATM    2  C   UNK N   1      22.764  11.853   8.906  0.00  0.00     0.021 C 
HETATM    3  C   UNK N   1      22.666  14.302   1.456  0.00  0.00     0.028 C 
HETATM    4  C   UNK N   1      22.252  13.177   0.580  0.00  0.00    -0.022 C 
HETATM    5  C   UNK N   1      22.820  13.621   2.826  0.00  0.00     0.010 C 
HETATM    6  C   UNK N   1      23.168  12.581  -0.183  0.00  0.00     0.052 C 
HETATM    7  C   UNK N   1      20.566  16.297   8.735  0.00  0.00     0.064 C 
HETATM    8  C   UNK N   1      20.639  13.926   7.871  0.00  0.00     0.110 C 
HETATM    9  C   UNK N   1      18.838  16.339   6.806  0.00  0.00     0.142 C 
HETATM   10  C   UNK N   1      21.868   9.797   6.006  0.00  0.00     0.172 A 
HETATM   11  C   UNK N   1      23.955   9.326  -0.971  0.00  0.00     0.178 A 
HETATM   12  C   UNK N   1      24.542   7.797   2.793  0.00  0.00     0.178 A 
HETATM   13  C   UNK N   1      22.435  14.388   4.100  0.00  0.00     0.011 C 
HETATM   14  C   UNK N   1      22.805  12.460   7.516  0.00  0.00     0.086 C 
HETATM   15  C   UNK N   1      21.468  15.164   8.252  0.00  0.00     0.127 C 
HETATM   16  C   UNK N   1      19.835  17.128   7.669  0.00  0.00     0.130 C 
HETATM   17  C   UNK N   1      23.185  10.207   6.097  0.00  0.00     0.064 A 
HETATM   18  C   UNK N   1      23.018   9.166   0.021  0.00  0.00     0.108 A 
HETATM   19  C   UNK N   1      23.306   8.137   3.305  0.00  0.00     0.108 A 
HETATM   20  C   UNK N   1      21.390  12.862   7.110  0.00  0.00     0.136 C 
HETATM   21  C   UNK N   1      21.099  15.137   3.972  0.00  0.00     0.138 C 
HETATM   22  C   UNK N   1      22.992  11.190  -0.622  0.00  0.00     0.147 A 
HETATM   23  C   UNK N   1      19.328  15.585   5.590  0.00  0.00     0.261 C 
HETATM   24  C   UNK N   1      23.631  11.593   6.505  0.00  0.00     0.183 C 
HETATM   25  C   UNK N   1      23.235   8.310   1.190  0.00  0.00     0.177 A 
HETATM   26  C   UNK N   1      23.039   8.664   4.635  0.00  0.00     0.176 A 
HETATM   27  N   UNK N   1      22.388  10.339   0.223  0.00  0.00    -0.332 N 
ATOM     28  HN  UNK N   1      21.625  10.536   0.869  1.00  0.00     0.168 HD
HETATM   29  N   UNK N   1      23.914   9.500   5.218  0.00  0.00    -0.334 N 
ATOM     30  HN  UNK N   1      24.914   9.581   5.033  1.00  0.00     0.168 HD
HETATM   31  N   UNK N   1      22.496   8.474   2.289  0.00  0.00    -0.330 N 
ATOM     32  HN  UNK N   1      21.526   8.786   2.345  1.00  0.00     0.168 HD
HETATM   33  O   UNK N   1      20.850  12.366   6.135  0.00  0.00    -0.297 OA
HETATM   34  O   UNK N   1      18.497  14.998   4.913  0.00  0.00    -0.265 OA
HETATM   35  O   UNK N   1      23.911  10.589  -1.337  0.00  0.00    -0.303 OA
HETATM   36  O   UNK N   1      21.823   8.857   5.093  0.00  0.00    -0.302 OA
HETATM   37  O   UNK N   1      24.454   7.893   1.484  0.00  0.00    -0.301 OA
HETATM   38  O   UNK N   1      20.634  15.641   5.186  0.00  0.00    -0.316 OA
ENDROOT
BRANCH  21  39
HETATM   39  C   UNK N   1      21.463  16.289   3.098  0.00  0.00     0.065 C 
BRANCH  39  40
HETATM   40  C   UNK N   1      20.449  17.287   2.700  0.00  0.00     0.127 C 
BRANCH  40  41
HETATM   41  C   UNK N   1      20.523  18.636   3.438  0.00  0.00     0.011 C 
HETATM   42  C   UNK N   1      20.006  19.786   2.586  0.00  0.00     0.012 C 
BRANCH  41  43
HETATM   43  C   UNK N   1      21.979  18.916   3.815  0.00  0.00     0.014 C 
BRANCH  43  44
HETATM   44  C   UNK N   1      22.597  20.101   3.045  0.00  0.00     0.079 C 
BRANCH  44  45
HETATM   45  C   UNK N   1      24.097  20.223   3.061  0.00  0.00     0.133 C 
HETATM   46  O   UNK N   1      24.646  20.957   2.252  0.00  0.00    -0.297 OA
BRANCH  45  47
HETATM   47  C   UNK N   1      24.927  19.406   4.012  0.00  0.00     0.080 C 
HETATM   48  C   UNK N   1      25.439  18.165   3.301  0.00  0.00     0.020 C 
BRANCH  47  49
HETATM   49  C   UNK N   1      26.124  20.197   4.596  0.00  0.00     0.135 C 
BRANCH  49  50
HETATM   50  C   UNK N   1      27.495  19.711   4.070  0.00  0.00     0.061 C 
BRANCH  50  51
HETATM   51  C   UNK N   1      28.272  19.176   5.232  0.00  0.00    -0.007 C 
HETATM   52  C   UNK N   1      28.556  17.866   5.266  0.00  0.00     0.083 C 
BRANCH  52  53
HETATM   53  N   UNK N   1      29.065  17.218   6.428  0.00  0.00    -0.374 N 
HETATM   54  C   UNK N   1      30.068  16.202   6.262  0.00  0.00     0.151 C 
BRANCH  53  55
HETATM   55  C   UNK N   1      28.444  17.358   7.724  0.00  0.00     0.288 C 
BRANCH  55  56
HETATM   56  O   UNK N   1      27.168  16.797   7.705  0.00  0.00    -0.382 OA
HETATM   57  H   UNK N   1      26.521  16.796   8.427  0.00  0.00     0.211 HD
ENDBRANCH  55  56
ENDBRANCH  53  55
ENDBRANCH  52  53
ENDBRANCH  50  51
ENDBRANCH  49  50
BRANCH  49  58
HETATM   58  O   UNK N   1      26.018  20.375   6.015  0.00  0.00    -0.390 OA
HETATM   59  C   UNK N   1      26.371  21.672   6.452  0.00  0.00     0.202 C 
ENDBRANCH  49  58
ENDBRANCH  47  49
ENDBRANCH  45  47
ENDBRANCH  44  45
ENDBRANCH  43  44
ENDBRANCH  41  43
ENDBRANCH  40  41
BRANCH  40  60
HETATM   60  O   UNK N   1      20.407  17.494   1.301  0.00  0.00    -0.390 OA
HETATM   61  C   UNK N   1      19.767  16.404   0.693  0.00  0.00     0.202 C 
ENDBRANCH  40  60
ENDBRANCH  39  40
ENDBRANCH  21  39
BRANCH  16  62
HETATM   62  O   UNK N   1      20.735  17.855   6.890  0.00  0.00    -0.395 OA
HETATM   63  H   UNK N   1      21.273  17.841   6.083  0.00  0.00     0.210 HD
ENDBRANCH  16  62
BRANCH  15  64
HETATM   64  O   UNK N   1      22.285  15.612   7.213  0.00  0.00    -0.395 OA
HETATM   65  H   UNK N   1      23.150  15.367   6.849  0.00  0.00     0.210 HD
ENDBRANCH  15  64
BRANCH  24  66
HETATM   66  O   UNK N   1      25.025  11.668   6.736  0.00  0.00    -0.384 OA
HETATM   67  C   UNK N   1      25.486  12.968   6.500  0.00  0.00     0.202 C 
ENDBRANCH  24  66
TORSDOF 18
ENDMDL
MODEL 2
REMARK VINA RESULT:      -7.5      3.332      6.805
REMARK  18 active torsions:
REMARK  status: ('A' for Active; 'I' for Inactive)
REMARK    1  A    between atoms: C_13  and  C_11 
REMARK    2  A    between atoms: C_37  and  C_13 
REMARK    3  A    between atoms: C_16  and  C_15 
REMARK    4  A    between atoms: C_27  and  C_15 
REMARK    5  A    between atoms: C_35  and  C_16 
REMARK    6  A    between atoms: N_51  and  C_17 
REMARK    7  A    between atoms: C_38  and  C_21 
REMARK    8  A    between atoms: C_39  and  C_21 
REMARK    9  A    between atoms: N_51  and  C_25 
REMARK   10  A    between atoms: O_52  and  C_25 
REMARK   11  A    between atoms: C_38  and  C_27 
REMARK   12  A    between atoms: C_35  and  C_28 
REMARK   13  A    between atoms: C_37  and  C_28 
REMARK   14  A    between atoms: C_30  and  O_53 
REMARK   15  A    between atoms: C_31  and  O_54 
REMARK   16  A    between atoms: C_37  and  O_58 
REMARK   17  A    between atoms: C_38  and  O_59 
REMARK   18  A    between atoms: C_42  and  O_60 
ROOT
HETATM    1  C   UNK N   1      19.949  11.967   5.174  0.00  0.00     0.012 C 
HETATM    2  C   UNK N   1      17.936   9.787   0.441  0.00  0.00     0.021 C 
HETATM    3  C   UNK N   1      22.869  10.835   6.449  0.00  0.00     0.028 C 
HETATM    4  C   UNK N   1      23.895   9.761   6.428  0.00  0.00    -0.022 C 
HETATM    5  C   UNK N   1      21.889  10.384   5.351  0.00  0.00     0.010 C 
HETATM    6  C   UNK N   1      23.830   8.789   7.338  0.00  0.00     0.052 C 
HETATM    7  C   UNK N   1      19.133  14.596   0.681  0.00  0.00     0.064 C 
HETATM    8  C   UNK N   1      19.940  12.208   0.538  0.00  0.00     0.110 C 
HETATM    9  C   UNK N   1      21.695  14.842   0.972  0.00  0.00     0.142 C 
HETATM   10  C   UNK N   1      20.806   7.647   1.231  0.00  0.00     0.172 A 
HETATM   11  C   UNK N   1      24.173   5.366   7.291  0.00  0.00     0.178 A 
HETATM   12  C   UNK N   1      21.328   4.398   4.494  0.00  0.00     0.178 A 
HETATM   13  C   UNK N   1      21.201  11.438   4.472  0.00  0.00     0.011 C 
HETATM   14  C   UNK N   1      18.797  10.104   1.650  0.00  0.00     0.086 C 
HETATM   15  C   UNK N   1      18.946  13.174   1.204  0.00  0.00     0.127 C 
HETATM   16  C   UNK N   1      20.299  15.417   1.253  0.00  0.00     0.130 C 
HETATM   17  C   UNK N   1      19.755   7.637   2.129  0.00  0.00     0.064 A 
HETATM   18  C   UNK N   1      24.178   5.677   5.953  0.00  0.00     0.108 A 
HETATM   19  C   UNK N   1      21.823   5.187   3.474  0.00  0.00     0.108 A 
HETATM   20  C   UNK N   1      20.045  10.850   1.185  0.00  0.00     0.136 C 
HETATM   21  C   UNK N   1      22.163  12.531   3.978  0.00  0.00     0.138 C 
HETATM   22  C   UNK N   1      24.414   7.468   7.069  0.00  0.00     0.147 A 
HETATM   23  C   UNK N   1      22.266  13.777   1.881  0.00  0.00     0.261 C 
HETATM   24  C   UNK N   1      18.999   8.865   2.586  0.00  0.00     0.183 C 
HETATM   25  C   UNK N   1      23.312   5.009   4.977  0.00  0.00     0.177 A 
HETATM   26  C   UNK N   1      21.039   5.990   2.548  0.00  0.00     0.176 A 
HETATM   27  N   UNK N   1      24.359   7.004   5.811  0.00  0.00    -0.332 N 
ATOM     28  HN  UNK N   1      24.438   7.535   4.944  1.00  0.00     0.168 HD
HETATM   29  N   UNK N   1      19.917   6.600   2.967  0.00  0.00    -0.334 N 
ATOM     30  HN  UNK N   1      19.320   6.333   3.749  1.00  0.00     0.168 HD
HETATM   31  N   UNK N   1      23.066   5.579   3.796  0.00  0.00    -0.330 N 
ATOM     32  HN  UNK N   1      23.686   6.182   3.255  1.00  0.00     0.168 HD
HETATM   33  O   UNK N   1      21.159  10.387   1.368  0.00  0.00    -0.297 OA
HETATM   34  O   UNK N   1      23.393  13.370   1.641  0.00  0.00    -0.265 OA
HETATM   35  O   UNK N   1      24.316   6.498   7.946  0.00  0.00    -0.303 OA
HETATM   36  O   UNK N   1      21.572   6.625   1.530  0.00  0.00    -0.302 OA
HETATM   37  O   UNK N   1      22.283   4.291   5.393  0.00  0.00    -0.301 OA
HETATM   38  O   UNK N   1      21.604  13.354   3.001  0.00  0.00    -0.316 OA
ENDROOT
BRANCH  21  39
HETATM   39  C   UNK N   1      22.376  13.346   5.208  0.00  0.00     0.065 C 
BRANCH  39  40
HETATM   40  C   UNK N   1      23.489  14.316   5.291  0.00  0.00     0.127 C 
BRANCH  40  41
HETATM   41  C   UNK N   1      23.152  15.749   4.842  0.00  0.00     0.011 C 
HETATM   42  C   UNK N   1      24.306  16.405   4.099  0.00  0.00     0.012 C 
BRANCH  41  43
HETATM   43  C   UNK N   1      22.817  16.590   6.075  0.00  0.00     0.014 C 
BRANCH  43  44
HETATM   44  C   UNK N   1      21.609  17.527   5.871  0.00  0.00     0.079 C 
BRANCH  44  45
HETATM   45  C   UNK N   1      20.638  17.654   7.015  0.00  0.00     0.133 C 
HETATM   46  O   UNK N   1      20.717  18.618   7.762  0.00  0.00    -0.297 OA
BRANCH  45  47
HETATM   47  C   UNK N   1      19.620  16.581   7.286  0.00  0.00     0.080 C 
HETATM   48  C   UNK N   1      19.567  15.624   6.107  0.00  0.00     0.020 C 
BRANCH  47  49
HETATM   49  C   UNK N   1      19.913  15.788   8.582  0.00  0.00     0.135 C 
BRANCH  49  50
HETATM   50  C   UNK N   1      20.600  14.425   8.326  0.00  0.00     0.061 C 
BRANCH  50  51
HETATM   51  C   UNK N   1      21.657  14.236   9.369  0.00  0.00    -0.007 C 
HETATM   52  C   UNK N   1      22.491  13.193   9.257  0.00  0.00     0.083 C 
BRANCH  52  53
HETATM   53  N   UNK N   1      23.359  12.783  10.310  0.00  0.00    -0.374 N 
HETATM   54  C   UNK N   1      24.774  12.765  10.063  0.00  0.00     0.151 C 
BRANCH  53  55
HETATM   55  C   UNK N   1      22.867  12.152  11.512  0.00  0.00     0.288 C 
BRANCH  55  56
HETATM   56  O   UNK N   1      23.748  12.384  12.567  0.00  0.00    -0.382 OA
HETATM   57  H   UNK N   1      23.567  12.881  13.380  0.00  0.00     0.211 HD
ENDBRANCH  55  56
ENDBRANCH  53  55
ENDBRANCH  52  53
ENDBRANCH  50  51
ENDBRANCH  49  50
BRANCH  49  58
HETATM   58  O   UNK N   1      18.791  15.770   9.475  0.00  0.00    -0.390 OA
HETATM   59  C   UNK N   1      17.854  16.799   9.228  0.00  0.00     0.202 C 
ENDBRANCH  49  58
ENDBRANCH  47  49
ENDBRANCH  45  47
ENDBRANCH  44  45
ENDBRANCH  43  44
ENDBRANCH  41  43
ENDBRANCH  40  41
BRANCH  40  60
HETATM   60  O   UNK N   1      24.105  14.331   6.564  0.00  0.00    -0.390 OA
HETATM   61  C   UNK N   1      25.335  13.662   6.490  0.00  0.00     0.202 C 
ENDBRANCH  40  60
ENDBRANCH  39  40
ENDBRANCH  21  39
BRANCH  16  62
HETATM   62  O   UNK N   1      20.109  15.685   2.609  0.00  0.00    -0.395 OA
HETATM   63  H   UNK N   1      19.519  16.098   3.258  0.00  0.00     0.210 HD
ENDBRANCH  16  62
BRANCH  15  64
HETATM   64  O   UNK N   1      19.027  13.162   2.597  0.00  0.00    -0.395 OA
HETATM   65  H   UNK N   1      19.458  13.703   3.277  0.00  0.00     0.210 HD
ENDBRANCH  15  64
BRANCH  24  66
HETATM   66  O   UNK N   1      17.834   8.542   3.321  0.00  0.00    -0.384 OA
HETATM   67  C   UNK N   1      17.344   9.677   3.977  0.00  0.00     0.202 C 
ENDBRANCH  24  66
TORSDOF 18
ENDMDL
MODEL 3
REMARK VINA RESULT:      -7.3      7.598     13.462
REMARK  18 active torsions:
REMARK  status: ('A' for Active; 'I' for Inactive)
REMARK    1  A    between atoms: C_13  and  C_11 
REMARK    2  A    between atoms: C_37  and  C_13 
REMARK    3  A    between atoms: C_16  and  C_15 
REMARK    4  A    between atoms: C_27  and  C_15 
REMARK    5  A    between atoms: C_35  and  C_16 
REMARK    6  A    between atoms: N_51  and  C_17 
REMARK    7  A    between atoms: C_38  and  C_21 
REMARK    8  A    between atoms: C_39  and  C_21 
REMARK    9  A    between atoms: N_51  and  C_25 
REMARK   10  A    between atoms: O_52  and  C_25 
REMARK   11  A    between atoms: C_38  and  C_27 
REMARK   12  A    between atoms: C_35  and  C_28 
REMARK   13  A    between atoms: C_37  and  C_28 
REMARK   14  A    between atoms: C_30  and  O_53 
REMARK   15  A    between atoms: C_31  and  O_54 
REMARK   16  A    between atoms: C_37  and  O_58 
REMARK   17  A    between atoms: C_38  and  O_59 
REMARK   18  A    between atoms: C_42  and  O_60 
ROOT
HETATM    1  C   UNK N   1      32.554  13.393   8.446  0.00  0.00     0.012 C 
HETATM    2  C   UNK N   1      34.222   8.690   5.934  0.00  0.00     0.021 C 
HETATM    3  C   UNK N   1      34.524  14.858  10.770  0.00  0.00     0.028 C 
HETATM    4  C   UNK N   1      35.688  14.705  11.680  0.00  0.00    -0.022 C 
HETATM    5  C   UNK N   1      34.493  13.506  10.036  0.00  0.00     0.010 C 
HETATM    6  C   UNK N   1      35.473  14.385  12.956  0.00  0.00     0.052 C 
HETATM    7  C   UNK N   1      33.447  12.812   3.285  0.00  0.00     0.064 C 
HETATM    8  C   UNK N   1      34.937  11.572   4.902  0.00  0.00     0.110 C 
HETATM    9  C   UNK N   1      35.209  14.601   3.922  0.00  0.00     0.142 C 
HETATM   10  C   UNK N   1      36.743   9.222   8.542  0.00  0.00     0.172 A 
HETATM   11  C   UNK N   1      36.891  12.200  15.204  0.00  0.00     0.178 A 
HETATM   12  C   UNK N   1      36.481   8.677  13.137  0.00  0.00     0.178 A 
HETATM   13  C   UNK N   1      34.079  13.457   8.558  0.00  0.00     0.011 C 
HETATM   14  C   UNK N   1      34.146   9.928   6.809  0.00  0.00     0.086 C 
HETATM   15  C   UNK N   1      33.490  11.945   4.540  0.00  0.00     0.127 C 
HETATM   16  C   UNK N   1      33.781  14.304   3.440  0.00  0.00     0.130 C 
HETATM   17  C   UNK N   1      35.448   8.987   8.966  0.00  0.00     0.064 A 
HETATM   18  C   UNK N   1      37.505  11.846  14.027  0.00  0.00     0.108 A 
HETATM   19  C   UNK N   1      37.150   9.074  11.996  0.00  0.00     0.108 A 
HETATM   20  C   UNK N   1      35.121  10.972   6.273  0.00  0.00     0.136 C 
HETATM   21  C   UNK N   1      34.732  14.562   7.712  0.00  0.00     0.138 C 
HETATM   22  C   UNK N   1      36.505  13.698  13.743  0.00  0.00     0.147 A 
HETATM   23  C   UNK N   1      35.520  14.587   5.402  0.00  0.00     0.261 C 
HETATM   24  C   UNK N   1      34.212   9.590   8.337  0.00  0.00     0.183 C 
HETATM   25  C   UNK N   1      37.569  10.462  13.548  0.00  0.00     0.177 A 
HETATM   26  C   UNK N   1      36.768   8.776  10.624  0.00  0.00     0.176 A 
HETATM   27  N   UNK N   1      37.286  12.808  13.110  0.00  0.00    -0.332 N 
ATOM     28  HN  UNK N   1      37.634  12.850  12.153  1.00  0.00     0.168 HD
HETATM   29  N   UNK N   1      35.470   8.723  10.282  0.00  0.00    -0.334 N 
ATOM     30  HN  UNK N   1      34.675   8.525  10.889  1.00  0.00     0.168 HD
HETATM   31  N   UNK N   1      37.819  10.208  12.262  0.00  0.00    -0.330 N 
ATOM     32  HN  UNK N   1      38.393  10.755  11.620  1.00  0.00     0.168 HD
HETATM   33  O   UNK N   1      36.045  11.380   6.958  0.00  0.00    -0.297 OA
HETATM   34  O   UNK N   1      36.661  14.860   5.745  0.00  0.00    -0.265 OA
HETATM   35  O   UNK N   1      36.281  13.345  14.986  0.00  0.00    -0.303 OA
HETATM   36  O   UNK N   1      37.517   9.091   9.593  0.00  0.00    -0.302 OA
HETATM   37  O   UNK N   1      36.781   9.544  14.079  0.00  0.00    -0.301 OA
HETATM   38  O   UNK N   1      34.546  14.387   6.342  0.00  0.00    -0.316 OA
ENDROOT
BRANCH  21  39
HETATM   39  C   UNK N   1      33.975  15.775   8.135  0.00  0.00     0.065 C 
BRANCH  39  40
HETATM   40  C   UNK N   1      33.549  16.785   7.143  0.00  0.00     0.127 C 
BRANCH  40  41
HETATM   41  C   UNK N   1      32.137  17.361   7.351  0.00  0.00     0.011 C 
HETATM   42  C   UNK N   1      31.471  16.814   8.604  0.00  0.00     0.012 C 
BRANCH  41  43
HETATM   43  C   UNK N   1      31.273  17.005   6.139  0.00  0.00     0.014 C 
BRANCH  43  44
HETATM   44  C   UNK N   1      30.012  16.193   6.499  0.00  0.00     0.079 C 
BRANCH  44  45
HETATM   45  C   UNK N   1      29.692  15.003   5.634  0.00  0.00     0.133 C 
HETATM   46  O   UNK N   1      30.435  14.032   5.655  0.00  0.00    -0.297 OA
BRANCH  45  47
HETATM   47  C   UNK N   1      28.512  15.020   4.703  0.00  0.00     0.080 C 
HETATM   48  C   UNK N   1      27.320  14.368   5.384  0.00  0.00     0.020 C 
BRANCH  47  49
HETATM   49  C   UNK N   1      28.128  16.448   4.246  0.00  0.00     0.135 C 
BRANCH  49  50
HETATM   50  C   UNK N   1      26.637  16.787   4.479  0.00  0.00     0.061 C 
BRANCH  50  51
HETATM   51  C   UNK N   1      26.568  18.038   5.296  0.00  0.00    -0.007 C 
HETATM   52  C   UNK N   1      27.694  18.502   5.857  0.00  0.00     0.083 C 
BRANCH  52  53
HETATM   53  N   UNK N   1      27.697  19.529   6.845  0.00  0.00    -0.374 N 
HETATM   54  C   UNK N   1      27.399  20.874   6.436  0.00  0.00     0.151 C 
BRANCH  53  55
HETATM   55  C   UNK N   1      28.229  19.321   8.171  0.00  0.00     0.288 C 
BRANCH  55  56
HETATM   56  O   UNK N   1      27.525  18.303   8.813  0.00  0.00    -0.382 OA
HETATM   57  H   UNK N   1      27.898  17.574   9.332  0.00  0.00     0.211 HD
ENDBRANCH  55  56
ENDBRANCH  53  55
ENDBRANCH  52  53
ENDBRANCH  50  51
ENDBRANCH  49  50
BRANCH  49  58
HETATM   58  O   UNK N   1      28.653  16.764   2.949  0.00  0.00    -0.390 OA
HETATM   59  C   UNK N   1      29.871  16.111   2.656  0.00  0.00     0.202 C 
ENDBRANCH  49  58
ENDBRANCH  47  49
ENDBRANCH  45  47
ENDBRANCH  44  45
ENDBRANCH  43  44
ENDBRANCH  41  43
ENDBRANCH  40  41
BRANCH  40  60
HETATM   60  O   UNK N   1      34.489  17.832   6.993  0.00  0.00    -0.390 OA
HETATM   61  C   UNK N   1      34.693  18.451   8.234  0.00  0.00     0.202 C 
ENDBRANCH  40  60
ENDBRANCH  39  40
ENDBRANCH  21  39
BRANCH  16  62
HETATM   62  O   UNK N   1      32.823  14.959   4.214  0.00  0.00    -0.395 OA
HETATM   63  H   UNK N   1      32.436  15.026   5.101  0.00  0.00     0.210 HD
ENDBRANCH  16  62
BRANCH  15  64
HETATM   64  O   UNK N   1      32.815  12.579   5.584  0.00  0.00    -0.395 OA
HETATM   65  H   UNK N   1      32.343  12.299   6.383  0.00  0.00     0.210 HD
ENDBRANCH  15  64
BRANCH  24  66
HETATM   66  O   UNK N   1      33.018   9.001   8.816  0.00  0.00    -0.384 OA
HETATM   67  C   UNK N   1      32.336   9.896   9.648  0.00  0.00     0.202 C 
ENDBRANCH  24  66
TORSDOF 18
ENDMDL
MODEL 4
REMARK VINA RESULT:      -7.3      5.457     10.048
REMARK  18 active torsions:
REMARK  status: ('A' for Active; 'I' for Inactive)
REMARK    1  A    between atoms: C_13  and  C_11 
REMARK    2  A    between atoms: C_37  and  C_13 
REMARK    3  A    between atoms: C_16  and  C_15 
REMARK    4  A    between atoms: C_27  and  C_15 
REMARK    5  A    between atoms: C_35  and  C_16 
REMARK    6  A    between atoms: N_51  and  C_17 
REMARK    7  A    between atoms: C_38  and  C_21 
REMARK    8  A    between atoms: C_39  and  C_21 
REMARK    9  A    between atoms: N_51  and  C_25 
REMARK   10  A    between atoms: O_52  and  C_25 
REMARK   11  A    between atoms: C_38  and  C_27 
REMARK   12  A    between atoms: C_35  and  C_28 
REMARK   13  A    between atoms: C_37  and  C_28 
REMARK   14  A    between atoms: C_30  and  O_53 
REMARK   15  A    between atoms: C_31  and  O_54 
REMARK   16  A    between atoms: C_37  and  O_58 
REMARK   17  A    between atoms: C_38  and  O_59 
REMARK   18  A    between atoms: C_42  and  O_60 
ROOT
HETATM    1  C   UNK N   1      34.451  13.786   5.063  0.00  0.00     0.012 C 
HETATM    2  C   UNK N   1      35.396  12.586  10.436  0.00  0.00     0.021 C 
HETATM    3  C   UNK N   1      31.663  12.633   3.538  0.00  0.00     0.028 C 
HETATM    4  C   UNK N   1      30.526  11.678   3.594  0.00  0.00    -0.022 C 
HETATM    5  C   UNK N   1      32.390  12.366   4.867  0.00  0.00     0.010 C 
HETATM    6  C   UNK N   1      30.621  10.523   2.936  0.00  0.00     0.052 C 
HETATM    7  C   UNK N   1      34.836  17.294   8.976  0.00  0.00     0.064 C 
HETATM    8  C   UNK N   1      33.738  15.075   9.465  0.00  0.00     0.110 C 
HETATM    9  C   UNK N   1      32.403  17.673   8.172  0.00  0.00     0.142 C 
HETATM   10  C   UNK N   1      32.457  10.561   9.598  0.00  0.00     0.172 A 
HETATM   11  C   UNK N   1      29.869   7.239   3.637  0.00  0.00     0.178 A 
HETATM   12  C   UNK N   1      32.086   6.707   7.051  0.00  0.00     0.178 A 
HETATM   13  C   UNK N   1      33.048  13.534   5.618  0.00  0.00     0.011 C 
HETATM   14  C   UNK N   1      34.786  12.688   9.050  0.00  0.00     0.086 C 
HETATM   15  C   UNK N   1      34.934  15.781   8.806  0.00  0.00     0.127 C 
HETATM   16  C   UNK N   1      33.885  18.055   8.039  0.00  0.00     0.130 C 
HETATM   17  C   UNK N   1      33.631  10.262   8.931  0.00  0.00     0.064 A 
HETATM   18  C   UNK N   1      29.684   7.846   4.856  0.00  0.00     0.108 A 
HETATM   19  C   UNK N   1      31.531   7.745   7.773  0.00  0.00     0.108 A 
HETATM   20  C   UNK N   1      33.577  13.618   9.110  0.00  0.00     0.136 C 
HETATM   21  C   UNK N   1      32.156  14.785   5.685  0.00  0.00     0.138 C 
HETATM   22  C   UNK N   1      29.848   9.349   3.364  0.00  0.00     0.147 A 
HETATM   23  C   UNK N   1      31.864  16.479   7.417  0.00  0.00     0.261 C 
HETATM   24  C   UNK N   1      34.592  11.289   8.374  0.00  0.00     0.183 C 
HETATM   25  C   UNK N   1      30.294   7.350   6.093  0.00  0.00     0.177 A 
HETATM   26  C   UNK N   1      32.245   8.671   8.638  0.00  0.00     0.176 A 
HETATM   27  N   UNK N   1      29.642   9.180   4.680  0.00  0.00    -0.332 N 
ATOM     28  HN  UNK N   1      29.488   9.900   5.386  1.00  0.00     0.168 HD
HETATM   29  N   UNK N   1      33.484   9.078   8.315  0.00  0.00    -0.334 N 
ATOM     30  HN  UNK N   1      34.163   8.593   7.730  1.00  0.00     0.168 HD
HETATM   31  N   UNK N   1      30.412   8.152   7.152  0.00  0.00    -0.330 N 
ATOM     32  HN  UNK N   1      29.789   8.910   7.431  1.00  0.00     0.168 HD
HETATM   33  O   UNK N   1      32.460  13.217   8.826  0.00  0.00    -0.297 OA
HETATM   34  O   UNK N   1      30.673  16.229   7.526  0.00  0.00    -0.265 OA
HETATM   35  O   UNK N   1      29.970   8.200   2.744  0.00  0.00    -0.303 OA
HETATM   36  O   UNK N   1      31.633   9.563   9.384  0.00  0.00    -0.302 OA
HETATM   37  O   UNK N   1      31.284   6.475   6.034  0.00  0.00    -0.301 OA
HETATM   38  O   UNK N   1      32.644  15.760   6.553  0.00  0.00    -0.316 OA
ENDROOT
BRANCH  21  39
HETATM   39  C   UNK N   1      32.244  15.312   4.293  0.00  0.00     0.065 C 
BRANCH  39  40
HETATM   40  C   UNK N   1      31.165  16.154   3.733  0.00  0.00     0.127 C 
BRANCH  40  41
HETATM   41  C   UNK N   1      29.733  15.670   4.021  0.00  0.00     0.011 C 
HETATM   42  C   UNK N   1      29.030  15.173   2.767  0.00  0.00     0.012 C 
BRANCH  41  43
HETATM   43  C   UNK N   1      28.927  16.830   4.611  0.00  0.00     0.014 C 
BRANCH  43  44
HETATM   44  C   UNK N   1      27.756  16.373   5.505  0.00  0.00     0.079 C 
BRANCH  44  45
HETATM   45  C   UNK N   1      26.373  16.452   4.917  0.00  0.00     0.133 C 
HETATM   46  O   UNK N   1      26.020  17.479   4.355  0.00  0.00    -0.297 OA
BRANCH  45  47
HETATM   47  C   UNK N   1      25.403  15.313   5.069  0.00  0.00     0.080 C 
HETATM   48  C   UNK N   1      26.065  14.022   4.620  0.00  0.00     0.020 C 
BRANCH  47  49
HETATM   49  C   UNK N   1      24.888  15.153   6.520  0.00  0.00     0.135 C 
BRANCH  49  50
HETATM   50  C   UNK N   1      25.237  13.782   7.147  0.00  0.00     0.061 C 
BRANCH  50  51
HETATM   51  C   UNK N   1      24.125  13.400   8.073  0.00  0.00    -0.007 C 
HETATM   52  C   UNK N   1      24.435  12.954   9.299  0.00  0.00     0.083 C 
BRANCH  52  53
HETATM   53  N   UNK N   1      23.480  12.337  10.159  0.00  0.00    -0.374 N 
HETATM   54  C   UNK N   1      22.115  12.252   9.719  0.00  0.00     0.151 C 
BRANCH  53  55
HETATM   55  C   UNK N   1      23.774  12.027  11.538  0.00  0.00     0.288 C 
BRANCH  55  56
HETATM   56  O   UNK N   1      25.102  12.336  11.825  0.00  0.00    -0.382 OA
HETATM   57  H   UNK N   1      25.890  12.008  11.366  0.00  0.00     0.211 HD
ENDBRANCH  55  56
ENDBRANCH  53  55
ENDBRANCH  52  53
ENDBRANCH  50  51
ENDBRANCH  49  50
BRANCH  49  58
HETATM   58  O   UNK N   1      23.528  15.585   6.666  0.00  0.00    -0.390 OA
HETATM   59  C   UNK N   1      22.804  15.599   5.452  0.00  0.00     0.202 C 
ENDBRANCH  49  58
ENDBRANCH  47  49
ENDBRANCH  45  47
ENDBRANCH  44  45
ENDBRANCH  43  44
ENDBRANCH  41  43
ENDBRANCH  40  41
BRANCH  40  60
HETATM   60  O   UNK N   1      31.303  17.518   4.078  0.00  0.00    -0.390 OA
HETATM   61  C   UNK N   1      32.616  17.932   3.811  0.00  0.00     0.202 C 
ENDBRANCH  40  60
ENDBRANCH  39  40
ENDBRANCH  21  39
BRANCH  16  62
HETATM   62  O   UNK N   1      34.322  17.991   6.715  0.00  0.00    -0.395 OA
HETATM   63  H   UNK N   1      34.953  17.570   6.111  0.00  0.00     0.210 HD
ENDBRANCH  16  62
BRANCH  15  64
HETATM   64  O   UNK N   1      35.079  15.458   7.456  0.00  0.00    -0.395 OA
HETATM   65  H   UNK N   1      34.527  15.049   6.772  0.00  0.00     0.210 HD
ENDBRANCH  15  64
BRANCH  24  66
HETATM   66  O   UNK N   1      35.814  10.714   7.951  0.00  0.00    -0.384 OA
HETATM   67  C   UNK N   1      36.014  10.950   6.587  0.00  0.00     0.202 C 
ENDBRANCH  24  66
TORSDOF 18
ENDMDL
MODEL 5
REMARK VINA RESULT:      -7.2      4.353      8.808
REMARK  18 active torsions:
REMARK  status: ('A' for Active; 'I' for Inactive)
REMARK    1  A    between atoms: C_13  and  C_11 
REMARK    2  A    between atoms: C_37  and  C_13 
REMARK    3  A    between atoms: C_16  and  C_15 
REMARK    4  A    between atoms: C_27  and  C_15 
REMARK    5  A    between atoms: C_35  and  C_16 
REMARK    6  A    between atoms: N_51  and  C_17 
REMARK    7  A    between atoms: C_38  and  C_21 
REMARK    8  A    between atoms: C_39  and  C_21 
REMARK    9  A    between atoms: N_51  and  C_25 
REMARK   10  A    between atoms: O_52  and  C_25 
REMARK   11  A    between atoms: C_38  and  C_27 
REMARK   12  A    between atoms: C_35  and  C_28 
REMARK   13  A    between atoms: C_37  and  C_28 
REMARK   14  A    between atoms: C_30  and  O_53 
REMARK   15  A    between atoms: C_31  and  O_54 
REMARK   16  A    between atoms: C_37  and  O_58 
REMARK   17  A    between atoms: C_38  and  O_59 
REMARK   18  A    between atoms: C_42  and  O_60 
ROOT
HETATM    1  C   UNK N   1      29.452  14.424   2.720  0.00  0.00     0.012 C 
HETATM    2  C   UNK N   1      32.877  17.496   5.889  0.00  0.00     0.021 C 
HETATM    3  C   UNK N   1      28.366  11.420   3.827  0.00  0.00     0.028 C 
HETATM    4  C   UNK N   1      28.554  10.321   4.808  0.00  0.00    -0.022 C 
HETATM    5  C   UNK N   1      29.440  12.436   4.254  0.00  0.00     0.010 C 
HETATM    6  C   UNK N   1      29.252   9.245   4.446  0.00  0.00     0.052 C 
HETATM    7  C   UNK N   1      28.389  19.211   4.652  0.00  0.00     0.064 C 
HETATM    8  C   UNK N   1      29.741  17.622   6.073  0.00  0.00     0.110 C 
HETATM    9  C   UNK N   1      26.562  17.770   5.791  0.00  0.00     0.142 C 
HETATM   10  C   UNK N   1      32.650  14.312   7.691  0.00  0.00     0.172 A 
HETATM   11  C   UNK N   1      31.685   7.301   5.909  0.00  0.00     0.178 A 
HETATM   12  C   UNK N   1      34.501  10.173   6.733  0.00  0.00     0.178 A 
HETATM   13  C   UNK N   1      29.146  13.940   4.139  0.00  0.00     0.011 C 
HETATM   14  C   UNK N   1      31.969  16.400   5.362  0.00  0.00     0.086 C 
HETATM   15  C   UNK N   1      29.551  18.221   4.670  0.00  0.00     0.127 C 
HETATM   16  C   UNK N   1      26.965  18.635   4.587  0.00  0.00     0.130 C 
HETATM   17  C   UNK N   1      33.225  14.277   6.435  0.00  0.00     0.064 A 
HETATM   18  C   UNK N   1      31.577   8.346   6.794  0.00  0.00     0.108 A 
HETATM   19  C   UNK N   1      33.684  10.995   7.485  0.00  0.00     0.108 A 
HETATM   20  C   UNK N   1      30.658  16.427   6.141  0.00  0.00     0.136 C 
HETATM   21  C   UNK N   1      27.749  14.322   4.654  0.00  0.00     0.138 C 
HETATM   22  C   UNK N   1      29.934   8.418   5.451  0.00  0.00     0.147 A 
HETATM   23  C   UNK N   1      26.934  16.304   5.821  0.00  0.00     0.261 C 
HETATM   24  C   UNK N   1      32.705  15.024   5.227  0.00  0.00     0.183 C 
HETATM   25  C   UNK N   1      32.735   9.107   7.272  0.00  0.00     0.177 A 
HETATM   26  C   UNK N   1      33.650  12.449   7.441  0.00  0.00     0.176 A 
HETATM   27  N   UNK N   1      30.453   9.037   6.523  0.00  0.00    -0.332 N 
ATOM     28  HN  UNK N   1      30.082   9.846   7.020  1.00  0.00     0.168 HD
HETATM   29  N   UNK N   1      33.840  13.093   6.278  0.00  0.00    -0.334 N 
ATOM     30  HN  UNK N   1      34.341  12.757   5.456  1.00  0.00     0.168 HD
HETATM   31  N   UNK N   1      32.569  10.319   7.804  0.00  0.00    -0.330 N 
ATOM     32  HN  UNK N   1      31.769  10.659   8.339  1.00  0.00     0.168 HD
HETATM   33  O   UNK N   1      30.298  15.466   6.801  0.00  0.00    -0.297 OA
HETATM   34  O   UNK N   1      26.566  15.645   6.781  0.00  0.00    -0.265 OA
HETATM   35  O   UNK N   1      30.655   7.383   5.094  0.00  0.00    -0.303 OA
HETATM   36  O   UNK N   1      32.927  13.168   8.269  0.00  0.00    -0.302 OA
HETATM   37  O   UNK N   1      33.893   9.010   6.642  0.00  0.00    -0.301 OA
HETATM   38  O   UNK N   1      27.563  15.698   4.767  0.00  0.00    -0.316 OA
ENDROOT
BRANCH  21  39
HETATM   39  C   UNK N   1      26.861  13.819   3.566  0.00  0.00     0.065 C 
BRANCH  39  40
HETATM   40  C   UNK N   1      25.402  13.701   3.773  0.00  0.00     0.127 C 
BRANCH  40  41
HETATM   41  C   UNK N   1      24.966  13.312   5.197  0.00  0.00     0.011 C 
HETATM   42  C   UNK N   1      24.998  11.807   5.417  0.00  0.00     0.012 C 
BRANCH  41  43
HETATM   43  C   UNK N   1      23.540  13.815   5.434  0.00  0.00     0.014 C 
BRANCH  43  44
HETATM   44  C   UNK N   1      23.465  15.024   6.388  0.00  0.00     0.079 C 
BRANCH  44  45
HETATM   45  C   UNK N   1      22.512  16.130   6.021  0.00  0.00     0.133 C 
HETATM   46  O   UNK N   1      22.893  17.029   5.287  0.00  0.00    -0.297 OA
BRANCH  45  47
HETATM   47  C   UNK N   1      21.123  16.173   6.596  0.00  0.00     0.080 C 
HETATM   48  C   UNK N   1      20.228  15.214   5.831  0.00  0.00     0.020 C 
BRANCH  47  49
HETATM   49  C   UNK N   1      21.086  15.824   8.104  0.00  0.00     0.135 C 
BRANCH  49  50
HETATM   50  C   UNK N   1      20.415  14.462   8.402  0.00  0.00     0.061 C 
BRANCH  50  51
HETATM   51  C   UNK N   1      21.493  13.479   8.739  0.00  0.00    -0.007 C 
HETATM   52  C   UNK N   1      22.077  13.555   9.943  0.00  0.00     0.083 C 
BRANCH  52  53
HETATM   53  N   UNK N   1      23.266  12.841  10.270  0.00  0.00    -0.374 N 
HETATM   54  C   UNK N   1      24.347  12.838   9.322  0.00  0.00     0.151 C 
BRANCH  53  55
HETATM   55  C   UNK N   1      23.333  11.925  11.384  0.00  0.00     0.288 C 
BRANCH  55  56
HETATM   56  O   UNK N   1      24.217  12.408  12.347  0.00  0.00    -0.382 OA
HETATM   57  H   UNK N   1      23.993  12.740  13.230  0.00  0.00     0.211 HD
ENDBRANCH  55  56
ENDBRANCH  53  55
ENDBRANCH  52  53
ENDBRANCH  50  51
ENDBRANCH  49  50
BRANCH  49  58
HETATM   58  O   UNK N   1      20.653  16.930   8.908  0.00  0.00    -0.390 OA
HETATM   59  C   UNK N   1      19.273  17.212   8.790  0.00  0.00     0.202 C 
ENDBRANCH  49  58
ENDBRANCH  47  49
ENDBRANCH  45  47
ENDBRANCH  44  45
ENDBRANCH  43  44
ENDBRANCH  41  43
ENDBRANCH  40  41
BRANCH  40  60
HETATM   60  O   UNK N   1      24.695  14.846   3.338  0.00  0.00    -0.390 OA
HETATM   61  C   UNK N   1      24.195  14.616   2.047  0.00  0.00     0.202 C 
ENDBRANCH  40  60
ENDBRANCH  39  40
ENDBRANCH  21  39
BRANCH  16  62
HETATM   62  O   UNK N   1      26.740  17.980   3.376  0.00  0.00    -0.395 OA
HETATM   63  H   UNK N   1      27.032  17.900   2.455  0.00  0.00     0.210 HD
ENDBRANCH  16  62
BRANCH  15  64
HETATM   64  O   UNK N   1      29.368  17.250   3.684  0.00  0.00    -0.395 OA
HETATM   65  H   UNK N   1      28.777  17.126   2.926  0.00  0.00     0.210 HD
ENDBRANCH  15  64
BRANCH  24  66
HETATM   66  O   UNK N   1      33.611  14.995   4.140  0.00  0.00    -0.384 OA
HETATM   67  C   UNK N   1      32.990  14.463   3.005  0.00  0.00     0.202 C 
ENDBRANCH  24  66
TORSDOF 18
ENDMDL
MODEL 6
REMARK VINA RESULT:      -7.1      4.390      8.843
REMARK  18 active torsions:
REMARK  status: ('A' for Active; 'I' for Inactive)
REMARK    1  A    between atoms: C_13  and  C_11 
REMARK    2  A    between atoms: C_37  and  C_13 
REMARK    3  A    between atoms: C_16  and  C_15 
REMARK    4  A    between atoms: C_27  and  C_15 
REMARK    5  A    between atoms: C_35  and  C_16 
REMARK    6  A    between atoms: N_51  and  C_17 
REMARK    7  A    between atoms: C_38  and  C_21 
REMARK    8  A    between atoms: C_39  and  C_21 
REMARK    9  A    between atoms: N_51  and  C_25 
REMARK   10  A    between atoms: O_52  and  C_25 
REMARK   11  A    between atoms: C_38  and  C_27 
REMARK   12  A    between atoms: C_35  and  C_28 
REMARK   13  A    between atoms: C_37  and  C_28 
REMARK   14  A    between atoms: C_30  and  O_53 
REMARK   15  A    between atoms: C_31  and  O_54 
REMARK   16  A    between atoms: C_37  and  O_58 
REMARK   17  A    between atoms: C_38  and  O_59 
REMARK   18  A    between atoms: C_42  and  O_60 
ROOT
HETATM    1  C   UNK N   1      29.522  14.354   2.748  0.00  0.00     0.012 C 
HETATM    2  C   UNK N   1      32.876  17.455   5.964  0.00  0.00     0.021 C 
HETATM    3  C   UNK N   1      28.439  11.344   3.844  0.00  0.00     0.028 C 
HETATM    4  C   UNK N   1      28.620  10.248   4.829  0.00  0.00    -0.022 C 
HETATM    5  C   UNK N   1      29.500  12.369   4.285  0.00  0.00     0.010 C 
HETATM    6  C   UNK N   1      29.331   9.176   4.480  0.00  0.00     0.052 C 
HETATM    7  C   UNK N   1      28.396  19.136   4.654  0.00  0.00     0.064 C 
HETATM    8  C   UNK N   1      29.737  17.560   6.099  0.00  0.00     0.110 C 
HETATM    9  C   UNK N   1      26.562  17.685   5.767  0.00  0.00     0.142 C 
HETATM   10  C   UNK N   1      32.643  14.273   7.768  0.00  0.00     0.172 A 
HETATM   11  C   UNK N   1      31.754   7.252   5.984  0.00  0.00     0.178 A 
HETATM   12  C   UNK N   1      34.537  10.145   6.847  0.00  0.00     0.178 A 
HETATM   13  C   UNK N   1      29.197  13.870   4.163  0.00  0.00     0.011 C 
HETATM   14  C   UNK N   1      31.984  16.352   5.424  0.00  0.00     0.086 C 
HETATM   15  C   UNK N   1      29.564  18.155   4.692  0.00  0.00     0.127 C 
HETATM   16  C   UNK N   1      26.978  18.551   4.568  0.00  0.00     0.130 C 
HETATM   17  C   UNK N   1      33.238  14.240   6.521  0.00  0.00     0.064 A 
HETATM   18  C   UNK N   1      31.626   8.298   6.866  0.00  0.00     0.108 A 
HETATM   19  C   UNK N   1      33.703  10.962   7.584  0.00  0.00     0.108 A 
HETATM   20  C   UNK N   1      30.661  16.371   6.184  0.00  0.00     0.136 C 
HETATM   21  C   UNK N   1      27.790  14.243   4.655  0.00  0.00     0.138 C 
HETATM   22  C   UNK N   1      30.003   8.356   5.497  0.00  0.00     0.147 A 
HETATM   23  C   UNK N   1      26.944  16.222   5.805  0.00  0.00     0.261 C 
HETATM   24  C   UNK N   1      32.732  14.980   5.303  0.00  0.00     0.183 C 
HETATM   25  C   UNK N   1      32.771   9.068   7.360  0.00  0.00     0.177 A 
HETATM   26  C   UNK N   1      33.660  12.416   7.538  0.00  0.00     0.176 A 
HETATM   27  N   UNK N   1      30.502   8.980   6.576  0.00  0.00    -0.332 N 
ATOM     28  HN  UNK N   1      30.116   9.788   7.065  1.00  0.00     0.168 HD
HETATM   29  N   UNK N   1      33.863  13.060   6.376  0.00  0.00    -0.334 N 
ATOM     30  HN  UNK N   1      34.379  12.726   5.563  1.00  0.00     0.168 HD
HETATM   31  N   UNK N   1      32.588  10.279   7.888  0.00  0.00    -0.330 N 
ATOM     32  HN  UNK N   1      31.778  10.615   8.409  1.00  0.00     0.168 HD
HETATM   33  O   UNK N   1      30.297  15.408   6.839  0.00  0.00    -0.297 OA
HETATM   34  O   UNK N   1      26.565  15.562   6.761  0.00  0.00    -0.265 OA
HETATM   35  O   UNK N   1      30.737   7.326   5.154  0.00  0.00    -0.303 OA
HETATM   36  O   UNK N   1      32.919  13.132   8.352  0.00  0.00    -0.302 OA
HETATM   37  O   UNK N   1      33.939   8.977   6.748  0.00  0.00    -0.301 OA
HETATM   38  O   UNK N   1      27.593  15.619   4.763  0.00  0.00    -0.316 OA
ENDROOT
BRANCH  21  39
HETATM   39  C   UNK N   1      26.923  13.733   3.554  0.00  0.00     0.065 C 
BRANCH  39  40
HETATM   40  C   UNK N   1      25.461  13.608   3.738  0.00  0.00     0.127 C 
BRANCH  40  41
HETATM   41  C   UNK N   1      24.601  14.161   2.587  0.00  0.00     0.011 C 
HETATM   42  C   UNK N   1      25.374  15.130   1.706  0.00  0.00     0.012 C 
BRANCH  41  43
HETATM   43  C   UNK N   1      23.391  14.887   3.177  0.00  0.00     0.014 C 
BRANCH  43  44
HETATM   44  C   UNK N   1      23.730  15.745   4.413  0.00  0.00     0.079 C 
BRANCH  44  45
HETATM   45  C   UNK N   1      22.923  15.500   5.660  0.00  0.00     0.133 C 
HETATM   46  O   UNK N   1      23.484  15.081   6.663  0.00  0.00    -0.297 OA
BRANCH  45  47
HETATM   47  C   UNK N   1      21.433  15.704   5.668  0.00  0.00     0.080 C 
HETATM   48  C   UNK N   1      20.759  14.486   6.275  0.00  0.00     0.020 C 
BRANCH  47  49
HETATM   49  C   UNK N   1      21.005  16.973   6.446  0.00  0.00     0.135 C 
BRANCH  49  50
HETATM   50  C   UNK N   1      21.700  18.262   5.947  0.00  0.00     0.061 C 
BRANCH  50  51
HETATM   51  C   UNK N   1      20.998  18.715   4.705  0.00  0.00    -0.007 C 
HETATM   52  C   UNK N   1      21.714  18.868   3.582  0.00  0.00     0.083 C 
BRANCH  52  53
HETATM   53  N   UNK N   1      21.202  19.523   2.425  0.00  0.00    -0.374 N 
HETATM   54  C   UNK N   1      21.085  20.955   2.444  0.00  0.00     0.151 C 
BRANCH  53  55
HETATM   55  C   UNK N   1      20.570  18.801   1.346  0.00  0.00     0.288 C 
BRANCH  55  56
HETATM   56  O   UNK N   1      20.553  19.583   0.193  0.00  0.00    -0.382 OA
HETATM   57  H   UNK N   1      20.398  20.539   0.139  0.00  0.00     0.211 HD
ENDBRANCH  55  56
ENDBRANCH  53  55
ENDBRANCH  52  53
ENDBRANCH  50  51
ENDBRANCH  49  50
BRANCH  49  58
HETATM   58  O   UNK N   1      21.002  16.766   7.865  0.00  0.00    -0.390 OA
HETATM   59  C   UNK N   1      19.895  17.349   8.521  0.00  0.00     0.202 C 
ENDBRANCH  49  58
ENDBRANCH  47  49
ENDBRANCH  45  47
ENDBRANCH  44  45
ENDBRANCH  43  44
ENDBRANCH  41  43
ENDBRANCH  40  41
BRANCH  40  60
HETATM   60  O   UNK N   1      25.063  12.290   4.061  0.00  0.00    -0.390 OA
HETATM   61  C   UNK N   1      24.890  11.557   2.877  0.00  0.00     0.202 C 
ENDBRANCH  40  60
ENDBRANCH  39  40
ENDBRANCH  21  39
BRANCH  16  62
HETATM   62  O   UNK N   1      26.776  17.892   3.355  0.00  0.00    -0.395 OA
HETATM   63  H   UNK N   1      26.242  17.873   2.546  0.00  0.00     0.210 HD
ENDBRANCH  16  62
BRANCH  15  64
HETATM   64  O   UNK N   1      29.404  17.180   3.706  0.00  0.00    -0.395 OA
HETATM   65  H   UNK N   1      29.325  16.214   3.684  0.00  0.00     0.210 HD
ENDBRANCH  15  64
BRANCH  24  66
HETATM   66  O   UNK N   1      33.655  14.956   4.231  0.00  0.00    -0.384 OA
HETATM   67  C   UNK N   1      33.042  14.458   3.076  0.00  0.00     0.202 C 
ENDBRANCH  24  66
TORSDOF 18
ENDMDL
MODEL 7
REMARK VINA RESULT:      -7.1      7.192     13.016
REMARK  18 active torsions:
REMARK  status: ('A' for Active; 'I' for Inactive)
REMARK    1  A    between atoms: C_13  and  C_11 
REMARK    2  A    between atoms: C_37  and  C_13 
REMARK    3  A    between atoms: C_16  and  C_15 
REMARK    4  A    between atoms: C_27  and  C_15 
REMARK    5  A    between atoms: C_35  and  C_16 
REMARK    6  A    between atoms: N_51  and  C_17 
REMARK    7  A    between atoms: C_38  and  C_21 
REMARK    8  A    between atoms: C_39  and  C_21 
REMARK    9  A    between atoms: N_51  and  C_25 
REMARK   10  A    between atoms: O_52  and  C_25 
REMARK   11  A    between atoms: C_38  and  C_27 
REMARK   12  A    between atoms: C_35  and  C_28 
REMARK   13  A    between atoms: C_37  and  C_28 
REMARK   14  A    between atoms: C_30  and  O_53 
REMARK   15  A    between atoms: C_31  and  O_54 
REMARK   16  A    between atoms: C_37  and  O_58 
REMARK   17  A    between atoms: C_38  and  O_59 
REMARK   18  A    between atoms: C_42  and  O_60 
ROOT
HETATM    1  C   UNK N   1      32.252  14.038   8.382  0.00  0.00     0.012 C 
HETATM    2  C   UNK N   1      32.637   8.741   6.648  0.00  0.00     0.021 C 
HETATM    3  C   UNK N   1      34.656  15.345  10.367  0.00  0.00     0.028 C 
HETATM    4  C   UNK N   1      35.814  15.068  11.255  0.00  0.00    -0.022 C 
HETATM    5  C   UNK N   1      34.270  13.940   9.872  0.00  0.00     0.010 C 
HETATM    6  C   UNK N   1      35.619  15.012  12.572  0.00  0.00     0.052 C 
HETATM    7  C   UNK N   1      32.637  12.463   3.368  0.00  0.00     0.064 C 
HETATM    8  C   UNK N   1      33.914  11.177   5.125  0.00  0.00     0.110 C 
HETATM    9  C   UNK N   1      34.797  13.866   3.643  0.00  0.00     0.142 C 
HETATM   10  C   UNK N   1      35.384   9.069   9.053  0.00  0.00     0.172 A 
HETATM   11  C   UNK N   1      36.654  12.935  15.112  0.00  0.00     0.178 A 
HETATM   12  C   UNK N   1      35.318   9.327  13.680  0.00  0.00     0.178 A 
HETATM   13  C   UNK N   1      33.755  13.759   8.436  0.00  0.00     0.011 C 
HETATM   14  C   UNK N   1      32.902  10.084   7.304  0.00  0.00     0.086 C 
HETATM   15  C   UNK N   1      32.568  11.818   4.749  0.00  0.00     0.127 C 
HETATM   16  C   UNK N   1      33.310  13.841   3.259  0.00  0.00     0.130 C 
HETATM   17  C   UNK N   1      34.101   9.213   9.549  0.00  0.00     0.064 A 
HETATM   18  C   UNK N   1      37.091  12.267  13.994  0.00  0.00     0.108 A 
HETATM   19  C   UNK N   1      35.981   9.373  12.469  0.00  0.00     0.108 A 
HETATM   20  C   UNK N   1      34.050  10.773   6.572  0.00  0.00     0.136 C 
HETATM   21  C   UNK N   1      34.583  14.534   7.397  0.00  0.00     0.138 C 
HETATM   22  C   UNK N   1      36.520  14.233  13.433  0.00  0.00     0.147 A 
HETATM   23  C   UNK N   1      35.197  14.011   5.094  0.00  0.00     0.261 C 
HETATM   24  C   UNK N   1      32.994   9.983   8.864  0.00  0.00     0.183 C 
HETATM   25  C   UNK N   1      36.808  10.849  13.752  0.00  0.00     0.177 A 
HETATM   26  C   UNK N   1      35.449   8.961  11.179  0.00  0.00     0.176 A 
HETATM   27  N   UNK N   1      37.034  13.097  12.935  0.00  0.00    -0.332 N 
ATOM     28  HN  UNK N   1      37.317  12.906  11.975  1.00  0.00     0.168 HD
HETATM   29  N   UNK N   1      34.152   9.161  10.890  0.00  0.00    -0.334 N 
ATOM     30  HN  UNK N   1      33.376   9.253  11.545  1.00  0.00     0.168 HD
HETATM   31  N   UNK N   1      36.905  10.345  12.520  0.00  0.00    -0.330 N 
ATOM     32  HN  UNK N   1      37.543  10.635  11.779  1.00  0.00     0.168 HD
HETATM   33  O   UNK N   1      35.087  11.055   7.150  0.00  0.00    -0.297 OA
HETATM   34  O   UNK N   1      36.390  14.059   5.352  0.00  0.00    -0.265 OA
HETATM   35  O   UNK N   1      36.307  14.142  14.723  0.00  0.00    -0.303 OA
HETATM   36  O   UNK N   1      36.178   8.927  10.087  0.00  0.00    -0.302 OA
HETATM   37  O   UNK N   1      35.870  10.236  14.454  0.00  0.00    -0.301 OA
HETATM   38  O   UNK N   1      34.269  14.195   6.082  0.00  0.00    -0.316 OA
ENDROOT
BRANCH  21  39
HETATM   39  C   UNK N   1      34.151  15.942   7.632  0.00  0.00     0.065 C 
BRANCH  39  40
HETATM   40  C   UNK N   1      33.382  16.679   6.607  0.00  0.00     0.127 C 
BRANCH  40  41
HETATM   41  C   UNK N   1      32.208  17.520   7.139  0.00  0.00     0.011 C 
HETATM   42  C   UNK N   1      32.235  17.651   8.655  0.00  0.00     0.012 C 
BRANCH  41  43
HETATM   43  C   UNK N   1      30.893  16.855   6.725  0.00  0.00     0.014 C 
BRANCH  43  44
HETATM   44  C   UNK N   1      29.649  17.499   7.369  0.00  0.00     0.079 C 
BRANCH  44  45
HETATM   45  C   UNK N   1      28.414  17.612   6.515  0.00  0.00     0.133 C 
HETATM   46  O   UNK N   1      27.416  16.976   6.821  0.00  0.00    -0.297 OA
BRANCH  45  47
HETATM   47  C   UNK N   1      28.416  18.442   5.261  0.00  0.00     0.080 C 
HETATM   48  C   UNK N   1      28.352  17.529   4.049  0.00  0.00     0.020 C 
BRANCH  47  49
HETATM   49  C   UNK N   1      27.245  19.453   5.209  0.00  0.00     0.135 C 
BRANCH  49  50
HETATM   50  C   UNK N   1      26.210  19.136   4.105  0.00  0.00     0.061 C 
BRANCH  50  51
HETATM   51  C   UNK N   1      24.877  18.947   4.760  0.00  0.00    -0.007 C 
HETATM   52  C   UNK N   1      23.915  18.303   4.084  0.00  0.00     0.083 C 
BRANCH  52  53
HETATM   53  N   UNK N   1      22.555  18.286   4.508  0.00  0.00    -0.374 N 
HETATM   54  C   UNK N   1      21.629  19.184   3.875  0.00  0.00     0.151 C 
BRANCH  53  55
HETATM   55  C   UNK N   1      22.127  17.595   5.702  0.00  0.00     0.288 C 
BRANCH  55  56
HETATM   56  O   UNK N   1      21.825  18.515   6.703  0.00  0.00    -0.382 OA
HETATM   57  H   UNK N   1      21.104  18.458   7.350  0.00  0.00     0.211 HD
ENDBRANCH  55  56
ENDBRANCH  53  55
ENDBRANCH  52  53
ENDBRANCH  50  51
ENDBRANCH  49  50
BRANCH  49  58
HETATM   58  O   UNK N   1      27.697  20.813   5.280  0.00  0.00    -0.390 OA
HETATM   59  C   UNK N   1      27.116  21.549   6.338  0.00  0.00     0.202 C 
ENDBRANCH  49  58
ENDBRANCH  47  49
ENDBRANCH  45  47
ENDBRANCH  44  45
ENDBRANCH  43  44
ENDBRANCH  41  43
ENDBRANCH  40  41
BRANCH  40  60
HETATM   60  O   UNK N   1      34.207  17.462   5.766  0.00  0.00    -0.390 OA
HETATM   61  C   UNK N   1      33.487  17.817   4.616  0.00  0.00     0.202 C 
ENDBRANCH  40  60
ENDBRANCH  39  40
ENDBRANCH  21  39
BRANCH  16  62
HETATM   62  O   UNK N   1      32.580  14.814   3.941  0.00  0.00    -0.395 OA
HETATM   63  H   UNK N   1      32.236  15.081   4.808  0.00  0.00     0.210 HD
ENDBRANCH  16  62
BRANCH  15  64
HETATM   64  O   UNK N   1      32.126  12.748   5.691  0.00  0.00    -0.395 OA
HETATM   65  H   UNK N   1      31.290  13.196   5.892  0.00  0.00     0.210 HD
ENDBRANCH  15  64
BRANCH  24  66
HETATM   66  O   UNK N   1      31.733   9.773   9.472  0.00  0.00    -0.384 OA
HETATM   67  C   UNK N   1      31.443   8.405   9.526  0.00  0.00     0.202 C 
ENDBRANCH  24  66
TORSDOF 18
ENDMDL
MODEL 8
REMARK VINA RESULT:      -7.0      2.945      4.668
REMARK  18 active torsions:
REMARK  status: ('A' for Active; 'I' for Inactive)
REMARK    1  A    between atoms: C_13  and  C_11 
REMARK    2  A    between atoms: C_37  and  C_13 
REMARK    3  A    between atoms: C_16  and  C_15 
REMARK    4  A    between atoms: C_27  and  C_15 
REMARK    5  A    between atoms: C_35  and  C_16 
REMARK    6  A    between atoms: N_51  and  C_17 
REMARK    7  A    between atoms: C_38  and  C_21 
REMARK    8  A    between atoms: C_39  and  C_21 
REMARK    9  A    between atoms: N_51  and  C_25 
REMARK   10  A    between atoms: O_52  and  C_25 
REMARK   11  A    between atoms: C_38  and  C_27 
REMARK   12  A    between atoms: C_35  and  C_28 
REMARK   13  A    between atoms: C_37  and  C_28 
REMARK   14  A    between atoms: C_30  and  O_53 
REMARK   15  A    between atoms: C_31  and  O_54 
REMARK   16  A    between atoms: C_37  and  O_58 
REMARK   17  A    between atoms: C_38  and  O_59 
REMARK   18  A    between atoms: C_42  and  O_60 
ROOT
HETATM    1  C   UNK N   1      25.608  15.518   6.098  0.00  0.00     0.012 C 
HETATM    2  C   UNK N   1      21.287  12.311   7.597  0.00  0.00     0.021 C 
HETATM    3  C   UNK N   1      27.136  15.013   3.124  0.00  0.00     0.028 C 
HETATM    4  C   UNK N   1      27.331  14.095   1.973  0.00  0.00    -0.022 C 
HETATM    5  C   UNK N   1      26.111  14.256   3.987  0.00  0.00     0.010 C 
HETATM    6  C   UNK N   1      28.397  13.295   1.959  0.00  0.00     0.052 C 
HETATM    7  C   UNK N   1      20.701  17.204   7.019  0.00  0.00     0.064 C 
HETATM    8  C   UNK N   1      21.004  14.953   5.917  0.00  0.00     0.110 C 
HETATM    9  C   UNK N   1      21.008  17.828   4.524  0.00  0.00     0.142 C 
HETATM   10  C   UNK N   1      22.515  10.732   4.525  0.00  0.00     0.172 A 
HETATM   11  C   UNK N   1      28.965   9.990   1.193  0.00  0.00     0.178 A 
HETATM   12  C   UNK N   1      26.313   8.190   3.759  0.00  0.00     0.178 A 
HETATM   13  C   UNK N   1      25.042  15.044   4.758  0.00  0.00     0.011 C 
HETATM   14  C   UNK N   1      22.442  12.942   6.841  0.00  0.00     0.086 C 
HETATM   15  C   UNK N   1      21.463  15.882   7.053  0.00  0.00     0.127 C 
HETATM   16  C   UNK N   1      21.148  18.257   5.993  0.00  0.00     0.130 C 
HETATM   17  C   UNK N   1      23.374  10.740   5.608  0.00  0.00     0.064 A 
HETATM   18  C   UNK N   1      27.594  10.063   1.163  0.00  0.00     0.108 A 
HETATM   19  C   UNK N   1      25.183   8.849   3.318  0.00  0.00     0.108 A 
HETATM   20  C   UNK N   1      21.884  13.752   5.674  0.00  0.00     0.136 C 
HETATM   21  C   UNK N   1      24.386  16.152   3.917  0.00  0.00     0.138 C 
HETATM   22  C   UNK N   1      28.381  12.035   1.205  0.00  0.00     0.147 A 
HETATM   23  C   UNK N   1      22.106  17.020   3.870  0.00  0.00     0.261 C 
HETATM   24  C   UNK N   1      23.587  11.919   6.531  0.00  0.00     0.183 C 
HETATM   25  C   UNK N   1      26.730   9.129   1.892  0.00  0.00     0.177 A 
HETATM   26  C   UNK N   1      24.110   9.372   4.151  0.00  0.00     0.176 A 
HETATM   27  N   UNK N   1      27.224  11.358   1.141  0.00  0.00    -0.332 N 
ATOM     28  HN  UNK N   1      26.279  11.737   1.088  1.00  0.00     0.168 HD
HETATM   29  N   UNK N   1      24.386   9.893   5.358  0.00  0.00    -0.334 N 
ATOM     30  HN  UNK N   1      25.188   9.690   5.954  1.00  0.00     0.168 HD
HETATM   31  N   UNK N   1      25.461   9.451   2.151  0.00  0.00    -0.330 N 
ATOM     32  HN  UNK N   1      24.838  10.027   1.585  1.00  0.00     0.168 HD
HETATM   33  O   UNK N   1      22.173  13.478   4.521  0.00  0.00    -0.297 OA
HETATM   34  O   UNK N   1      21.970  16.728   2.691  0.00  0.00    -0.265 OA
HETATM   35  O   UNK N   1      29.412  11.226   1.223  0.00  0.00    -0.303 OA
HETATM   36  O   UNK N   1      23.009   9.887   3.653  0.00  0.00    -0.302 OA
HETATM   37  O   UNK N   1      27.240   8.365   2.842  0.00  0.00    -0.301 OA
HETATM   38  O   UNK N   1      23.266  16.714   4.527  0.00  0.00    -0.316 OA
ENDROOT
BRANCH  21  39
HETATM   39  C   UNK N   1      25.458  17.187   3.865  0.00  0.00     0.065 C 
BRANCH  39  40
HETATM   40  C   UNK N   1      25.528  18.256   4.884  0.00  0.00     0.127 C 
BRANCH  40  41
HETATM   41  C   UNK N   1      26.944  18.609   5.376  0.00  0.00     0.011 C 
HETATM   42  C   UNK N   1      27.086  20.088   5.703  0.00  0.00     0.012 C 
BRANCH  41  43
HETATM   43  C   UNK N   1      27.953  18.246   4.284  0.00  0.00     0.014 C 
BRANCH  43  44
HETATM   44  C   UNK N   1      29.358  17.921   4.830  0.00  0.00     0.079 C 
BRANCH  44  45
HETATM   45  C   UNK N   1      29.693  16.469   5.043  0.00  0.00     0.133 C 
HETATM   46  O   UNK N   1      29.291  15.904   6.050  0.00  0.00    -0.297 OA
BRANCH  45  47
HETATM   47  C   UNK N   1      30.565  15.727   4.068  0.00  0.00     0.080 C 
HETATM   48  C   UNK N   1      30.554  16.446   2.730  0.00  0.00     0.020 C 
BRANCH  47  49
HETATM   49  C   UNK N   1      32.025  15.576   4.562  0.00  0.00     0.135 C 
BRANCH  49  50
HETATM   50  C   UNK N   1      32.956  16.712   4.078  0.00  0.00     0.061 C 
BRANCH  50  51
HETATM   51  C   UNK N   1      33.286  17.573   5.257  0.00  0.00    -0.007 C 
HETATM   52  C   UNK N   1      33.152  17.058   6.487  0.00  0.00     0.083 C 
BRANCH  52  53
HETATM   53  N   UNK N   1      33.198  17.855   7.667  0.00  0.00    -0.374 N 
HETATM   54  C   UNK N   1      34.471  18.361   8.103  0.00  0.00     0.151 C 
BRANCH  53  55
HETATM   55  C   UNK N   1      32.076  17.963   8.569  0.00  0.00     0.288 C 
BRANCH  55  56
HETATM   56  O   UNK N   1      30.915  17.512   7.942  0.00  0.00    -0.382 OA
HETATM   57  H   UNK N   1      30.046  17.943   7.944  0.00  0.00     0.211 HD
ENDBRANCH  55  56
ENDBRANCH  53  55
ENDBRANCH  52  53
ENDBRANCH  50  51
ENDBRANCH  49  50
BRANCH  49  58
HETATM   58  O   UNK N   1      32.520  14.240   4.396  0.00  0.00    -0.390 OA
HETATM   59  C   UNK N   1      32.048  13.335   5.374  0.00  0.00     0.202 C 
ENDBRANCH  49  58
ENDBRANCH  47  49
ENDBRANCH  45  47
ENDBRANCH  44  45
ENDBRANCH  43  44
ENDBRANCH  41  43
ENDBRANCH  40  41
BRANCH  40  60
HETATM   60  O   UNK N   1      24.837  19.427   4.494  0.00  0.00    -0.390 OA
HETATM   61  C   UNK N   1      24.872  19.540   3.097  0.00  0.00     0.202 C 
ENDBRANCH  40  60
ENDBRANCH  39  40
ENDBRANCH  21  39
BRANCH  16  62
HETATM   62  O   UNK N   1      22.430  18.727   6.278  0.00  0.00    -0.395 OA
HETATM   63  H   UNK N   1      23.216  18.594   6.831  0.00  0.00     0.210 HD
ENDBRANCH  16  62
BRANCH  15  64
HETATM   64  O   UNK N   1      22.838  16.121   7.038  0.00  0.00    -0.395 OA
HETATM   65  H   UNK N   1      23.594  15.818   6.511  0.00  0.00     0.210 HD
ENDBRANCH  15  64
BRANCH  24  66
HETATM   66  O   UNK N   1      24.338  11.578   7.681  0.00  0.00    -0.384 OA
HETATM   67  C   UNK N   1      24.706  12.734   8.380  0.00  0.00     0.202 C 
ENDBRANCH  24  66
TORSDOF 18
ENDMDL
MODEL 9
REMARK VINA RESULT:      -7.0      5.480     10.032
REMARK  18 active torsions:
REMARK  status: ('A' for Active; 'I' for Inactive)
REMARK    1  A    between atoms: C_13  and  C_11 
REMARK    2  A    between atoms: C_37  and  C_13 
REMARK    3  A    between atoms: C_16  and  C_15 
REMARK    4  A    between atoms: C_27  and  C_15 
REMARK    5  A    between atoms: C_35  and  C_16 
REMARK    6  A    between atoms: N_51  and  C_17 
REMARK    7  A    between atoms: C_38  and  C_21 
REMARK    8  A    between atoms: C_39  and  C_21 
REMARK    9  A    between atoms: N_51  and  C_25 
REMARK   10  A    between atoms: O_52  and  C_25 
REMARK   11  A    between atoms: C_38  and  C_27 
REMARK   12  A    between atoms: C_35  and  C_28 
REMARK   13  A    between atoms: C_37  and  C_28 
REMARK   14  A    between atoms: C_30  and  O_53 
REMARK   15  A    between atoms: C_31  and  O_54 
REMARK   16  A    between atoms: C_37  and  O_58 
REMARK   17  A    between atoms: C_38  and  O_59 
REMARK   18  A    between atoms: C_42  and  O_60 
ROOT
HETATM    1  C   UNK N   1      34.390  13.686   5.023  0.00  0.00     0.012 C 
HETATM    2  C   UNK N   1      35.356  12.723  10.440  0.00  0.00     0.021 C 
HETATM    3  C   UNK N   1      31.627  12.414   3.546  0.00  0.00     0.028 C 
HETATM    4  C   UNK N   1      30.511  11.439   3.641  0.00  0.00    -0.022 C 
HETATM    5  C   UNK N   1      32.359  12.216   4.885  0.00  0.00     0.010 C 
HETATM    6  C   UNK N   1      30.629  10.261   3.030  0.00  0.00     0.052 C 
HETATM    7  C   UNK N   1      34.700  17.356   8.791  0.00  0.00     0.064 C 
HETATM    8  C   UNK N   1      33.647  15.136   9.370  0.00  0.00     0.110 C 
HETATM    9  C   UNK N   1      32.260  17.651   7.974  0.00  0.00     0.142 C 
HETATM   10  C   UNK N   1      32.461  10.605   9.684  0.00  0.00     0.172 A 
HETATM   11  C   UNK N   1      29.945   6.993   3.862  0.00  0.00     0.178 A 
HETATM   12  C   UNK N   1      32.171   6.645   7.294  0.00  0.00     0.178 A 
HETATM   13  C   UNK N   1      32.992  13.427   5.587  0.00  0.00     0.011 C 
HETATM   14  C   UNK N   1      34.745  12.756   9.051  0.00  0.00     0.086 C 
HETATM   15  C   UNK N   1      34.829  15.839   8.683  0.00  0.00     0.127 C 
HETATM   16  C   UNK N   1      33.734  18.058   7.824  0.00  0.00     0.130 C 
HETATM   17  C   UNK N   1      33.641  10.304   9.030  0.00  0.00     0.064 A 
HETATM   18  C   UNK N   1      29.747   7.644   5.056  0.00  0.00     0.108 A 
HETATM   19  C   UNK N   1      31.594   7.699   7.974  0.00  0.00     0.108 A 
HETATM   20  C   UNK N   1      33.517  13.662   9.073  0.00  0.00     0.136 C 
HETATM   21  C   UNK N   1      32.074  14.661   5.605  0.00  0.00     0.138 C 
HETATM   22  C   UNK N   1      29.881   9.089   3.505  0.00  0.00     0.147 A 
HETATM   23  C   UNK N   1      31.746  16.417   7.267  0.00  0.00     0.261 C 
HETATM   24  C   UNK N   1      34.580  11.327   8.432  0.00  0.00     0.183 C 
HETATM   25  C   UNK N   1      30.367   7.211   6.311  0.00  0.00     0.177 A 
HETATM   26  C   UNK N   1      32.288   8.674   8.801  0.00  0.00     0.176 A 
HETATM   27  N   UNK N   1      29.678   8.970   4.826  0.00  0.00    -0.332 N 
ATOM     28  HN  UNK N   1      29.508   9.713   5.503  1.00  0.00     0.168 HD
HETATM   29  N   UNK N   1      33.519   9.093   8.462  0.00  0.00    -0.334 N 
ATOM     30  HN  UNK N   1      34.209   8.599   7.896  1.00  0.00     0.168 HD
HETATM   31  N   UNK N   1      30.468   8.058   7.338  0.00  0.00    -0.330 N 
ATOM     32  HN  UNK N   1      29.829   8.813   7.586  1.00  0.00     0.168 HD
HETATM   33  O   UNK N   1      32.409  13.228   8.806  0.00  0.00    -0.297 OA
HETATM   34  O   UNK N   1      30.560  16.147   7.386  0.00  0.00    -0.265 OA
HETATM   35  O   UNK N   1      30.027   7.919   2.932  0.00  0.00    -0.303 OA
HETATM   36  O   UNK N   1      31.658   9.582   9.510  0.00  0.00    -0.302 OA
HETATM   37  O   UNK N   1      31.375   6.356   6.288  0.00  0.00    -0.301 OA
HETATM   38  O   UNK N   1      32.541  15.680   6.432  0.00  0.00    -0.316 OA
ENDROOT
BRANCH  21  39
HETATM   39  C   UNK N   1      32.152  15.134   4.193  0.00  0.00     0.065 C 
BRANCH  39  40
HETATM   40  C   UNK N   1      31.178  16.114   3.668  0.00  0.00     0.127 C 
BRANCH  40  41
HETATM   41  C   UNK N   1      29.743  15.974   4.206  0.00  0.00     0.011 C 
HETATM   42  C   UNK N   1      29.013  14.787   3.596  0.00  0.00     0.012 C 
BRANCH  41  43
HETATM   43  C   UNK N   1      28.964  17.251   3.884  0.00  0.00     0.014 C 
BRANCH  43  44
HETATM   44  C   UNK N   1      28.473  18.005   5.136  0.00  0.00     0.079 C 
BRANCH  44  45
HETATM   45  C   UNK N   1      27.054  17.759   5.573  0.00  0.00     0.133 C 
HETATM   46  O   UNK N   1      26.803  16.784   6.266  0.00  0.00    -0.297 OA
BRANCH  45  47
HETATM   47  C   UNK N   1      25.939  18.658   5.117  0.00  0.00     0.080 C 
HETATM   48  C   UNK N   1      26.523  19.882   4.431  0.00  0.00     0.020 C 
BRANCH  47  49
HETATM   49  C   UNK N   1      24.951  17.950   4.157  0.00  0.00     0.135 C 
BRANCH  49  50
HETATM   50  C   UNK N   1      23.807  17.212   4.890  0.00  0.00     0.061 C 
BRANCH  50  51
HETATM   51  C   UNK N   1      22.511  17.641   4.276  0.00  0.00    -0.007 C 
HETATM   52  C   UNK N   1      22.469  18.805   3.612  0.00  0.00     0.083 C 
BRANCH  52  53
HETATM   53  N   UNK N   1      21.249  19.419   3.208  0.00  0.00    -0.374 N 
HETATM   54  C   UNK N   1      20.087  18.590   3.039  0.00  0.00     0.151 C 
BRANCH  53  55
HETATM   55  C   UNK N   1      21.194  20.779   2.724  0.00  0.00     0.288 C 
BRANCH  55  56
HETATM   56  O   UNK N   1      22.462  21.354   2.770  0.00  0.00    -0.382 OA
HETATM   57  H   UNK N   1      23.232  21.112   2.233  0.00  0.00     0.211 HD
ENDBRANCH  55  56
ENDBRANCH  53  55
ENDBRANCH  52  53
ENDBRANCH  50  51
ENDBRANCH  49  50
BRANCH  49  58
HETATM   58  O   UNK N   1      25.626  17.209   3.132  0.00  0.00    -0.390 OA
HETATM   59  C   UNK N   1      25.304  15.833   3.121  0.00  0.00     0.202 C 
ENDBRANCH  49  58
ENDBRANCH  47  49
ENDBRANCH  45  47
ENDBRANCH  44  45
ENDBRANCH  43  44
ENDBRANCH  41  43
ENDBRANCH  40  41
BRANCH  40  60
HETATM   60  O   UNK N   1      31.624  17.450   3.800  0.00  0.00    -0.390 OA
HETATM   61  C   UNK N   1      32.985  17.517   3.469  0.00  0.00     0.202 C 
ENDBRANCH  40  60
ENDBRANCH  39  40
ENDBRANCH  21  39
BRANCH  16  62
HETATM   62  O   UNK N   1      34.173  17.950   6.505  0.00  0.00    -0.395 OA
HETATM   63  H   UNK N   1      34.937  18.049   5.916  0.00  0.00     0.210 HD
ENDBRANCH  16  62
BRANCH  15  64
HETATM   64  O   UNK N   1      34.982  15.466   7.347  0.00  0.00    -0.395 OA
HETATM   65  H   UNK N   1      35.433  14.754   6.867  0.00  0.00     0.210 HD
ENDBRANCH  15  64
BRANCH  24  66
HETATM   66  O   UNK N   1      35.815  10.761   8.032  0.00  0.00    -0.384 OA
HETATM   67  C   UNK N   1      36.458  11.600   7.115  0.00  0.00     0.202 C 
ENDBRANCH  24  66
TORSDOF 18
ENDMDL
