REMARK  22 active torsions:
REMARK  status: ('A' for Active; 'I' for Inactive)
REMARK    1  A    between atoms: C_19  and  C_15 
REMARK    2  A    between atoms: C_23  and  C_15 
REMARK    3  A    between atoms: C_20  and  C_16 
REMARK    4  A    between atoms: C_24  and  C_16 
REMARK    5  A    between atoms: C_21  and  C_17 
REMARK    6  A    between atoms: O_46  and  C_17 
REMARK    7  A    between atoms: C_22  and  C_18 
REMARK    8  A    between atoms: O_47  and  C_18 
REMARK    9  A    between atoms: C_25  and  C_23 
REMARK   10  A    between atoms: C_23  and  N_30 
REMARK   11  A    between atoms: C_26  and  C_24 
REMARK   12  A    between atoms: C_24  and  N_32 
REMARK   13  A    between atoms: O_41  and  C_25 
REMARK   14  A    between atoms: O_42  and  C_26 
REMARK   15  A    between atoms: N_40  and  C_27 
REMARK   16  A    between atoms: C_27  and  O_43 
REMARK   17  A    between atoms: C_28  and  O_44 
REMARK   18  A    between atoms: O_46  and  C_28 
REMARK   19  A    between atoms: C_29  and  O_45 
REMARK   20  A    between atoms: O_47  and  C_29 
REMARK   21  A    between atoms: N_34  and  N_38 
REMARK   22  A    between atoms: N_36  and  N_40 
ROOT
HETATM    1  C   UNK N   1      -1.108  18.117  -0.063  0.00  0.00     0.251 C 
HETATM    2  N   UNK N   1      -0.353  17.515   0.799  0.00  0.00    -0.262 N 
ATOM      3  HN  UNK N   1       0.205  18.105   1.417  1.00  0.00     0.190 HD
ENDROOT
BRANCH   1   4
HETATM    4  N   UNK N   1      -1.991  17.429  -0.938  0.00  0.00    -0.262 N 
HETATM    5  H   UNK N   1      -1.814  17.455  -1.906  0.00  0.00     0.190 HD
BRANCH   4   6
HETATM    6  N   UNK N   1      -3.085  16.727  -0.485  0.00  0.00    -0.279 N 
HETATM    7  C   UNK N   1      -4.250  17.016  -0.965  0.00  0.00     0.153 C 
ATOM      8  HN  UNK N   1      -2.978  15.993   0.215  1.00  0.00     0.189 HD
BRANCH   7   9
HETATM    9  C   UNK N   1      -5.516  16.296  -0.524  0.00  0.00     0.162 C 
BRANCH   9  10
HETATM   10  C   UNK N   1      -5.221  15.013   0.261  0.00  0.00     0.037 C 
BRANCH  10  11
HETATM   11  C   UNK N   1      -6.490  14.292   0.739  0.00  0.00    -0.020 C 
HETATM   12  C   UNK N   1      -6.106  12.973   1.371  0.00  0.00     0.009 C 
HETATM   13  C   UNK N   1      -7.472  14.019  -0.390  0.00  0.00     0.009 C 
ENDBRANCH  10  11
ENDBRANCH   9  10
BRANCH   9  14
HETATM   14  N   UNK N   1      -6.319  17.186   0.297  0.00  0.00    -0.338 N 
HETATM   15  C   UNK N   1      -6.919  18.237  -0.149  0.00  0.00     0.259 C 
ATOM     16  HN  UNK N   1      -6.413  16.966   1.289  1.00  0.00     0.164 HD
BRANCH  15  17
HETATM   17  O   UNK N   1      -6.909  18.534  -1.468  0.00  0.00    -0.327 OA
HETATM   18  H   UNK N   1      -6.727  18.630  -2.382  0.00  0.00     0.221 HD
ENDBRANCH  15  17
BRANCH  15  19
HETATM   19  O   UNK N   1      -7.500  19.086   0.730  0.00  0.00    -0.312 OA
BRANCH  19  20
HETATM   20  C   UNK N   1      -7.746  20.407   0.408  0.00  0.00     0.218 C 
BRANCH  20  21
HETATM   21  C   UNK N   1      -6.464  21.199   0.292  0.00  0.00    -0.034 A 
HETATM   22  C   UNK N   1      -6.522  22.551  -0.061  0.00  0.00     0.009 A 
HETATM   23  C   UNK N   1      -5.345  23.297  -0.186  0.00  0.00     0.001 A 
HETATM   24  C   UNK N   1      -4.103  22.694   0.039  0.00  0.00     0.000 A 
HETATM   25  C   UNK N   1      -4.036  21.346   0.393  0.00  0.00     0.001 A 
HETATM   26  C   UNK N   1      -5.211  20.603   0.522  0.00  0.00     0.009 A 
ENDBRANCH  20  21
ENDBRANCH  19  20
ENDBRANCH  15  19
ENDBRANCH   9  14
ENDBRANCH   7   9
BRANCH   7  27
HETATM   27  O   UNK N   1      -4.361  18.024  -1.857  0.00  0.00    -0.347 OA
HETATM   28  H   UNK N   1      -3.794  18.440  -2.476  0.00  0.00     0.219 HD
ENDBRANCH   7  27
ENDBRANCH   4   6
ENDBRANCH   1   4
BRANCH   1  29
HETATM   29  O   UNK N   1      -1.035  19.457  -0.156  0.00  0.00    -0.330 OA
HETATM   30  H   UNK N   1      -0.201  19.880  -0.220  0.00  0.00     0.221 HD
ENDBRANCH   1  29
BRANCH   2  31
HETATM   31  N   UNK N   1      -0.234  16.149   0.961  0.00  0.00    -0.279 N 
HETATM   32  C   UNK N   1      -0.022  15.320  -0.010  0.00  0.00     0.153 C 
ATOM     33  HN  UNK N   1      -0.318  15.770   1.904  1.00  0.00     0.189 HD
BRANCH  32  34
HETATM   34  C   UNK N   1       0.186  13.864   0.295  0.00  0.00     0.162 C 
BRANCH  34  35
HETATM   35  C   UNK N   1       1.486  13.656   1.090  0.00  0.00     0.037 C 
BRANCH  35  36
HETATM   36  C   UNK N   1       2.798  13.795   0.298  0.00  0.00    -0.020 C 
HETATM   37  C   UNK N   1       2.996  15.165  -0.326  0.00  0.00     0.009 C 
HETATM   38  C   UNK N   1       2.949  12.705  -0.746  0.00  0.00     0.009 C 
ENDBRANCH  35  36
ENDBRANCH  34  35
BRANCH  34  39
HETATM   39  N   UNK N   1      -0.924  13.390   1.102  0.00  0.00    -0.338 N 
HETATM   40  C   UNK N   1      -1.820  12.564   0.684  0.00  0.00     0.259 C 
ATOM     41  HN  UNK N   1      -0.999  13.733   2.060  1.00  0.00     0.164 HD
BRANCH  40  42
HETATM   42  O   UNK N   1      -2.794  12.168   1.528  0.00  0.00    -0.327 OA
HETATM   43  H   UNK N   1      -3.371  12.617   2.114  0.00  0.00     0.221 HD
ENDBRANCH  40  42
BRANCH  40  44
HETATM   44  O   UNK N   1      -1.797  12.117  -0.597  0.00  0.00    -0.312 OA
BRANCH  44  45
HETATM   45  C   UNK N   1      -2.734  11.259  -1.132  0.00  0.00     0.218 C 
BRANCH  45  46
HETATM   46  C   UNK N   1      -2.611   9.882  -0.565  0.00  0.00    -0.034 A 
HETATM   47  C   UNK N   1      -1.352   9.289  -0.406  0.00  0.00     0.009 A 
HETATM   48  C   UNK N   1      -1.248   7.994   0.107  0.00  0.00     0.001 A 
HETATM   49  C   UNK N   1      -2.403   7.283   0.447  0.00  0.00     0.000 A 
HETATM   50  C   UNK N   1      -3.661   7.870   0.281  0.00  0.00     0.001 A 
HETATM   51  C   UNK N   1      -3.765   9.170  -0.222  0.00  0.00     0.009 A 
ENDBRANCH  45  46
ENDBRANCH  44  45
ENDBRANCH  40  44
ENDBRANCH  34  39
ENDBRANCH  32  34
BRANCH  32  52
HETATM   52  O   UNK N   1       0.059  15.745  -1.288  0.00  0.00    -0.347 OA
HETATM   53  H   UNK N   1       0.342  15.844  -2.176  0.00  0.00     0.219 HD
ENDBRANCH  32  52
ENDBRANCH   2  31
TORSDOF 22
