MODEL 1
REMARK VINA RESULT:      -7.9      0.000      0.000
REMARK  17 active torsions:
REMARK  status: ('A' for Active; 'I' for Inactive)
REMARK    1  A    between atoms: C_25  and  C_20 
REMARK    2  A    between atoms: N_36  and  C_20 
REMARK    3  A    between atoms: C_26  and  C_21 
REMARK    4  A    between atoms: N_37  and  C_21 
REMARK    5  A    between atoms: C_27  and  C_22 
REMARK    6  A    between atoms: O_38  and  C_22 
REMARK    7  A    between atoms: C_31  and  C_23 
REMARK    8  A    between atoms: O_45  and  C_23 
REMARK    9  A    between atoms: C_32  and  C_24 
REMARK   10  A    between atoms: O_46  and  C_24 
REMARK   11  A    between atoms: C_35  and  C_28 
REMARK   12  A    between atoms: O_45  and  C_29 
REMARK   13  A    between atoms: O_46  and  C_30 
REMARK   14  A    between atoms: C_33  and  O_39 
REMARK   15  A    between atoms: C_34  and  O_40 
REMARK   16  A    between atoms: C_35  and  O_41 
REMARK   17  A    between atoms: O_44  and  C_35 
ROOT
HETATM    1  C   UNK N   1      25.666  15.993   4.692  0.00  0.00     0.131 C 
HETATM    2  C   UNK N   1      28.877  15.700   3.369  0.00  0.00     0.131 C 
HETATM    3  C   UNK N   1      26.237  15.216   3.499  0.00  0.00     0.169 C 
HETATM    4  C   UNK N   1      27.690  14.713   3.571  0.00  0.00     0.169 C 
HETATM    5  N   UNK N   1      26.192  17.362   4.730  0.00  0.00    -0.184 NA
HETATM    6  N   UNK N   1      29.181  16.594   4.534  0.00  0.00    -0.184 NA
HETATM    7  O   UNK N   1      27.945  17.328   6.804  0.00  0.00    -0.194 OA
HETATM    8  O   UNK N   1      28.199  19.039   5.125  0.00  0.00    -0.194 OA
HETATM    9  S   UNK N   1      27.867  17.543   5.287  0.00  0.00     0.284 S 
ENDROOT
BRANCH   6  10
HETATM   10  C   UNK N   1      30.319  17.553   4.442  0.00  0.00     0.147 C 
BRANCH  10  11
HETATM   11  C   UNK N   1      31.428  17.410   5.425  0.00  0.00    -0.044 A 
HETATM   12  C   UNK N   1      31.139  17.296   6.787  0.00  0.00     0.009 A 
HETATM   13  C   UNK N   1      32.169  17.353   7.721  0.00  0.00     0.012 A 
HETATM   14  C   UNK N   1      33.497  17.485   7.300  0.00  0.00    -0.004 A 
HETATM   15  C   UNK N   1      33.790  17.516   5.928  0.00  0.00     0.012 A 
HETATM   16  C   UNK N   1      32.755  17.483   4.991  0.00  0.00     0.009 A 
BRANCH  14  17
HETATM   17  C   UNK N   1      34.588  17.741   8.305  0.00  0.00     0.290 C 
BRANCH  17  18
HETATM   18  O   UNK N   1      34.981  19.090   8.307  0.00  0.00    -0.367 OA
HETATM   19  H   UNK N   1      34.469  19.881   8.532  0.00  0.00     0.213 HD
ENDBRANCH  17  18
BRANCH  17  20
HETATM   20  O   UNK N   1      34.245  17.286   9.597  0.00  0.00    -0.362 OA
HETATM   21  C   UNK N   1      34.946  16.097   9.863  0.00  0.00     0.205 C 
ENDBRANCH  17  20
ENDBRANCH  14  17
ENDBRANCH  10  11
ENDBRANCH   6  10
BRANCH   2  22
HETATM   22  C   UNK N   1      30.128  14.794   3.137  0.00  0.00     0.199 C 
BRANCH  22  23
HETATM   23  O   UNK N   1      30.566  14.050   4.221  0.00  0.00    -0.349 OA
BRANCH  23  24
HETATM   24  C   UNK N   1      31.833  13.983   4.700  0.00  0.00     0.068 A 
HETATM   25  C   UNK N   1      32.953  14.051   3.859  0.00  0.00     0.037 A 
HETATM   26  C   UNK N   1      34.244  13.986   4.395  0.00  0.00     0.003 A 
HETATM   27  C   UNK N   1      34.421  13.850   5.775  0.00  0.00     0.000 A 
HETATM   28  C   UNK N   1      33.309  13.777   6.618  0.00  0.00     0.003 A 
HETATM   29  C   UNK N   1      32.021  13.843   6.081  0.00  0.00     0.037 A 
ENDBRANCH  23  24
ENDBRANCH  22  23
ENDBRANCH   2  22
BRANCH   4  30
HETATM   30  O   UNK N   1      27.905  13.916   4.698  0.00  0.00    -0.391 OA
HETATM   31  H   UNK N   1      28.263  13.183   5.225  0.00  0.00     0.210 HD
ENDBRANCH   4  30
BRANCH   5  32
HETATM   32  C   UNK N   1      25.293  18.357   5.357  0.00  0.00     0.147 C 
BRANCH  32  33
HETATM   33  C   UNK N   1      24.236  18.914   4.442  0.00  0.00    -0.044 A 
HETATM   34  C   UNK N   1      24.526  19.976   3.579  0.00  0.00     0.009 A 
HETATM   35  C   UNK N   1      23.523  20.527   2.776  0.00  0.00     0.010 A 
HETATM   36  C   UNK N   1      22.224  20.012   2.821  0.00  0.00    -0.035 A 
HETATM   37  C   UNK N   1      21.941  18.922   3.657  0.00  0.00     0.010 A 
HETATM   38  C   UNK N   1      22.946  18.372   4.457  0.00  0.00     0.009 A 
BRANCH  36  39
HETATM   39  C   UNK N   1      21.160  20.649   1.981  0.00  0.00     0.202 C 
BRANCH  39  40
HETATM   40  O   UNK N   1      21.494  20.637   0.625  0.00  0.00    -0.396 OA
HETATM   41  H   UNK N   1      20.964  21.143  -0.011  0.00  0.00     0.209 HD
ENDBRANCH  39  40
ENDBRANCH  36  39
ENDBRANCH  32  33
ENDBRANCH   5  32
BRANCH   3  42
HETATM   42  O   UNK N   1      26.041  15.946   2.322  0.00  0.00    -0.391 OA
HETATM   43  H   UNK N   1      26.199  16.180   1.393  0.00  0.00     0.210 HD
ENDBRANCH   3  42
BRANCH   1  44
HETATM   44  C   UNK N   1      25.813  15.237   6.034  0.00  0.00     0.199 C 
BRANCH  44  45
HETATM   45  O   UNK N   1      25.160  14.017   6.006  0.00  0.00    -0.349 OA
BRANCH  45  46
HETATM   46  C   UNK N   1      24.836  13.288   7.102  0.00  0.00     0.068 A 
HETATM   47  C   UNK N   1      24.179  12.066   6.929  0.00  0.00     0.037 A 
HETATM   48  C   UNK N   1      23.799  11.307   8.040  0.00  0.00     0.003 A 
HETATM   49  C   UNK N   1      24.082  11.765   9.330  0.00  0.00     0.000 A 
HETATM   50  C   UNK N   1      24.749  12.979   9.510  0.00  0.00     0.003 A 
HETATM   51  C   UNK N   1      25.122  13.740   8.400  0.00  0.00     0.037 A 
ENDBRANCH  45  46
ENDBRANCH  44  45
ENDBRANCH   1  44
TORSDOF 17
ENDMDL
MODEL 2
REMARK VINA RESULT:      -7.8      1.185      1.750
REMARK  17 active torsions:
REMARK  status: ('A' for Active; 'I' for Inactive)
REMARK    1  A    between atoms: C_25  and  C_20 
REMARK    2  A    between atoms: N_36  and  C_20 
REMARK    3  A    between atoms: C_26  and  C_21 
REMARK    4  A    between atoms: N_37  and  C_21 
REMARK    5  A    between atoms: C_27  and  C_22 
REMARK    6  A    between atoms: O_38  and  C_22 
REMARK    7  A    between atoms: C_31  and  C_23 
REMARK    8  A    between atoms: O_45  and  C_23 
REMARK    9  A    between atoms: C_32  and  C_24 
REMARK   10  A    between atoms: O_46  and  C_24 
REMARK   11  A    between atoms: C_35  and  C_28 
REMARK   12  A    between atoms: O_45  and  C_29 
REMARK   13  A    between atoms: O_46  and  C_30 
REMARK   14  A    between atoms: C_33  and  O_39 
REMARK   15  A    between atoms: C_34  and  O_40 
REMARK   16  A    between atoms: C_35  and  O_41 
REMARK   17  A    between atoms: O_44  and  C_35 
ROOT
HETATM    1  C   UNK N   1      24.588  15.696   4.800  0.00  0.00     0.131 C 
HETATM    2  C   UNK N   1      27.606  15.231   3.120  0.00  0.00     0.131 C 
HETATM    3  C   UNK N   1      25.032  14.721   3.703  0.00  0.00     0.169 C 
HETATM    4  C   UNK N   1      26.505  14.273   3.663  0.00  0.00     0.169 C 
HETATM    5  N   UNK N   1      25.049  17.059   4.513  0.00  0.00    -0.184 NA
HETATM    6  N   UNK N   1      28.018  16.335   4.048  0.00  0.00    -0.184 NA
HETATM    7  O   UNK N   1      27.060  17.456   6.294  0.00  0.00    -0.194 OA
HETATM    8  O   UNK N   1      27.007  18.825   4.310  0.00  0.00    -0.194 OA
HETATM    9  S   UNK N   1      26.771  17.379   4.789  0.00  0.00     0.284 S 
ENDROOT
BRANCH   6  10
HETATM   10  C   UNK N   1      29.086  17.284   3.624  0.00  0.00     0.147 C 
BRANCH  10  11
HETATM   11  C   UNK N   1      30.304  17.383   4.475  0.00  0.00    -0.044 A 
HETATM   12  C   UNK N   1      31.544  17.644   3.886  0.00  0.00     0.009 A 
HETATM   13  C   UNK N   1      32.706  17.551   4.647  0.00  0.00     0.012 A 
HETATM   14  C   UNK N   1      32.635  17.235   6.008  0.00  0.00    -0.004 A 
HETATM   15  C   UNK N   1      31.382  17.055   6.614  0.00  0.00     0.012 A 
HETATM   16  C   UNK N   1      30.217  17.125   5.846  0.00  0.00     0.009 A 
BRANCH  14  17
HETATM   17  C   UNK N   1      33.890  16.943   6.784  0.00  0.00     0.290 C 
BRANCH  17  18
HETATM   18  O   UNK N   1      34.613  18.117   7.058  0.00  0.00    -0.367 OA
HETATM   19  H   UNK N   1      35.562  18.235   7.211  0.00  0.00     0.213 HD
ENDBRANCH  17  18
BRANCH  17  20
HETATM   20  O   UNK N   1      33.636  16.192   7.952  0.00  0.00    -0.362 OA
HETATM   21  C   UNK N   1      34.331  16.771   9.029  0.00  0.00     0.205 C 
ENDBRANCH  17  20
ENDBRANCH  14  17
ENDBRANCH  10  11
ENDBRANCH   6  10
BRANCH   2  22
HETATM   22  C   UNK N   1      28.858  14.326   2.887  0.00  0.00     0.199 C 
BRANCH  22  23
HETATM   23  O   UNK N   1      29.546  13.914   4.017  0.00  0.00    -0.349 OA
BRANCH  23  24
HETATM   24  C   UNK N   1      30.891  13.881   4.181  0.00  0.00     0.068 A 
HETATM   25  C   UNK N   1      31.486  13.602   5.420  0.00  0.00     0.037 A 
HETATM   26  C   UNK N   1      32.880  13.570   5.543  0.00  0.00     0.003 A 
HETATM   27  C   UNK N   1      33.686  13.821   4.428  0.00  0.00     0.000 A 
HETATM   28  C   UNK N   1      33.099  14.105   3.193  0.00  0.00     0.003 A 
HETATM   29  C   UNK N   1      31.707  14.135   3.071  0.00  0.00     0.037 A 
ENDBRANCH  23  24
ENDBRANCH  22  23
ENDBRANCH   2  22
BRANCH   4  30
HETATM   30  O   UNK N   1      26.906  13.708   4.877  0.00  0.00    -0.391 OA
HETATM   31  H   UNK N   1      26.911  13.079   5.616  0.00  0.00     0.210 HD
ENDBRANCH   4  30
BRANCH   5  32
HETATM   32  C   UNK N   1      24.193  18.134   5.065  0.00  0.00     0.147 C 
BRANCH  32  33
HETATM   33  C   UNK N   1      23.291  18.798   4.060  0.00  0.00    -0.044 A 
HETATM   34  C   UNK N   1      23.693  19.965   3.401  0.00  0.00     0.009 A 
HETATM   35  C   UNK N   1      22.826  20.609   2.514  0.00  0.00     0.010 A 
HETATM   36  C   UNK N   1      21.552  20.086   2.272  0.00  0.00    -0.035 A 
HETATM   37  C   UNK N   1      21.163  18.895   2.902  0.00  0.00     0.010 A 
HETATM   38  C   UNK N   1      22.032  18.252   3.787  0.00  0.00     0.009 A 
BRANCH  36  39
HETATM   39  C   UNK N   1      20.628  20.819   1.349  0.00  0.00     0.202 C 
BRANCH  39  40
HETATM   40  O   UNK N   1      20.732  20.356   0.035  0.00  0.00    -0.396 OA
HETATM   41  H   UNK N   1      21.235  19.549  -0.157  0.00  0.00     0.209 HD
ENDBRANCH  39  40
ENDBRANCH  36  39
ENDBRANCH  32  33
ENDBRANCH   5  32
BRANCH   3  42
HETATM   42  O   UNK N   1      24.648  15.211   2.450  0.00  0.00    -0.391 OA
HETATM   43  H   UNK N   1      24.057  15.651   1.820  0.00  0.00     0.210 HD
ENDBRANCH   3  42
BRANCH   1  44
HETATM   44  C   UNK N   1      24.948  15.210   6.225  0.00  0.00     0.199 C 
BRANCH  44  45
HETATM   45  O   UNK N   1      24.303  14.025   6.537  0.00  0.00    -0.349 OA
BRANCH  45  46
HETATM   46  C   UNK N   1      23.945  13.646   7.788  0.00  0.00     0.068 A 
HETATM   47  C   UNK N   1      24.944  13.277   8.693  0.00  0.00     0.037 A 
HETATM   48  C   UNK N   1      24.606  12.845   9.979  0.00  0.00     0.003 A 
HETATM   49  C   UNK N   1      23.264  12.789  10.367  0.00  0.00     0.000 A 
HETATM   50  C   UNK N   1      22.261  13.168   9.473  0.00  0.00     0.003 A 
HETATM   51  C   UNK N   1      22.599  13.592   8.186  0.00  0.00     0.037 A 
ENDBRANCH  45  46
ENDBRANCH  44  45
ENDBRANCH   1  44
TORSDOF 17
ENDMDL
MODEL 3
REMARK VINA RESULT:      -7.6      2.852      4.888
REMARK  17 active torsions:
REMARK  status: ('A' for Active; 'I' for Inactive)
REMARK    1  A    between atoms: C_25  and  C_20 
REMARK    2  A    between atoms: N_36  and  C_20 
REMARK    3  A    between atoms: C_26  and  C_21 
REMARK    4  A    between atoms: N_37  and  C_21 
REMARK    5  A    between atoms: C_27  and  C_22 
REMARK    6  A    between atoms: O_38  and  C_22 
REMARK    7  A    between atoms: C_31  and  C_23 
REMARK    8  A    between atoms: O_45  and  C_23 
REMARK    9  A    between atoms: C_32  and  C_24 
REMARK   10  A    between atoms: O_46  and  C_24 
REMARK   11  A    between atoms: C_35  and  C_28 
REMARK   12  A    between atoms: O_45  and  C_29 
REMARK   13  A    between atoms: O_46  and  C_30 
REMARK   14  A    between atoms: C_33  and  O_39 
REMARK   15  A    between atoms: C_34  and  O_40 
REMARK   16  A    between atoms: C_35  and  O_41 
REMARK   17  A    between atoms: O_44  and  C_35 
ROOT
HETATM    1  C   UNK N   1      29.949  16.642   5.155  0.00  0.00     0.131 C 
HETATM    2  C   UNK N   1      33.384  16.615   5.748  0.00  0.00     0.131 C 
HETATM    3  C   UNK N   1      31.168  16.584   4.227  0.00  0.00     0.169 C 
HETATM    4  C   UNK N   1      32.450  15.896   4.731  0.00  0.00     0.169 C 
HETATM    5  N   UNK N   1      30.136  17.646   6.208  0.00  0.00    -0.184 NA
HETATM    6  N   UNK N   1      32.897  16.640   7.167  0.00  0.00    -0.184 NA
HETATM    7  O   UNK N   1      30.581  16.170   8.444  0.00  0.00    -0.194 OA
HETATM    8  O   UNK N   1      31.341  18.458   8.419  0.00  0.00    -0.194 OA
HETATM    9  S   UNK N   1      31.240  17.206   7.525  0.00  0.00     0.284 S 
ENDROOT
BRANCH   6  10
HETATM   10  C   UNK N   1      33.739  17.283   8.216  0.00  0.00     0.147 C 
BRANCH  10  11
HETATM   11  C   UNK N   1      34.112  16.466   9.403  0.00  0.00    -0.044 A 
HETATM   12  C   UNK N   1      35.198  16.847  10.196  0.00  0.00     0.009 A 
HETATM   13  C   UNK N   1      35.666  15.991  11.189  0.00  0.00     0.012 A 
HETATM   14  C   UNK N   1      35.030  14.767  11.422  0.00  0.00    -0.004 A 
HETATM   15  C   UNK N   1      33.889  14.424  10.679  0.00  0.00     0.012 A 
HETATM   16  C   UNK N   1      33.434  15.272   9.667  0.00  0.00     0.009 A 
BRANCH  14  17
HETATM   17  C   UNK N   1      35.646  13.759  12.355  0.00  0.00     0.290 C 
BRANCH  17  18
HETATM   18  O   UNK N   1      36.821  14.253  12.946  0.00  0.00    -0.367 OA
HETATM   19  H   UNK N   1      37.687  13.830  13.044  0.00  0.00     0.213 HD
ENDBRANCH  17  18
BRANCH  17  20
HETATM   20  O   UNK N   1      34.726  13.287  13.317  0.00  0.00    -0.362 OA
HETATM   21  C   UNK N   1      35.170  12.044  13.801  0.00  0.00     0.205 C 
ENDBRANCH  17  20
ENDBRANCH  14  17
ENDBRANCH  10  11
ENDBRANCH   6  10
BRANCH   2  22
HETATM   22  C   UNK N   1      34.718  15.803   5.726  0.00  0.00     0.199 C 
BRANCH  22  23
HETATM   23  O   UNK N   1      34.621  14.443   5.977  0.00  0.00    -0.349 OA
BRANCH  23  24
HETATM   24  C   UNK N   1      35.240  13.756   6.969  0.00  0.00     0.068 A 
HETATM   25  C   UNK N   1      36.434  14.204   7.554  0.00  0.00     0.037 A 
HETATM   26  C   UNK N   1      37.035  13.469   8.582  0.00  0.00     0.003 A 
HETATM   27  C   UNK N   1      36.449  12.280   9.027  0.00  0.00     0.000 A 
HETATM   28  C   UNK N   1      35.263  11.827   8.444  0.00  0.00     0.003 A 
HETATM   29  C   UNK N   1      34.662  12.563   7.419  0.00  0.00     0.037 A 
ENDBRANCH  23  24
ENDBRANCH  22  23
ENDBRANCH   2  22
BRANCH   4  30
HETATM   30  O   UNK N   1      32.204  14.582   5.139  0.00  0.00    -0.391 OA
HETATM   31  H   UNK N   1      32.353  13.627   5.230  0.00  0.00     0.210 HD
ENDBRANCH   4  30
BRANCH   5  32
HETATM   32  C   UNK N   1      28.884  18.252   6.719  0.00  0.00     0.147 C 
BRANCH  32  33
HETATM   33  C   UNK N   1      27.895  18.641   5.654  0.00  0.00    -0.044 A 
HETATM   34  C   UNK N   1      28.161  19.706   4.787  0.00  0.00     0.009 A 
HETATM   35  C   UNK N   1      27.210  20.099   3.840  0.00  0.00     0.010 A 
HETATM   36  C   UNK N   1      25.989  19.424   3.747  0.00  0.00    -0.035 A 
HETATM   37  C   UNK N   1      25.737  18.332   4.591  0.00  0.00     0.010 A 
HETATM   38  C   UNK N   1      26.690  17.939   5.535  0.00  0.00     0.009 A 
BRANCH  36  39
HETATM   39  C   UNK N   1      24.972  19.893   2.753  0.00  0.00     0.202 C 
BRANCH  39  40
HETATM   40  O   UNK N   1      25.419  21.010   2.042  0.00  0.00    -0.396 OA
HETATM   41  H   UNK N   1      26.150  21.546   2.389  0.00  0.00     0.209 HD
ENDBRANCH  39  40
ENDBRANCH  36  39
ENDBRANCH  32  33
ENDBRANCH   5  32
BRANCH   3  42
HETATM   42  O   UNK N   1      31.468  17.867   3.758  0.00  0.00    -0.391 OA
HETATM   43  H   UNK N   1      31.878  18.746   3.795  0.00  0.00     0.210 HD
ENDBRANCH   3  42
BRANCH   1  44
HETATM   44  C   UNK N   1      29.530  15.252   5.693  0.00  0.00     0.199 C 
BRANCH  44  45
HETATM   45  O   UNK N   1      29.003  14.456   4.692  0.00  0.00    -0.349 OA
BRANCH  45  46
HETATM   46  C   UNK N   1      27.810  14.668   4.084  0.00  0.00     0.068 A 
HETATM   47  C   UNK N   1      27.793  15.275   2.825  0.00  0.00     0.037 A 
HETATM   48  C   UNK N   1      26.577  15.540   2.187  0.00  0.00     0.003 A 
HETATM   49  C   UNK N   1      25.373  15.192   2.805  0.00  0.00     0.000 A 
HETATM   50  C   UNK N   1      25.382  14.575   4.057  0.00  0.00     0.003 A 
HETATM   51  C   UNK N   1      26.597  14.316   4.697  0.00  0.00     0.037 A 
ENDBRANCH  45  46
ENDBRANCH  44  45
ENDBRANCH   1  44
TORSDOF 17
ENDMDL
MODEL 4
REMARK VINA RESULT:      -7.4      1.856      2.402
REMARK  17 active torsions:
REMARK  status: ('A' for Active; 'I' for Inactive)
REMARK    1  A    between atoms: C_25  and  C_20 
REMARK    2  A    between atoms: N_36  and  C_20 
REMARK    3  A    between atoms: C_26  and  C_21 
REMARK    4  A    between atoms: N_37  and  C_21 
REMARK    5  A    between atoms: C_27  and  C_22 
REMARK    6  A    between atoms: O_38  and  C_22 
REMARK    7  A    between atoms: C_31  and  C_23 
REMARK    8  A    between atoms: O_45  and  C_23 
REMARK    9  A    between atoms: C_32  and  C_24 
REMARK   10  A    between atoms: O_46  and  C_24 
REMARK   11  A    between atoms: C_35  and  C_28 
REMARK   12  A    between atoms: O_45  and  C_29 
REMARK   13  A    between atoms: O_46  and  C_30 
REMARK   14  A    between atoms: C_33  and  O_39 
REMARK   15  A    between atoms: C_34  and  O_40 
REMARK   16  A    between atoms: C_35  and  O_41 
REMARK   17  A    between atoms: O_44  and  C_35 
ROOT
HETATM    1  C   UNK N   1      24.642  15.458   4.192  0.00  0.00     0.131 C 
HETATM    2  C   UNK N   1      27.752  15.331   2.622  0.00  0.00     0.131 C 
HETATM    3  C   UNK N   1      25.144  14.757   2.923  0.00  0.00     0.169 C 
HETATM    4  C   UNK N   1      26.612  14.298   2.862  0.00  0.00     0.169 C 
HETATM    5  N   UNK N   1      25.131  16.840   4.259  0.00  0.00    -0.184 NA
HETATM    6  N   UNK N   1      28.117  16.178   3.805  0.00  0.00    -0.184 NA
HETATM    7  O   UNK N   1      27.036  16.764   6.193  0.00  0.00    -0.194 OA
HETATM    8  O   UNK N   1      27.114  18.560   4.587  0.00  0.00    -0.194 OA
HETATM    9  S   UNK N   1      26.837  17.048   4.699  0.00  0.00     0.284 S 
ENDROOT
BRANCH   6  10
HETATM   10  C   UNK N   1      29.217  17.176   3.676  0.00  0.00     0.147 C 
BRANCH  10  11
HETATM   11  C   UNK N   1      30.493  16.899   4.392  0.00  0.00    -0.044 A 
HETATM   12  C   UNK N   1      30.467  16.524   5.737  0.00  0.00     0.009 A 
HETATM   13  C   UNK N   1      31.655  16.448   6.459  0.00  0.00     0.012 A 
HETATM   14  C   UNK N   1      32.879  16.709   5.832  0.00  0.00    -0.004 A 
HETATM   15  C   UNK N   1      32.907  17.004   4.460  0.00  0.00     0.012 A 
HETATM   16  C   UNK N   1      31.714  17.104   3.742  0.00  0.00     0.009 A 
BRANCH  14  17
HETATM   17  C   UNK N   1      34.139  16.818   6.647  0.00  0.00     0.290 C 
BRANCH  17  18
HETATM   18  O   UNK N   1      35.177  16.045   6.100  0.00  0.00    -0.367 OA
HETATM   19  H   UNK N   1      35.801  16.263   5.391  0.00  0.00     0.213 HD
ENDBRANCH  17  18
BRANCH  17  20
HETATM   20  O   UNK N   1      34.528  18.159   6.855  0.00  0.00    -0.362 OA
HETATM   21  C   UNK N   1      34.519  18.430   8.235  0.00  0.00     0.205 C 
ENDBRANCH  17  20
ENDBRANCH  14  17
ENDBRANCH  10  11
ENDBRANCH   6  10
BRANCH   2  22
HETATM   22  C   UNK N   1      29.007  14.478   2.253  0.00  0.00     0.199 C 
BRANCH  22  23
HETATM   23  O   UNK N   1      29.528  13.673   3.255  0.00  0.00    -0.349 OA
BRANCH  23  24
HETATM   24  C   UNK N   1      30.836  13.522   3.575  0.00  0.00     0.068 A 
HETATM   25  C   UNK N   1      31.862  13.733   2.642  0.00  0.00     0.037 A 
HETATM   26  C   UNK N   1      33.201  13.574   3.017  0.00  0.00     0.003 A 
HETATM   27  C   UNK N   1      33.521  13.200   4.326  0.00  0.00     0.000 A 
HETATM   28  C   UNK N   1      32.503  12.983   5.258  0.00  0.00     0.003 A 
HETATM   29  C   UNK N   1      31.166  13.143   4.883  0.00  0.00     0.037 A 
ENDBRANCH  23  24
ENDBRANCH  22  23
ENDBRANCH   2  22
BRANCH   4  30
HETATM   30  O   UNK N   1      26.934  13.456   3.929  0.00  0.00    -0.391 OA
HETATM   31  H   UNK N   1      26.965  13.141   4.846  0.00  0.00     0.210 HD
ENDBRANCH   4  30
BRANCH   5  32
HETATM   32  C   UNK N   1      24.253  17.775   4.999  0.00  0.00     0.147 C 
BRANCH  32  33
HETATM   33  C   UNK N   1      23.287  18.544   4.140  0.00  0.00    -0.044 A 
HETATM   34  C   UNK N   1      21.985  18.076   3.934  0.00  0.00     0.009 A 
HETATM   35  C   UNK N   1      21.114  18.765   3.086  0.00  0.00     0.010 A 
HETATM   36  C   UNK N   1      21.534  19.933   2.444  0.00  0.00    -0.035 A 
HETATM   37  C   UNK N   1      22.826  20.424   2.680  0.00  0.00     0.010 A 
HETATM   38  C   UNK N   1      23.695  19.736   3.530  0.00  0.00     0.009 A 
BRANCH  36  39
HETATM   39  C   UNK N   1      20.593  20.628   1.508  0.00  0.00     0.202 C 
BRANCH  39  40
HETATM   40  O   UNK N   1      20.845  22.000   1.443  0.00  0.00    -0.396 OA
HETATM   41  H   UNK N   1      20.406  22.605   2.062  0.00  0.00     0.209 HD
ENDBRANCH  39  40
ENDBRANCH  36  39
ENDBRANCH  32  33
ENDBRANCH   5  32
BRANCH   3  42
HETATM   42  O   UNK N   1      24.839  15.535   1.801  0.00  0.00    -0.391 OA
HETATM   43  H   UNK N   1      24.252  15.979   1.169  0.00  0.00     0.210 HD
ENDBRANCH   3  42
BRANCH   1  44
HETATM   44  C   UNK N   1      24.912  14.644   5.480  0.00  0.00     0.199 C 
BRANCH  44  45
HETATM   45  O   UNK N   1      23.772  13.996   5.922  0.00  0.00    -0.349 OA
BRANCH  45  46
HETATM   46  C   UNK N   1      22.551  14.574   6.038  0.00  0.00     0.068 A 
HETATM   47  C   UNK N   1      21.544  14.208   5.139  0.00  0.00     0.037 A 
HETATM   48  C   UNK N   1      20.285  14.812   5.209  0.00  0.00     0.003 A 
HETATM   49  C   UNK N   1      20.026  15.780   6.184  0.00  0.00     0.000 A 
HETATM   50  C   UNK N   1      21.023  16.142   7.091  0.00  0.00     0.003 A 
HETATM   51  C   UNK N   1      22.283  15.543   7.017  0.00  0.00     0.037 A 
ENDBRANCH  45  46
ENDBRANCH  44  45
ENDBRANCH   1  44
TORSDOF 17
ENDMDL
MODEL 5
REMARK VINA RESULT:      -7.2      5.524      9.946
REMARK  17 active torsions:
REMARK  status: ('A' for Active; 'I' for Inactive)
REMARK    1  A    between atoms: C_25  and  C_20 
REMARK    2  A    between atoms: N_36  and  C_20 
REMARK    3  A    between atoms: C_26  and  C_21 
REMARK    4  A    between atoms: N_37  and  C_21 
REMARK    5  A    between atoms: C_27  and  C_22 
REMARK    6  A    between atoms: O_38  and  C_22 
REMARK    7  A    between atoms: C_31  and  C_23 
REMARK    8  A    between atoms: O_45  and  C_23 
REMARK    9  A    between atoms: C_32  and  C_24 
REMARK   10  A    between atoms: O_46  and  C_24 
REMARK   11  A    between atoms: C_35  and  C_28 
REMARK   12  A    between atoms: O_45  and  C_29 
REMARK   13  A    between atoms: O_46  and  C_30 
REMARK   14  A    between atoms: C_33  and  O_39 
REMARK   15  A    between atoms: C_34  and  O_40 
REMARK   16  A    between atoms: C_35  and  O_41 
REMARK   17  A    between atoms: O_44  and  C_35 
ROOT
HETATM    1  C   UNK N   1      33.958  15.207   7.893  0.00  0.00     0.131 C 
HETATM    2  C   UNK N   1      34.617  13.960  11.081  0.00  0.00     0.131 C 
HETATM    3  C   UNK N   1      34.147  15.879   9.258  0.00  0.00     0.169 C 
HETATM    4  C   UNK N   1      35.082  15.217  10.287  0.00  0.00     0.169 C 
HETATM    5  N   UNK N   1      33.090  14.029   8.001  0.00  0.00    -0.184 NA
HETATM    6  N   UNK N   1      34.627  12.671  10.315  0.00  0.00    -0.184 NA
HETATM    7  O   UNK N   1      34.799  11.934   7.737  0.00  0.00    -0.194 OA
HETATM    8  O   UNK N   1      32.679  11.547   8.819  0.00  0.00    -0.194 OA
HETATM    9  S   UNK N   1      33.818  12.581   8.723  0.00  0.00     0.284 S 
ENDROOT
BRANCH   6  10
HETATM   10  C   UNK N   1      34.224  11.411  11.002  0.00  0.00     0.147 C 
BRANCH  10  11
HETATM   11  C   UNK N   1      35.289  10.417  11.309  0.00  0.00    -0.044 A 
HETATM   12  C   UNK N   1      34.956   9.209  11.927  0.00  0.00     0.009 A 
HETATM   13  C   UNK N   1      35.963   8.364  12.385  0.00  0.00     0.012 A 
HETATM   14  C   UNK N   1      37.308   8.700  12.194  0.00  0.00    -0.004 A 
HETATM   15  C   UNK N   1      37.638   9.874  11.500  0.00  0.00     0.012 A 
HETATM   16  C   UNK N   1      36.629  10.734  11.061  0.00  0.00     0.009 A 
BRANCH  14  17
HETATM   17  C   UNK N   1      38.391   7.892  12.855  0.00  0.00     0.290 C 
BRANCH  17  18
HETATM   18  O   UNK N   1      39.639   8.101  12.242  0.00  0.00    -0.367 OA
HETATM   19  H   UNK N   1      40.135   8.924  12.120  0.00  0.00     0.213 HD
ENDBRANCH  17  18
BRANCH  17  20
HETATM   20  O   UNK N   1      38.443   8.103  14.250  0.00  0.00    -0.362 OA
HETATM   21  C   UNK N   1      39.669   8.711  14.575  0.00  0.00     0.205 C 
ENDBRANCH  17  20
ENDBRANCH  14  17
ENDBRANCH  10  11
ENDBRANCH   6  10
BRANCH   2  22
HETATM   22  C   UNK N   1      35.640  13.815  12.253  0.00  0.00     0.199 C 
BRANCH  22  23
HETATM   23  O   UNK N   1      35.111  13.575  13.512  0.00  0.00    -0.349 OA
BRANCH  23  24
HETATM   24  C   UNK N   1      35.243  12.442  14.244  0.00  0.00     0.068 A 
HETATM   25  C   UNK N   1      34.136  11.679  14.645  0.00  0.00     0.037 A 
HETATM   26  C   UNK N   1      34.318  10.511  15.393  0.00  0.00     0.003 A 
HETATM   27  C   UNK N   1      35.606  10.101  15.748  0.00  0.00     0.000 A 
HETATM   28  C   UNK N   1      36.712  10.859  15.357  0.00  0.00     0.003 A 
HETATM   29  C   UNK N   1      36.530  12.026  14.608  0.00  0.00     0.037 A 
ENDBRANCH  23  24
ENDBRANCH  22  23
ENDBRANCH   2  22
BRANCH   4  30
HETATM   30  O   UNK N   1      36.364  15.018   9.767  0.00  0.00    -0.391 OA
HETATM   31  H   UNK N   1      37.319  15.149   9.660  0.00  0.00     0.210 HD
ENDBRANCH   4  30
BRANCH   5  32
HETATM   32  C   UNK N   1      32.324  13.707   6.775  0.00  0.00     0.147 C 
BRANCH  32  33
HETATM   33  C   UNK N   1      31.261  14.709   6.417  0.00  0.00    -0.044 A 
HETATM   34  C   UNK N   1      30.446  14.516   5.296  0.00  0.00     0.009 A 
HETATM   35  C   UNK N   1      29.502  15.482   4.936  0.00  0.00     0.010 A 
HETATM   36  C   UNK N   1      29.358  16.645   5.699  0.00  0.00    -0.035 A 
HETATM   37  C   UNK N   1      30.148  16.821   6.844  0.00  0.00     0.010 A 
HETATM   38  C   UNK N   1      31.089  15.853   7.204  0.00  0.00     0.009 A 
BRANCH  36  39
HETATM   39  C   UNK N   1      28.368  17.681   5.266  0.00  0.00     0.202 C 
BRANCH  39  40
HETATM   40  O   UNK N   1      28.872  18.483   4.238  0.00  0.00    -0.396 OA
HETATM   41  H   UNK N   1      28.390  19.278   3.961  0.00  0.00     0.209 HD
ENDBRANCH  39  40
ENDBRANCH  36  39
ENDBRANCH  32  33
ENDBRANCH   5  32
BRANCH   3  42
HETATM   42  O   UNK N   1      32.899  16.129   9.839  0.00  0.00    -0.391 OA
HETATM   43  H   UNK N   1      32.287  16.540  10.470  0.00  0.00     0.210 HD
ENDBRANCH   3  42
BRANCH   1  44
HETATM   44  C   UNK N   1      35.296  14.924   7.167  0.00  0.00     0.199 C 
BRANCH  44  45
HETATM   45  O   UNK N   1      35.468  15.756   6.075  0.00  0.00    -0.349 OA
BRANCH  45  46
HETATM   46  C   UNK N   1      34.493  16.084   5.191  0.00  0.00     0.068 A 
HETATM   47  C   UNK N   1      34.227  15.216   4.128  0.00  0.00     0.037 A 
HETATM   48  C   UNK N   1      33.254  15.542   3.179  0.00  0.00     0.003 A 
HETATM   49  C   UNK N   1      32.537  16.737   3.295  0.00  0.00     0.000 A 
HETATM   50  C   UNK N   1      32.789  17.603   4.360  0.00  0.00     0.003 A 
HETATM   51  C   UNK N   1      33.766  17.280   5.305  0.00  0.00     0.037 A 
ENDBRANCH  45  46
ENDBRANCH  44  45
ENDBRANCH   1  44
TORSDOF 17
ENDMDL
MODEL 6
REMARK VINA RESULT:      -7.1      5.637      9.737
REMARK  17 active torsions:
REMARK  status: ('A' for Active; 'I' for Inactive)
REMARK    1  A    between atoms: C_25  and  C_20 
REMARK    2  A    between atoms: N_36  and  C_20 
REMARK    3  A    between atoms: C_26  and  C_21 
REMARK    4  A    between atoms: N_37  and  C_21 
REMARK    5  A    between atoms: C_27  and  C_22 
REMARK    6  A    between atoms: O_38  and  C_22 
REMARK    7  A    between atoms: C_31  and  C_23 
REMARK    8  A    between atoms: O_45  and  C_23 
REMARK    9  A    between atoms: C_32  and  C_24 
REMARK   10  A    between atoms: O_46  and  C_24 
REMARK   11  A    between atoms: C_35  and  C_28 
REMARK   12  A    between atoms: O_45  and  C_29 
REMARK   13  A    between atoms: O_46  and  C_30 
REMARK   14  A    between atoms: C_33  and  O_39 
REMARK   15  A    between atoms: C_34  and  O_40 
REMARK   16  A    between atoms: C_35  and  O_41 
REMARK   17  A    between atoms: O_44  and  C_35 
ROOT
HETATM    1  C   UNK N   1      34.303  14.698   7.729  0.00  0.00     0.131 C 
HETATM    2  C   UNK N   1      36.796  13.617   9.913  0.00  0.00     0.131 C 
HETATM    3  C   UNK N   1      35.617  13.936   7.519  0.00  0.00     0.169 C 
HETATM    4  C   UNK N   1      36.128  13.015   8.642  0.00  0.00     0.169 C 
HETATM    5  N   UNK N   1      34.491  15.830   8.643  0.00  0.00    -0.184 NA
HETATM    6  N   UNK N   1      35.857  14.231  10.909  0.00  0.00    -0.184 NA
HETATM    7  O   UNK N   1      33.290  15.022  10.940  0.00  0.00    -0.194 OA
HETATM    8  O   UNK N   1      34.946  16.768  11.074  0.00  0.00    -0.194 OA
HETATM    9  S   UNK N   1      34.651  15.432  10.364  0.00  0.00     0.284 S 
ENDROOT
BRANCH   6  10
HETATM   10  C   UNK N   1      36.405  14.808  12.169  0.00  0.00     0.147 C 
BRANCH  10  11
HETATM   11  C   UNK N   1      36.026  14.156  13.453  0.00  0.00    -0.044 A 
HETATM   12  C   UNK N   1      36.812  14.352  14.591  0.00  0.00     0.009 A 
HETATM   13  C   UNK N   1      36.571  13.601  15.738  0.00  0.00     0.012 A 
HETATM   14  C   UNK N   1      35.521  12.676  15.768  0.00  0.00    -0.004 A 
HETATM   15  C   UNK N   1      34.683  12.541  14.651  0.00  0.00     0.012 A 
HETATM   16  C   UNK N   1      34.938  13.278  13.492  0.00  0.00     0.009 A 
BRANCH  14  17
HETATM   17  C   UNK N   1      35.381  11.729  16.929  0.00  0.00     0.290 C 
BRANCH  17  18
HETATM   18  O   UNK N   1      34.953  12.394  18.090  0.00  0.00    -0.367 OA
HETATM   19  H   UNK N   1      35.475  12.744  18.828  0.00  0.00     0.213 HD
ENDBRANCH  17  18
BRANCH  17  20
HETATM   20  O   UNK N   1      34.561  10.621  16.620  0.00  0.00    -0.362 OA
HETATM   21  C   UNK N   1      34.637   9.690  17.670  0.00  0.00     0.205 C 
ENDBRANCH  17  20
ENDBRANCH  14  17
ENDBRANCH  10  11
ENDBRANCH   6  10
BRANCH   2  22
HETATM   22  C   UNK N   1      37.500  12.413  10.616  0.00  0.00     0.199 C 
BRANCH  22  23
HETATM   23  O   UNK N   1      36.674  11.440  11.156  0.00  0.00    -0.349 OA
BRANCH  23  24
HETATM   24  C   UNK N   1      36.864  10.769  12.319  0.00  0.00     0.068 A 
HETATM   25  C   UNK N   1      36.024   9.721  12.722  0.00  0.00     0.037 A 
HETATM   26  C   UNK N   1      36.262   9.049  13.927  0.00  0.00     0.003 A 
HETATM   27  C   UNK N   1      37.338   9.425  14.736  0.00  0.00     0.000 A 
HETATM   28  C   UNK N   1      38.174  10.472  14.343  0.00  0.00     0.003 A 
HETATM   29  C   UNK N   1      37.937  11.141  13.139  0.00  0.00     0.037 A 
ENDBRANCH  23  24
ENDBRANCH  22  23
ENDBRANCH   2  22
BRANCH   4  30
HETATM   30  O   UNK N   1      35.173  12.059   9.000  0.00  0.00    -0.391 OA
HETATM   31  H   UNK N   1      34.747  11.374   9.539  0.00  0.00     0.210 HD
ENDBRANCH   4  30
BRANCH   5  32
HETATM   32  C   UNK N   1      33.567  16.966   8.424  0.00  0.00     0.147 C 
BRANCH  32  33
HETATM   33  C   UNK N   1      33.032  17.081   7.022  0.00  0.00    -0.044 A 
HETATM   34  C   UNK N   1      31.654  17.065   6.780  0.00  0.00     0.009 A 
HETATM   35  C   UNK N   1      31.168  17.111   5.470  0.00  0.00     0.010 A 
HETATM   36  C   UNK N   1      32.055  17.182   4.392  0.00  0.00    -0.035 A 
HETATM   37  C   UNK N   1      33.435  17.236   4.636  0.00  0.00     0.010 A 
HETATM   38  C   UNK N   1      33.919  17.193   5.945  0.00  0.00     0.009 A 
BRANCH  36  39
HETATM   39  C   UNK N   1      31.508  17.188   2.998  0.00  0.00     0.202 C 
BRANCH  39  40
HETATM   40  O   UNK N   1      30.114  17.090   2.988  0.00  0.00    -0.396 OA
HETATM   41  H   UNK N   1      29.685  16.291   2.643  0.00  0.00     0.209 HD
ENDBRANCH  39  40
ENDBRANCH  36  39
ENDBRANCH  32  33
ENDBRANCH   5  32
BRANCH   3  42
HETATM   42  O   UNK N   1      36.626  14.827   7.137  0.00  0.00    -0.391 OA
HETATM   43  H   UNK N   1      37.430  15.354   7.264  0.00  0.00     0.210 HD
ENDBRANCH   3  42
BRANCH   1  44
HETATM   44  C   UNK N   1      33.125  13.775   8.124  0.00  0.00     0.199 C 
BRANCH  44  45
HETATM   45  O   UNK N   1      32.862  12.837   7.141  0.00  0.00    -0.349 OA
BRANCH  45  46
HETATM   46  C   UNK N   1      32.527  13.132   5.860  0.00  0.00     0.068 A 
HETATM   47  C   UNK N   1      31.200  13.455   5.567  0.00  0.00     0.037 A 
HETATM   48  C   UNK N   1      30.815  13.727   4.251  0.00  0.00     0.003 A 
HETATM   49  C   UNK N   1      31.761  13.684   3.222  0.00  0.00     0.000 A 
HETATM   50  C   UNK N   1      33.091  13.373   3.510  0.00  0.00     0.003 A 
HETATM   51  C   UNK N   1      33.474  13.095   4.824  0.00  0.00     0.037 A 
ENDBRANCH  45  46
ENDBRANCH  44  45
ENDBRANCH   1  44
TORSDOF 17
ENDMDL
MODEL 7
REMARK VINA RESULT:      -7.1      4.981     11.752
REMARK  17 active torsions:
REMARK  status: ('A' for Active; 'I' for Inactive)
REMARK    1  A    between atoms: C_25  and  C_20 
REMARK    2  A    between atoms: N_36  and  C_20 
REMARK    3  A    between atoms: C_26  and  C_21 
REMARK    4  A    between atoms: N_37  and  C_21 
REMARK    5  A    between atoms: C_27  and  C_22 
REMARK    6  A    between atoms: O_38  and  C_22 
REMARK    7  A    between atoms: C_31  and  C_23 
REMARK    8  A    between atoms: O_45  and  C_23 
REMARK    9  A    between atoms: C_32  and  C_24 
REMARK   10  A    between atoms: O_46  and  C_24 
REMARK   11  A    between atoms: C_35  and  C_28 
REMARK   12  A    between atoms: O_45  and  C_29 
REMARK   13  A    between atoms: O_46  and  C_30 
REMARK   14  A    between atoms: C_33  and  O_39 
REMARK   15  A    between atoms: C_34  and  O_40 
REMARK   16  A    between atoms: C_35  and  O_41 
REMARK   17  A    between atoms: O_44  and  C_35 
ROOT
HETATM    1  C   UNK N   1      36.171  13.901  11.196  0.00  0.00     0.131 C 
HETATM    2  C   UNK N   1      34.759  16.280   9.075  0.00  0.00     0.131 C 
HETATM    3  C   UNK N   1      35.827  15.385  11.373  0.00  0.00     0.169 C 
HETATM    4  C   UNK N   1      34.632  15.966  10.595  0.00  0.00     0.169 C 
HETATM    5  N   UNK N   1      36.830  13.664   9.906  0.00  0.00    -0.184 NA
HETATM    6  N   UNK N   1      34.712  15.090   8.163  0.00  0.00    -0.184 NA
HETATM    7  O   UNK N   1      34.924  12.424   8.420  0.00  0.00    -0.194 OA
HETATM    8  O   UNK N   1      36.728  13.533   7.266  0.00  0.00    -0.194 OA
HETATM    9  S   UNK N   1      35.784  13.694   8.474  0.00  0.00     0.284 S 
ENDROOT
BRANCH   6  10
HETATM   10  C   UNK N   1      34.799  15.297   6.689  0.00  0.00     0.147 C 
BRANCH  10  11
HETATM   11  C   UNK N   1      33.587  15.002   5.875  0.00  0.00    -0.044 A 
HETATM   12  C   UNK N   1      33.338  15.731   4.709  0.00  0.00     0.009 A 
HETATM   13  C   UNK N   1      32.120  15.592   4.051  0.00  0.00     0.012 A 
HETATM   14  C   UNK N   1      31.158  14.696   4.530  0.00  0.00    -0.004 A 
HETATM   15  C   UNK N   1      31.444  13.905   5.654  0.00  0.00     0.012 A 
HETATM   16  C   UNK N   1      32.657  14.062   6.328  0.00  0.00     0.009 A 
BRANCH  14  17
HETATM   17  C   UNK N   1      29.773  14.685   3.940  0.00  0.00     0.290 C 
BRANCH  17  18
HETATM   18  O   UNK N   1      28.785  14.697   4.939  0.00  0.00    -0.367 OA
HETATM   19  H   UNK N   1      28.307  15.446   5.324  0.00  0.00     0.213 HD
ENDBRANCH  17  18
BRANCH  17  20
HETATM   20  O   UNK N   1      29.585  15.716   2.995  0.00  0.00    -0.362 OA
HETATM   21  C   UNK N   1      28.511  16.524   3.408  0.00  0.00     0.205 C 
ENDBRANCH  17  20
ENDBRANCH  14  17
ENDBRANCH  10  11
ENDBRANCH   6  10
BRANCH   2  22
HETATM   22  C   UNK N   1      33.525  17.176   8.737  0.00  0.00     0.199 C 
BRANCH  22  23
HETATM   23  O   UNK N   1      32.284  16.559   8.763  0.00  0.00    -0.349 OA
BRANCH  23  24
HETATM   24  C   UNK N   1      31.090  17.127   8.460  0.00  0.00     0.068 A 
HETATM   25  C   UNK N   1      30.535  17.055   7.174  0.00  0.00     0.037 A 
HETATM   26  C   UNK N   1      29.296  17.647   6.905  0.00  0.00     0.003 A 
HETATM   27  C   UNK N   1      28.608  18.318   7.920  0.00  0.00     0.000 A 
HETATM   28  C   UNK N   1      29.158  18.398   9.202  0.00  0.00     0.003 A 
HETATM   29  C   UNK N   1      30.395  17.804   9.469  0.00  0.00     0.037 A 
ENDBRANCH  23  24
ENDBRANCH  22  23
ENDBRANCH   2  22
BRANCH   4  30
HETATM   30  O   UNK N   1      33.456  15.257  10.850  0.00  0.00    -0.391 OA
HETATM   31  H   UNK N   1      32.710  14.661  10.672  0.00  0.00     0.210 HD
ENDBRANCH   4  30
BRANCH   5  32
HETATM   32  C   UNK N   1      37.759  12.511   9.885  0.00  0.00     0.147 C 
BRANCH  32  33
HETATM   33  C   UNK N   1      37.457  11.441  10.900  0.00  0.00    -0.044 A 
HETATM   34  C   UNK N   1      37.968  11.525  12.199  0.00  0.00     0.009 A 
HETATM   35  C   UNK N   1      37.733  10.498  13.117  0.00  0.00     0.010 A 
HETATM   36  C   UNK N   1      36.975   9.382  12.746  0.00  0.00    -0.035 A 
HETATM   37  C   UNK N   1      36.430   9.316  11.456  0.00  0.00     0.010 A 
HETATM   38  C   UNK N   1      36.664  10.345  10.541  0.00  0.00     0.009 A 
BRANCH  36  39
HETATM   39  C   UNK N   1      36.774   8.277  13.737  0.00  0.00     0.202 C 
BRANCH  39  40
HETATM   40  O   UNK N   1      35.601   7.562  13.485  0.00  0.00    -0.396 OA
HETATM   41  H   UNK N   1      34.740   7.935  13.733  0.00  0.00     0.209 HD
ENDBRANCH  39  40
ENDBRANCH  36  39
ENDBRANCH  32  33
ENDBRANCH   5  32
BRANCH   3  42
HETATM   42  O   UNK N   1      36.966  16.165  11.152  0.00  0.00    -0.391 OA
HETATM   43  H   UNK N   1      37.911  16.321  10.993  0.00  0.00     0.210 HD
ENDBRANCH   3  42
BRANCH   1  44
HETATM   44  C   UNK N   1      34.967  12.964  11.456  0.00  0.00     0.199 C 
BRANCH  44  45
HETATM   45  O   UNK N   1      34.407  13.189  12.701  0.00  0.00    -0.349 OA
BRANCH  45  46
HETATM   46  C   UNK N   1      34.635  12.429  13.801  0.00  0.00     0.068 A 
HETATM   47  C   UNK N   1      35.545  12.886  14.759  0.00  0.00     0.037 A 
HETATM   48  C   UNK N   1      35.830  12.108  15.886  0.00  0.00     0.003 A 
HETATM   49  C   UNK N   1      35.201  10.873  16.061  0.00  0.00     0.000 A 
HETATM   50  C   UNK N   1      34.283  10.416  15.114  0.00  0.00     0.003 A 
HETATM   51  C   UNK N   1      34.003  11.189  13.985  0.00  0.00     0.037 A 
ENDBRANCH  45  46
ENDBRANCH  44  45
ENDBRANCH   1  44
TORSDOF 17
ENDMDL
MODEL 8
REMARK VINA RESULT:      -7.1      6.683     13.154
REMARK  17 active torsions:
REMARK  status: ('A' for Active; 'I' for Inactive)
REMARK    1  A    between atoms: C_25  and  C_20 
REMARK    2  A    between atoms: N_36  and  C_20 
REMARK    3  A    between atoms: C_26  and  C_21 
REMARK    4  A    between atoms: N_37  and  C_21 
REMARK    5  A    between atoms: C_27  and  C_22 
REMARK    6  A    between atoms: O_38  and  C_22 
REMARK    7  A    between atoms: C_31  and  C_23 
REMARK    8  A    between atoms: O_45  and  C_23 
REMARK    9  A    between atoms: C_32  and  C_24 
REMARK   10  A    between atoms: O_46  and  C_24 
REMARK   11  A    between atoms: C_35  and  C_28 
REMARK   12  A    between atoms: O_45  and  C_29 
REMARK   13  A    between atoms: O_46  and  C_30 
REMARK   14  A    between atoms: C_33  and  O_39 
REMARK   15  A    between atoms: C_34  and  O_40 
REMARK   16  A    between atoms: C_35  and  O_41 
REMARK   17  A    between atoms: O_44  and  C_35 
ROOT
HETATM    1  C   UNK N   1      35.943  11.310  13.004  0.00  0.00     0.131 C 
HETATM    2  C   UNK N   1      36.462  13.794  10.614  0.00  0.00     0.131 C 
HETATM    3  C   UNK N   1      36.628  12.681  13.055  0.00  0.00     0.169 C 
HETATM    4  C   UNK N   1      36.114  13.801  12.131  0.00  0.00     0.169 C 
HETATM    5  N   UNK N   1      36.336  10.569  11.800  0.00  0.00    -0.184 NA
HETATM    6  N   UNK N   1      35.691  12.816   9.777  0.00  0.00    -0.184 NA
HETATM    7  O   UNK N   1      34.130  10.675  10.220  0.00  0.00    -0.194 OA
HETATM    8  O   UNK N   1      36.261  10.246   9.175  0.00  0.00    -0.194 OA
HETATM    9  S   UNK N   1      35.603  11.102  10.275  0.00  0.00     0.284 S 
ENDROOT
BRANCH   6  10
HETATM   10  C   UNK N   1      35.939  12.759   8.308  0.00  0.00     0.147 C 
BRANCH  10  11
HETATM   11  C   UNK N   1      34.976  13.460   7.415  0.00  0.00    -0.044 A 
HETATM   12  C   UNK N   1      33.658  13.009   7.322  0.00  0.00     0.009 A 
HETATM   13  C   UNK N   1      32.810  13.539   6.354  0.00  0.00     0.012 A 
HETATM   14  C   UNK N   1      33.261  14.549   5.497  0.00  0.00    -0.004 A 
HETATM   15  C   UNK N   1      34.560  15.058   5.648  0.00  0.00     0.012 A 
HETATM   16  C   UNK N   1      35.419  14.510   6.604  0.00  0.00     0.009 A 
BRANCH  14  17
HETATM   17  C   UNK N   1      32.417  14.985   4.330  0.00  0.00     0.290 C 
BRANCH  17  18
HETATM   18  O   UNK N   1      31.169  14.339   4.324  0.00  0.00    -0.367 OA
HETATM   19  H   UNK N   1      30.335  14.612   3.915  0.00  0.00     0.213 HD
ENDBRANCH  17  18
BRANCH  17  20
HETATM   20  O   UNK N   1      32.288  16.389   4.256  0.00  0.00    -0.362 OA
HETATM   21  C   UNK N   1      32.363  16.785   2.909  0.00  0.00     0.205 C 
ENDBRANCH  17  20
ENDBRANCH  14  17
ENDBRANCH  10  11
ENDBRANCH   6  10
BRANCH   2  22
HETATM   22  C   UNK N   1      36.106  15.227  10.105  0.00  0.00     0.199 C 
BRANCH  22  23
HETATM   23  O   UNK N   1      34.794  15.640  10.279  0.00  0.00    -0.349 OA
BRANCH  23  24
HETATM   24  C   UNK N   1      34.030  16.311   9.383  0.00  0.00     0.068 A 
HETATM   25  C   UNK N   1      32.697  15.959   9.128  0.00  0.00     0.037 A 
HETATM   26  C   UNK N   1      31.940  16.684   8.201  0.00  0.00     0.003 A 
HETATM   27  C   UNK N   1      32.514  17.764   7.522  0.00  0.00     0.000 A 
HETATM   28  C   UNK N   1      33.843  18.116   7.768  0.00  0.00     0.003 A 
HETATM   29  C   UNK N   1      34.597  17.392   8.695  0.00  0.00     0.037 A 
ENDBRANCH  23  24
ENDBRANCH  22  23
ENDBRANCH   2  22
BRANCH   4  30
HETATM   30  O   UNK N   1      34.749  14.037  12.317  0.00  0.00    -0.391 OA
HETATM   31  H   UNK N   1      33.950  14.509  12.600  0.00  0.00     0.210 HD
ENDBRANCH   4  30
BRANCH   5  32
HETATM   32  C   UNK N   1      36.306   9.094  11.940  0.00  0.00     0.147 C 
BRANCH  32  33
HETATM   33  C   UNK N   1      36.738   8.582  13.287  0.00  0.00    -0.044 A 
HETATM   34  C   UNK N   1      35.920   7.712  14.016  0.00  0.00     0.009 A 
HETATM   35  C   UNK N   1      36.301   7.288  15.291  0.00  0.00     0.010 A 
HETATM   36  C   UNK N   1      37.509   7.723  15.846  0.00  0.00    -0.035 A 
HETATM   37  C   UNK N   1      38.348   8.564  15.100  0.00  0.00     0.010 A 
HETATM   38  C   UNK N   1      37.966   8.985  13.824  0.00  0.00     0.009 A 
BRANCH  36  39
HETATM   39  C   UNK N   1      37.872   7.287  17.231  0.00  0.00     0.202 C 
BRANCH  39  40
HETATM   40  O   UNK N   1      37.241   6.091  17.581  0.00  0.00    -0.396 OA
HETATM   41  H   UNK N   1      37.750   5.375  17.994  0.00  0.00     0.209 HD
ENDBRANCH  39  40
ENDBRANCH  36  39
ENDBRANCH  32  33
ENDBRANCH   5  32
BRANCH   3  42
HETATM   42  O   UNK N   1      38.009  12.526  12.894  0.00  0.00    -0.391 OA
HETATM   43  H   UNK N   1      38.845  12.034  12.879  0.00  0.00     0.210 HD
ENDBRANCH   3  42
BRANCH   1  44
HETATM   44  C   UNK N   1      34.411  11.390  13.207  0.00  0.00     0.199 C 
BRANCH  44  45
HETATM   45  O   UNK N   1      34.084  12.148  14.318  0.00  0.00    -0.349 OA
BRANCH  45  46
HETATM   46  C   UNK N   1      34.509  11.893  15.579  0.00  0.00     0.068 A 
HETATM   47  C   UNK N   1      34.639  10.564  15.992  0.00  0.00     0.037 A 
HETATM   48  C   UNK N   1      35.040  10.268  17.298  0.00  0.00     0.003 A 
HETATM   49  C   UNK N   1      35.321  11.303  18.196  0.00  0.00     0.000 A 
HETATM   50  C   UNK N   1      35.204  12.632  17.787  0.00  0.00     0.003 A 
HETATM   51  C   UNK N   1      34.797  12.928  16.484  0.00  0.00     0.037 A 
ENDBRANCH  45  46
ENDBRANCH  44  45
ENDBRANCH   1  44
TORSDOF 17
ENDMDL
MODEL 9
REMARK VINA RESULT:      -6.9      2.629      3.199
REMARK  17 active torsions:
REMARK  status: ('A' for Active; 'I' for Inactive)
REMARK    1  A    between atoms: C_25  and  C_20 
REMARK    2  A    between atoms: N_36  and  C_20 
REMARK    3  A    between atoms: C_26  and  C_21 
REMARK    4  A    between atoms: N_37  and  C_21 
REMARK    5  A    between atoms: C_27  and  C_22 
REMARK    6  A    between atoms: O_38  and  C_22 
REMARK    7  A    between atoms: C_31  and  C_23 
REMARK    8  A    between atoms: O_45  and  C_23 
REMARK    9  A    between atoms: C_32  and  C_24 
REMARK   10  A    between atoms: O_46  and  C_24 
REMARK   11  A    between atoms: C_35  and  C_28 
REMARK   12  A    between atoms: O_45  and  C_29 
REMARK   13  A    between atoms: O_46  and  C_30 
REMARK   14  A    between atoms: C_33  and  O_39 
REMARK   15  A    between atoms: C_34  and  O_40 
REMARK   16  A    between atoms: C_35  and  O_41 
REMARK   17  A    between atoms: O_44  and  C_35 
ROOT
HETATM    1  C   UNK N   1      26.952  13.574   3.661  0.00  0.00     0.131 C 
HETATM    2  C   UNK N   1      30.354  14.223   3.263  0.00  0.00     0.131 C 
HETATM    3  C   UNK N   1      28.092  12.796   2.992  0.00  0.00     0.169 C 
HETATM    4  C   UNK N   1      29.518  12.942   3.555  0.00  0.00     0.169 C 
HETATM    5  N   UNK N   1      27.004  14.996   3.304  0.00  0.00    -0.184 NA
HETATM    6  N   UNK N   1      29.971  15.439   4.053  0.00  0.00    -0.184 NA
HETATM    7  O   UNK N   1      27.889  16.205   5.568  0.00  0.00    -0.194 OA
HETATM    8  O   UNK N   1      28.169  17.365   3.473  0.00  0.00    -0.194 OA
HETATM    9  S   UNK N   1      28.262  15.960   4.101  0.00  0.00     0.284 S 
ENDROOT
BRANCH   6  10
HETATM   10  C   UNK N   1      30.735  16.705   3.860  0.00  0.00     0.147 C 
BRANCH  10  11
HETATM   11  C   UNK N   1      31.627  17.152   4.965  0.00  0.00    -0.044 A 
HETATM   12  C   UNK N   1      32.920  17.594   4.678  0.00  0.00     0.009 A 
HETATM   13  C   UNK N   1      33.817  17.832   5.715  0.00  0.00     0.012 A 
HETATM   14  C   UNK N   1      33.417  17.667   7.046  0.00  0.00    -0.004 A 
HETATM   15  C   UNK N   1      32.093  17.302   7.332  0.00  0.00     0.012 A 
HETATM   16  C   UNK N   1      31.199  17.040   6.292  0.00  0.00     0.009 A 
BRANCH  14  17
HETATM   17  C   UNK N   1      34.432  17.734   8.155  0.00  0.00     0.290 C 
BRANCH  17  18
HETATM   18  O   UNK N   1      34.953  19.031   8.302  0.00  0.00    -0.367 OA
HETATM   19  H   UNK N   1      34.523  19.888   8.161  0.00  0.00     0.213 HD
ENDBRANCH  17  18
BRANCH  17  20
HETATM   20  O   UNK N   1      33.931  17.222   9.372  0.00  0.00    -0.362 OA
HETATM   21  C   UNK N   1      35.008  16.782  10.162  0.00  0.00     0.205 C 
ENDBRANCH  17  20
ENDBRANCH  14  17
ENDBRANCH  10  11
ENDBRANCH   6  10
BRANCH   2  22
HETATM   22  C   UNK N   1      31.820  13.854   3.656  0.00  0.00     0.199 C 
BRANCH  22  23
HETATM   23  O   UNK N   1      32.072  13.662   5.006  0.00  0.00    -0.349 OA
BRANCH  23  24
HETATM   24  C   UNK N   1      33.234  13.911   5.658  0.00  0.00     0.068 A 
HETATM   25  C   UNK N   1      34.402  14.291   4.980  0.00  0.00     0.037 A 
HETATM   26  C   UNK N   1      35.579  14.547   5.692  0.00  0.00     0.003 A 
HETATM   27  C   UNK N   1      35.596  14.422   7.084  0.00  0.00     0.000 A 
HETATM   28  C   UNK N   1      34.437  14.039   7.764  0.00  0.00     0.003 A 
HETATM   29  C   UNK N   1      33.261  13.784   7.052  0.00  0.00     0.037 A 
ENDBRANCH  23  24
ENDBRANCH  22  23
ENDBRANCH   2  22
BRANCH   4  30
HETATM   30  O   UNK N   1      29.571  12.624   4.915  0.00  0.00    -0.391 OA
HETATM   31  H   UNK N   1      29.888  12.193   5.724  0.00  0.00     0.210 HD
ENDBRANCH   4  30
BRANCH   5  32
HETATM   32  C   UNK N   1      25.694  15.687   3.310  0.00  0.00     0.147 C 
BRANCH  32  33
HETATM   33  C   UNK N   1      24.591  14.950   2.600  0.00  0.00    -0.044 A 
HETATM   34  C   UNK N   1      24.730  14.577   1.258  0.00  0.00     0.009 A 
HETATM   35  C   UNK N   1      23.678  13.946   0.589  0.00  0.00     0.010 A 
HETATM   36  C   UNK N   1      22.481  13.673   1.258  0.00  0.00    -0.035 A 
HETATM   37  C   UNK N   1      22.355  14.011   2.614  0.00  0.00     0.010 A 
HETATM   38  C   UNK N   1      23.409  14.640   3.281  0.00  0.00     0.009 A 
BRANCH  36  39
HETATM   39  C   UNK N   1      21.355  13.034   0.505  0.00  0.00     0.202 C 
BRANCH  39  40
HETATM   40  O   UNK N   1      20.780  11.984   1.225  0.00  0.00    -0.396 OA
HETATM   41  H   UNK N   1      21.124  11.082   1.127  0.00  0.00     0.209 HD
ENDBRANCH  39  40
ENDBRANCH  36  39
ENDBRANCH  32  33
ENDBRANCH   5  32
BRANCH   3  42
HETATM   42  O   UNK N   1      28.094  13.049   1.616  0.00  0.00    -0.391 OA
HETATM   43  H   UNK N   1      27.967  13.586   0.818  0.00  0.00     0.210 HD
ENDBRANCH   3  42
BRANCH   1  44
HETATM   44  C   UNK N   1      26.861  13.323   5.186  0.00  0.00     0.199 C 
BRANCH  44  45
HETATM   45  O   UNK N   1      25.866  12.412   5.493  0.00  0.00    -0.349 OA
BRANCH  45  46
HETATM   46  C   UNK N   1      24.847  12.642   6.357  0.00  0.00     0.068 A 
HETATM   47  C   UNK N   1      24.188  11.550   6.929  0.00  0.00     0.037 A 
HETATM   48  C   UNK N   1      23.109  11.753   7.795  0.00  0.00     0.003 A 
HETATM   49  C   UNK N   1      22.690  13.052   8.098  0.00  0.00     0.000 A 
HETATM   50  C   UNK N   1      23.350  14.147   7.540  0.00  0.00     0.003 A 
HETATM   51  C   UNK N   1      24.424  13.944   6.669  0.00  0.00     0.037 A 
ENDBRANCH  45  46
ENDBRANCH  44  45
ENDBRANCH   1  44
TORSDOF 17
ENDMDL
