MODEL 1
REMARK VINA RESULT:      -6.4      0.000      0.000
REMARK  10 active torsions:
REMARK  status: ('A' for Active; 'I' for Inactive)
REMARK    1  A    between atoms: C_7  and  C_4 
REMARK    2  A    between atoms: O_21  and  C_4 
REMARK    3  A    between atoms: C_6  and  O_23 
REMARK    4  A    between atoms: C_8  and  N_12 
REMARK    5  A    between atoms: P_24  and  O_15 
REMARK    6  A    between atoms: P_24  and  O_16 
REMARK    7  A    between atoms: P_25  and  O_18 
REMARK    8  A    between atoms: P_25  and  O_19 
REMARK    9  A    between atoms: P_24  and  O_21 
REMARK   10  A    between atoms: P_25  and  O_23 
ROOT
HETATM    1  C   UNK N   1      19.832  15.233   4.732  0.00  0.00     0.089 C 
HETATM    2  C   UNK N   1      20.220  16.323   3.776  0.00  0.00     0.169 C 
HETATM    3  C   UNK N   1      21.153  17.090   4.692  0.00  0.00     0.178 C 
HETATM    4  C   UNK N   1      19.748  15.980   6.069  0.00  0.00     0.235 C 
HETATM    5  O   UNK N   1      20.523  17.166   5.945  0.00  0.00    -0.356 OA
ENDROOT
BRANCH   4   6
HETATM    6  N   UNK N   1      20.186  15.189   7.253  0.00  0.00    -0.282 N 
HETATM    7  C   UNK N   1      20.912  14.060   7.002  0.00  0.00     0.110 A 
HETATM    8  C   UNK N   1      21.367  13.241   8.034  0.00  0.00     0.022 A 
HETATM    9  C   UNK N   1      22.131  12.001   7.713  0.00  0.00     0.056 C 
HETATM   10  C   UNK N   1      21.089  13.603   9.351  0.00  0.00     0.256 A 
HETATM   11  N   UNK N   1      20.378  14.740   9.599  0.00  0.00    -0.275 N 
HETATM   12  O   UNK N   1      21.476  12.916  10.282  0.00  0.00    -0.267 OA
HETATM   13  C   UNK N   1      19.921  15.534   8.578  0.00  0.00     0.331 A 
HETATM   14  H   UNK N   1      20.189  14.997  10.531  0.00  0.00     0.173 HD
HETATM   15  O   UNK N   1      19.308  16.547   8.860  0.00  0.00    -0.246 OA
ENDBRANCH   4   6
BRANCH   2  16
HETATM   16  O   UNK N   1      20.941  15.921   2.608  0.00  0.00    -0.289 OA
BRANCH  16  17
HETATM   17  P   UNK N   1      20.013  15.625   1.113  0.00  0.00     0.391 P 
HETATM   18  O   UNK N   1      20.437  16.742   0.122  0.00  0.00    -0.632 OA
BRANCH  17  19
HETATM   19  O   UNK N   1      19.283  17.057   1.769  0.00  0.00    -0.307 OA
HETATM   20  H   UNK N   1      19.189  17.238   2.717  0.00  0.00     0.222 HD
ENDBRANCH  17  19
BRANCH  17  21
HETATM   21  O   UNK N   1      21.590  15.112   0.593  0.00  0.00    -0.307 OA
HETATM   22  H   UNK N   1      22.178  14.345   0.681  0.00  0.00     0.222 HD
ENDBRANCH  17  21
ENDBRANCH  16  17
ENDBRANCH   2  16
BRANCH   3  23
HETATM   23  C   UNK N   1      21.559  18.466   4.150  0.00  0.00     0.215 C 
BRANCH  23  24
HETATM   24  O   UNK N   1      20.663  18.978   3.202  0.00  0.00    -0.294 OA
BRANCH  24  25
HETATM   25  P   UNK N   1      21.521  20.321   2.495  0.00  0.00     0.390 P 
HETATM   26  O   UNK N   1      20.593  21.037   3.513  0.00  0.00    -0.632 OA
BRANCH  25  27
HETATM   27  O   UNK N   1      20.733  21.516   1.513  0.00  0.00    -0.307 OA
HETATM   28  H   UNK N   1      19.865  21.927   1.639  0.00  0.00     0.222 HD
ENDBRANCH  25  27
BRANCH  25  29
HETATM   29  O   UNK N   1      20.543  19.578   1.266  0.00  0.00    -0.307 OA
HETATM   30  H   UNK N   1      20.556  18.623   1.096  0.00  0.00     0.222 HD
ENDBRANCH  25  29
ENDBRANCH  24  25
ENDBRANCH  23  24
ENDBRANCH   3  23
TORSDOF 10
ENDMDL
MODEL 2
REMARK VINA RESULT:      -6.2      4.221      6.304
REMARK  10 active torsions:
REMARK  status: ('A' for Active; 'I' for Inactive)
REMARK    1  A    between atoms: C_7  and  C_4 
REMARK    2  A    between atoms: O_21  and  C_4 
REMARK    3  A    between atoms: C_6  and  O_23 
REMARK    4  A    between atoms: C_8  and  N_12 
REMARK    5  A    between atoms: P_24  and  O_15 
REMARK    6  A    between atoms: P_24  and  O_16 
REMARK    7  A    between atoms: P_25  and  O_18 
REMARK    8  A    between atoms: P_25  and  O_19 
REMARK    9  A    between atoms: P_24  and  O_21 
REMARK   10  A    between atoms: P_25  and  O_23 
ROOT
HETATM    1  C   UNK N   1      23.784  19.281   3.633  0.00  0.00     0.089 C 
HETATM    2  C   UNK N   1      22.314  18.978   3.657  0.00  0.00     0.169 C 
HETATM    3  C   UNK N   1      22.265  18.253   4.987  0.00  0.00     0.178 C 
HETATM    4  C   UNK N   1      24.391  18.020   4.260  0.00  0.00     0.235 C 
HETATM    5  O   UNK N   1      23.370  17.385   5.019  0.00  0.00    -0.356 OA
ENDROOT
BRANCH   4   6
HETATM    6  N   UNK N   1      25.596  18.262   5.102  0.00  0.00    -0.282 N 
HETATM    7  C   UNK N   1      25.945  19.564   5.314  0.00  0.00     0.110 A 
HETATM    8  C   UNK N   1      27.059  19.906   6.080  0.00  0.00     0.022 A 
HETATM    9  C   UNK N   1      27.421  21.341   6.261  0.00  0.00     0.056 C 
HETATM   10  C   UNK N   1      27.814  18.887   6.659  0.00  0.00     0.256 A 
HETATM   11  N   UNK N   1      27.453  17.587   6.459  0.00  0.00    -0.275 N 
HETATM   12  O   UNK N   1      28.791  19.146   7.342  0.00  0.00    -0.267 OA
HETATM   13  C   UNK N   1      26.365  17.258   5.693  0.00  0.00     0.331 A 
HETATM   14  H   UNK N   1      27.985  16.870   6.875  0.00  0.00     0.173 HD
HETATM   15  O   UNK N   1      26.079  16.082   5.565  0.00  0.00    -0.246 OA
ENDBRANCH   4   6
BRANCH   2  16
HETATM   16  O   UNK N   1      21.432  20.103   3.708  0.00  0.00    -0.289 OA
BRANCH  16  17
HETATM   17  P   UNK N   1      20.681  20.646   2.182  0.00  0.00     0.391 P 
HETATM   18  O   UNK N   1      21.780  20.506   1.095  0.00  0.00    -0.632 OA
BRANCH  17  19
HETATM   19  O   UNK N   1      21.801  21.918   2.561  0.00  0.00    -0.307 OA
HETATM   20  H   UNK N   1      22.076  22.155   3.460  0.00  0.00     0.222 HD
ENDBRANCH  17  19
BRANCH  17  21
HETATM   21  O   UNK N   1      20.734  18.933   1.896  0.00  0.00    -0.307 OA
HETATM   22  H   UNK N   1      20.187  18.146   2.049  0.00  0.00     0.222 HD
ENDBRANCH  17  21
ENDBRANCH  16  17
ENDBRANCH   2  16
BRANCH   3  23
HETATM   23  C   UNK N   1      20.938  17.531   5.249  0.00  0.00     0.215 C 
BRANCH  23  24
HETATM   24  O   UNK N   1      20.194  17.293   4.086  0.00  0.00    -0.294 OA
BRANCH  24  25
HETATM   25  P   UNK N   1      20.179  15.556   3.945  0.00  0.00     0.390 P 
HETATM   26  O   UNK N   1      20.325  15.993   2.464  0.00  0.00    -0.632 OA
BRANCH  25  27
HETATM   27  O   UNK N   1      18.886  14.696   3.168  0.00  0.00    -0.307 OA
HETATM   28  H   UNK N   1      18.542  13.812   3.367  0.00  0.00     0.222 HD
ENDBRANCH  25  27
BRANCH  25  29
HETATM   29  O   UNK N   1      18.631  16.078   4.538  0.00  0.00    -0.307 OA
HETATM   30  H   UNK N   1      18.115  16.776   4.105  0.00  0.00     0.222 HD
ENDBRANCH  25  29
ENDBRANCH  24  25
ENDBRANCH  23  24
ENDBRANCH   3  23
TORSDOF 10
ENDMDL
MODEL 3
REMARK VINA RESULT:      -6.2     12.139     13.678
REMARK  10 active torsions:
REMARK  status: ('A' for Active; 'I' for Inactive)
REMARK    1  A    between atoms: C_7  and  C_4 
REMARK    2  A    between atoms: O_21  and  C_4 
REMARK    3  A    between atoms: C_6  and  O_23 
REMARK    4  A    between atoms: C_8  and  N_12 
REMARK    5  A    between atoms: P_24  and  O_15 
REMARK    6  A    between atoms: P_24  and  O_16 
REMARK    7  A    between atoms: P_25  and  O_18 
REMARK    8  A    between atoms: P_25  and  O_19 
REMARK    9  A    between atoms: P_24  and  O_21 
REMARK   10  A    between atoms: P_25  and  O_23 
ROOT
HETATM    1  C   UNK N   1      34.126  17.540   6.887  0.00  0.00     0.089 C 
HETATM    2  C   UNK N   1      33.173  17.981   7.959  0.00  0.00     0.169 C 
HETATM    3  C   UNK N   1      31.958  17.199   7.501  0.00  0.00     0.178 C 
HETATM    4  C   UNK N   1      33.223  17.469   5.650  0.00  0.00     0.235 C 
HETATM    5  O   UNK N   1      31.882  17.343   6.106  0.00  0.00    -0.356 OA
ENDROOT
BRANCH   4   6
HETATM    6  N   UNK N   1      33.558  16.376   4.695  0.00  0.00    -0.282 N 
HETATM    7  C   UNK N   1      34.335  15.361   5.174  0.00  0.00     0.110 A 
HETATM    8  C   UNK N   1      34.715  14.289   4.367  0.00  0.00     0.022 A 
HETATM    9  C   UNK N   1      35.590  13.217   4.923  0.00  0.00     0.056 C 
HETATM   10  C   UNK N   1      34.266  14.250   3.047  0.00  0.00     0.256 A 
HETATM   11  N   UNK N   1      33.476  15.258   2.577  0.00  0.00    -0.275 N 
HETATM   12  O   UNK N   1      34.571  13.326   2.312  0.00  0.00    -0.267 OA
HETATM   13  C   UNK N   1      33.118  16.316   3.372  0.00  0.00     0.331 A 
HETATM   14  H   UNK N   1      33.156  15.224   1.646  0.00  0.00     0.173 HD
HETATM   15  O   UNK N   1      32.396  17.176   2.904  0.00  0.00    -0.246 OA
ENDBRANCH   4   6
BRANCH   2  16
HETATM   16  O   UNK N   1      33.496  17.596   9.298  0.00  0.00    -0.289 OA
BRANCH  16  17
HETATM   17  P   UNK N   1      34.801  16.401   9.532  0.00  0.00     0.391 P 
HETATM   18  O   UNK N   1      35.043  16.331  11.065  0.00  0.00    -0.632 OA
BRANCH  17  19
HETATM   19  O   UNK N   1      35.566  17.916   9.899  0.00  0.00    -0.307 OA
HETATM   20  H   UNK N   1      35.569  18.329  10.777  0.00  0.00     0.222 HD
ENDBRANCH  17  19
BRANCH  17  21
HETATM   21  O   UNK N   1      33.444  15.478  10.103  0.00  0.00    -0.307 OA
HETATM   22  H   UNK N   1      32.495  15.381   9.924  0.00  0.00     0.222 HD
ENDBRANCH  17  21
ENDBRANCH  16  17
ENDBRANCH   2  16
BRANCH   3  23
HETATM   23  C   UNK N   1      30.659  17.603   8.209  0.00  0.00     0.215 C 
BRANCH  23  24
HETATM   24  O   UNK N   1      29.523  17.486   7.398  0.00  0.00    -0.294 OA
BRANCH  24  25
HETATM   25  P   UNK N   1      28.404  18.641   8.073  0.00  0.00     0.390 P 
HETATM   26  O   UNK N   1      29.405  18.447   9.242  0.00  0.00    -0.632 OA
BRANCH  25  27
HETATM   27  O   UNK N   1      27.359  18.256   9.404  0.00  0.00    -0.307 OA
HETATM   28  H   UNK N   1      26.475  18.602   9.599  0.00  0.00     0.222 HD
ENDBRANCH  25  27
BRANCH  25  29
HETATM   29  O   UNK N   1      27.561  17.146   7.798  0.00  0.00    -0.307 OA
HETATM   30  H   UNK N   1      27.220  16.893   6.926  0.00  0.00     0.222 HD
ENDBRANCH  25  29
ENDBRANCH  24  25
ENDBRANCH  23  24
ENDBRANCH   3  23
TORSDOF 10
ENDMDL
MODEL 4
REMARK VINA RESULT:      -6.1      2.923      3.838
REMARK  10 active torsions:
REMARK  status: ('A' for Active; 'I' for Inactive)
REMARK    1  A    between atoms: C_7  and  C_4 
REMARK    2  A    between atoms: O_21  and  C_4 
REMARK    3  A    between atoms: C_6  and  O_23 
REMARK    4  A    between atoms: C_8  and  N_12 
REMARK    5  A    between atoms: P_24  and  O_15 
REMARK    6  A    between atoms: P_24  and  O_16 
REMARK    7  A    between atoms: P_25  and  O_18 
REMARK    8  A    between atoms: P_25  and  O_19 
REMARK    9  A    between atoms: P_24  and  O_21 
REMARK   10  A    between atoms: P_25  and  O_23 
ROOT
HETATM    1  C   UNK N   1      20.967  18.351   4.878  0.00  0.00     0.089 C 
HETATM    2  C   UNK N   1      21.953  19.038   3.978  0.00  0.00     0.169 C 
HETATM    3  C   UNK N   1      23.159  18.170   4.277  0.00  0.00     0.178 C 
HETATM    4  C   UNK N   1      21.828  17.987   6.094  0.00  0.00     0.235 C 
HETATM    5  O   UNK N   1      23.186  17.975   5.668  0.00  0.00    -0.356 OA
ENDROOT
BRANCH   4   6
HETATM    6  N   UNK N   1      21.472  16.695   6.745  0.00  0.00    -0.282 N 
HETATM    7  C   UNK N   1      21.932  15.559   6.145  0.00  0.00     0.110 A 
HETATM    8  C   UNK N   1      21.653  14.295   6.665  0.00  0.00     0.022 A 
HETATM    9  C   UNK N   1      22.149  13.078   5.960  0.00  0.00     0.056 C 
HETATM   10  C   UNK N   1      20.905  14.201   7.838  0.00  0.00     0.256 A 
HETATM   11  N   UNK N   1      20.462  15.340   8.444  0.00  0.00    -0.275 N 
HETATM   12  O   UNK N   1      20.646  13.115   8.327  0.00  0.00    -0.267 OA
HETATM   13  C   UNK N   1      20.728  16.579   7.919  0.00  0.00     0.331 A 
HETATM   14  H   UNK N   1      19.939  15.271   9.276  0.00  0.00     0.173 HD
HETATM   15  O   UNK N   1      20.323  17.560   8.514  0.00  0.00    -0.246 OA
ENDBRANCH   4   6
BRANCH   2  16
HETATM   16  O   UNK N   1      21.679  18.986   2.575  0.00  0.00    -0.289 OA
BRANCH  16  17
HETATM   17  P   UNK N   1      20.800  20.356   1.843  0.00  0.00     0.391 P 
HETATM   18  O   UNK N   1      21.661  20.817   0.636  0.00  0.00    -0.632 OA
BRANCH  17  19
HETATM   19  O   UNK N   1      22.181  21.106   2.583  0.00  0.00    -0.307 OA
HETATM   20  H   UNK N   1      22.832  20.636   3.127  0.00  0.00     0.222 HD
ENDBRANCH  17  19
BRANCH  17  21
HETATM   21  O   UNK N   1      20.491  19.131   0.650  0.00  0.00    -0.307 OA
HETATM   22  H   UNK N   1      19.804  18.483   0.424  0.00  0.00     0.222 HD
ENDBRANCH  17  21
ENDBRANCH  16  17
ENDBRANCH   2  16
BRANCH   3  23
HETATM   23  C   UNK N   1      24.477  18.734   3.734  0.00  0.00     0.215 C 
BRANCH  23  24
HETATM   24  O   UNK N   1      24.694  20.075   4.079  0.00  0.00    -0.294 OA
BRANCH  24  25
HETATM   25  P   UNK N   1      26.411  20.162   4.366  0.00  0.00     0.390 P 
HETATM   26  O   UNK N   1      26.308  18.927   3.432  0.00  0.00    -0.632 OA
BRANCH  25  27
HETATM   27  O   UNK N   1      27.269  18.943   5.255  0.00  0.00    -0.307 OA
HETATM   28  H   UNK N   1      27.845  19.050   6.028  0.00  0.00     0.222 HD
ENDBRANCH  25  27
BRANCH  25  29
HETATM   29  O   UNK N   1      25.615  19.802   5.868  0.00  0.00    -0.307 OA
HETATM   30  H   UNK N   1      24.689  19.516   5.912  0.00  0.00     0.222 HD
ENDBRANCH  25  29
ENDBRANCH  24  25
ENDBRANCH  23  24
ENDBRANCH   3  23
TORSDOF 10
ENDMDL
MODEL 5
REMARK VINA RESULT:      -6.0     15.605     17.684
REMARK  10 active torsions:
REMARK  status: ('A' for Active; 'I' for Inactive)
REMARK    1  A    between atoms: C_7  and  C_4 
REMARK    2  A    between atoms: O_21  and  C_4 
REMARK    3  A    between atoms: C_6  and  O_23 
REMARK    4  A    between atoms: C_8  and  N_12 
REMARK    5  A    between atoms: P_24  and  O_15 
REMARK    6  A    between atoms: P_24  and  O_16 
REMARK    7  A    between atoms: P_25  and  O_18 
REMARK    8  A    between atoms: P_25  and  O_19 
REMARK    9  A    between atoms: P_24  and  O_21 
REMARK   10  A    between atoms: P_25  and  O_23 
ROOT
HETATM    1  C   UNK N   1      36.262  11.749  13.038  0.00  0.00     0.089 C 
HETATM    2  C   UNK N   1      36.358  12.794  11.965  0.00  0.00     0.169 C 
HETATM    3  C   UNK N   1      35.900  13.985  12.783  0.00  0.00     0.178 C 
HETATM    4  C   UNK N   1      35.008  12.180  13.808  0.00  0.00     0.235 C 
HETATM    5  O   UNK N   1      34.793  13.559  13.537  0.00  0.00    -0.356 OA
ENDROOT
BRANCH   4   6
HETATM    6  N   UNK N   1      35.063  11.936  15.276  0.00  0.00    -0.282 N 
HETATM    7  C   UNK N   1      35.135  13.038  16.078  0.00  0.00     0.110 A 
HETATM    8  C   UNK N   1      35.198  12.928  17.466  0.00  0.00     0.022 A 
HETATM    9  C   UNK N   1      35.306  14.157  18.303  0.00  0.00     0.056 C 
HETATM   10  C   UNK N   1      35.163  11.658  18.042  0.00  0.00     0.256 A 
HETATM   11  N   UNK N   1      35.075  10.560  17.237  0.00  0.00    -0.275 N 
HETATM   12  O   UNK N   1      35.209  11.520  19.252  0.00  0.00    -0.267 OA
HETATM   13  C   UNK N   1      35.027  10.675  15.872  0.00  0.00     0.331 A 
HETATM   14  H   UNK N   1      35.044   9.664  17.647  0.00  0.00     0.173 HD
HETATM   15  O   UNK N   1      34.929   9.661  15.206  0.00  0.00    -0.246 OA
ENDBRANCH   4   6
BRANCH   2  16
HETATM   16  O   UNK N   1      37.666  13.061  11.450  0.00  0.00    -0.289 OA
BRANCH  16  17
HETATM   17  P   UNK N   1      37.908  12.948   9.685  0.00  0.00     0.391 P 
HETATM   18  O   UNK N   1      39.440  12.801   9.475  0.00  0.00    -0.632 OA
BRANCH  17  19
HETATM   19  O   UNK N   1      38.533  14.519  10.083  0.00  0.00    -0.307 OA
HETATM   20  H   UNK N   1      37.986  15.272  10.356  0.00  0.00     0.222 HD
ENDBRANCH  17  19
BRANCH  17  21
HETATM   21  O   UNK N   1      38.209  11.297  10.134  0.00  0.00    -0.307 OA
HETATM   22  H   UNK N   1      38.507  10.468   9.727  0.00  0.00     0.222 HD
ENDBRANCH  17  21
ENDBRANCH  16  17
ENDBRANCH   2  16
BRANCH   3  23
HETATM   23  C   UNK N   1      35.599  15.233  11.944  0.00  0.00     0.215 C 
BRANCH  23  24
HETATM   24  O   UNK N   1      34.447  15.111  11.157  0.00  0.00    -0.294 OA
BRANCH  24  25
HETATM   25  P   UNK N   1      34.791  16.088   9.754  0.00  0.00     0.390 P 
HETATM   26  O   UNK N   1      35.224  17.028  10.910  0.00  0.00    -0.632 OA
BRANCH  25  27
HETATM   27  O   UNK N   1      33.921  17.547   9.400  0.00  0.00    -0.307 OA
HETATM   28  H   UNK N   1      33.274  17.710   8.696  0.00  0.00     0.222 HD
ENDBRANCH  25  27
BRANCH  25  29
HETATM   29  O   UNK N   1      33.074  15.834   9.846  0.00  0.00    -0.307 OA
HETATM   30  H   UNK N   1      32.493  15.919   9.074  0.00  0.00     0.222 HD
ENDBRANCH  25  29
ENDBRANCH  24  25
ENDBRANCH  23  24
ENDBRANCH   3  23
TORSDOF 10
ENDMDL
MODEL 6
REMARK VINA RESULT:      -5.9     10.803     12.241
REMARK  10 active torsions:
REMARK  status: ('A' for Active; 'I' for Inactive)
REMARK    1  A    between atoms: C_7  and  C_4 
REMARK    2  A    between atoms: O_21  and  C_4 
REMARK    3  A    between atoms: C_6  and  O_23 
REMARK    4  A    between atoms: C_8  and  N_12 
REMARK    5  A    between atoms: P_24  and  O_15 
REMARK    6  A    between atoms: P_24  and  O_16 
REMARK    7  A    between atoms: P_25  and  O_18 
REMARK    8  A    between atoms: P_25  and  O_19 
REMARK    9  A    between atoms: P_24  and  O_21 
REMARK   10  A    between atoms: P_25  and  O_23 
ROOT
HETATM    1  C   UNK N   1      30.878  16.924   8.179  0.00  0.00     0.089 C 
HETATM    2  C   UNK N   1      31.885  16.045   7.496  0.00  0.00     0.169 C 
HETATM    3  C   UNK N   1      31.451  16.293   6.065  0.00  0.00     0.178 C 
HETATM    4  C   UNK N   1      29.623  16.716   7.322  0.00  0.00     0.235 C 
HETATM    5  O   UNK N   1      30.047  16.243   6.050  0.00  0.00    -0.356 OA
ENDROOT
BRANCH   4   6
HETATM    6  N   UNK N   1      28.764  17.923   7.173  0.00  0.00    -0.282 N 
HETATM    7  C   UNK N   1      28.573  18.387   5.904  0.00  0.00     0.110 A 
HETATM    8  C   UNK N   1      27.792  19.514   5.648  0.00  0.00     0.022 A 
HETATM    9  C   UNK N   1      27.636  20.005   4.249  0.00  0.00     0.056 C 
HETATM   10  C   UNK N   1      27.177  20.162   6.718  0.00  0.00     0.256 A 
HETATM   11  N   UNK N   1      27.356  19.685   7.984  0.00  0.00    -0.275 N 
HETATM   12  O   UNK N   1      26.481  21.146   6.535  0.00  0.00    -0.267 OA
HETATM   13  C   UNK N   1      28.136  18.585   8.229  0.00  0.00     0.331 A 
HETATM   14  H   UNK N   1      26.914  20.142   8.737  0.00  0.00     0.173 HD
HETATM   15  O   UNK N   1      28.244  18.194   9.377  0.00  0.00    -0.246 OA
ENDBRANCH   4   6
BRANCH   2  16
HETATM   16  O   UNK N   1      33.259  16.420   7.637  0.00  0.00    -0.289 OA
BRANCH  16  17
HETATM   17  P   UNK N   1      33.627  18.136   7.961  0.00  0.00     0.391 P 
HETATM   18  O   UNK N   1      35.161  18.204   8.197  0.00  0.00    -0.632 OA
BRANCH  17  19
HETATM   19  O   UNK N   1      33.841  17.375   9.506  0.00  0.00    -0.307 OA
HETATM   20  H   UNK N   1      33.345  16.597   9.807  0.00  0.00     0.222 HD
ENDBRANCH  17  19
BRANCH  17  21
HETATM   21  O   UNK N   1      34.279  17.988   6.356  0.00  0.00    -0.307 OA
HETATM   22  H   UNK N   1      34.498  17.294   5.715  0.00  0.00     0.222 HD
ENDBRANCH  17  21
ENDBRANCH  16  17
ENDBRANCH   2  16
BRANCH   3  23
HETATM   23  C   UNK N   1      32.088  15.335   5.051  0.00  0.00     0.215 C 
BRANCH  23  24
HETATM   24  O   UNK N   1      33.180  15.890   4.370  0.00  0.00    -0.294 OA
BRANCH  24  25
HETATM   25  P   UNK N   1      34.205  14.520   4.034  0.00  0.00     0.390 P 
HETATM   26  O   UNK N   1      32.870  13.830   4.420  0.00  0.00    -0.632 OA
BRANCH  25  27
HETATM   27  O   UNK N   1      34.700  13.403   5.267  0.00  0.00    -0.307 OA
HETATM   28  H   UNK N   1      35.269  12.623   5.184  0.00  0.00     0.222 HD
ENDBRANCH  25  27
BRANCH  25  29
HETATM   29  O   UNK N   1      34.832  15.355   5.423  0.00  0.00    -0.307 OA
HETATM   30  H   UNK N   1      34.351  15.400   6.265  0.00  0.00     0.222 HD
ENDBRANCH  25  29
ENDBRANCH  24  25
ENDBRANCH  23  24
ENDBRANCH   3  23
TORSDOF 10
ENDMDL
MODEL 7
REMARK VINA RESULT:      -5.9     14.177     16.014
REMARK  10 active torsions:
REMARK  status: ('A' for Active; 'I' for Inactive)
REMARK    1  A    between atoms: C_7  and  C_4 
REMARK    2  A    between atoms: O_21  and  C_4 
REMARK    3  A    between atoms: C_6  and  O_23 
REMARK    4  A    between atoms: C_8  and  N_12 
REMARK    5  A    between atoms: P_24  and  O_15 
REMARK    6  A    between atoms: P_24  and  O_16 
REMARK    7  A    between atoms: P_25  and  O_18 
REMARK    8  A    between atoms: P_25  and  O_19 
REMARK    9  A    between atoms: P_24  and  O_21 
REMARK   10  A    between atoms: P_25  and  O_23 
ROOT
HETATM    1  C   UNK N   1      25.645  24.945  -5.569  0.00  0.00     0.089 C 
HETATM    2  C   UNK N   1      26.534  25.429  -4.461  0.00  0.00     0.169 C 
HETATM    3  C   UNK N   1      27.737  24.555  -4.753  0.00  0.00     0.178 C 
HETATM    4  C   UNK N   1      25.971  23.447  -5.624  0.00  0.00     0.235 C 
HETATM    5  O   UNK N   1      27.248  23.266  -5.024  0.00  0.00    -0.356 OA
ENDROOT
BRANCH   4   6
HETATM    6  N   UNK N   1      25.944  22.854  -6.990  0.00  0.00    -0.282 N 
HETATM    7  C   UNK N   1      26.890  23.296  -7.869  0.00  0.00     0.110 A 
HETATM    8  C   UNK N   1      26.954  22.814  -9.176  0.00  0.00     0.022 A 
HETATM    9  C   UNK N   1      27.984  23.348 -10.113  0.00  0.00     0.056 C 
HETATM   10  C   UNK N   1      26.041  21.840  -9.578  0.00  0.00     0.256 A 
HETATM   11  N   UNK N   1      25.108  21.388  -8.691  0.00  0.00    -0.275 N 
HETATM   12  O   UNK N   1      26.069  21.389 -10.710  0.00  0.00    -0.267 OA
HETATM   13  C   UNK N   1      25.042  21.877  -7.412  0.00  0.00     0.331 A 
HETATM   14  H   UNK N   1      24.468  20.695  -8.977  0.00  0.00     0.173 HD
HETATM   15  O   UNK N   1      24.201  21.422  -6.659  0.00  0.00    -0.246 OA
ENDBRANCH   4   6
BRANCH   2  16
HETATM   16  O   UNK N   1      26.933  26.802  -4.517  0.00  0.00    -0.289 OA
BRANCH  16  17
HETATM   17  P   UNK N   1      25.753  28.037  -3.998  0.00  0.00     0.391 P 
HETATM   18  O   UNK N   1      26.516  28.964  -3.012  0.00  0.00    -0.632 OA
BRANCH  17  19
HETATM   19  O   UNK N   1      25.963  27.053  -2.582  0.00  0.00    -0.307 OA
HETATM   20  H   UNK N   1      26.164  27.400  -1.699  0.00  0.00     0.222 HD
ENDBRANCH  17  19
BRANCH  17  21
HETATM   21  O   UNK N   1      26.748  28.997  -5.051  0.00  0.00    -0.307 OA
HETATM   22  H   UNK N   1      26.930  29.097  -5.999  0.00  0.00     0.222 HD
ENDBRANCH  17  21
ENDBRANCH  16  17
ENDBRANCH   2  16
BRANCH   3  23
HETATM   23  C   UNK N   1      28.793  24.564  -3.641  0.00  0.00     0.215 C 
BRANCH  23  24
HETATM   24  O   UNK N   1      29.052  23.295  -3.107  0.00  0.00    -0.294 OA
BRANCH  24  25
HETATM   25  P   UNK N   1      30.792  23.183  -3.114  0.00  0.00     0.390 P 
HETATM   26  O   UNK N   1      30.387  21.879  -3.851  0.00  0.00    -0.632 OA
BRANCH  25  27
HETATM   27  O   UNK N   1      31.650  21.965  -2.224  0.00  0.00    -0.307 OA
HETATM   28  H   UNK N   1      31.388  21.516  -1.405  0.00  0.00     0.222 HD
ENDBRANCH  25  27
BRANCH  25  29
HETATM   29  O   UNK N   1      30.236  23.098  -1.469  0.00  0.00    -0.307 OA
HETATM   30  H   UNK N   1      29.471  22.565  -1.205  0.00  0.00     0.222 HD
ENDBRANCH  25  29
ENDBRANCH  24  25
ENDBRANCH  23  24
ENDBRANCH   3  23
TORSDOF 10
ENDMDL
MODEL 8
REMARK VINA RESULT:      -5.7     10.025     11.852
REMARK  10 active torsions:
REMARK  status: ('A' for Active; 'I' for Inactive)
REMARK    1  A    between atoms: C_7  and  C_4 
REMARK    2  A    between atoms: O_21  and  C_4 
REMARK    3  A    between atoms: C_6  and  O_23 
REMARK    4  A    between atoms: C_8  and  N_12 
REMARK    5  A    between atoms: P_24  and  O_15 
REMARK    6  A    between atoms: P_24  and  O_16 
REMARK    7  A    between atoms: P_25  and  O_18 
REMARK    8  A    between atoms: P_25  and  O_19 
REMARK    9  A    between atoms: P_24  and  O_21 
REMARK   10  A    between atoms: P_25  and  O_23 
ROOT
HETATM    1  C   UNK N   1      30.060  17.310   6.511  0.00  0.00     0.089 C 
HETATM    2  C   UNK N   1      31.511  17.043   6.233  0.00  0.00     0.169 C 
HETATM    3  C   UNK N   1      31.560  17.581   4.817  0.00  0.00     0.178 C 
HETATM    4  C   UNK N   1      29.403  17.006   5.159  0.00  0.00     0.235 C 
HETATM    5  O   UNK N   1      30.410  17.110   4.161  0.00  0.00    -0.356 OA
ENDROOT
BRANCH   4   6
HETATM    6  N   UNK N   1      28.240  17.874   4.823  0.00  0.00    -0.282 N 
HETATM    7  C   UNK N   1      28.179  19.086   5.449  0.00  0.00     0.110 A 
HETATM    8  C   UNK N   1      27.132  19.977   5.214  0.00  0.00     0.022 A 
HETATM    9  C   UNK N   1      27.088  21.277   5.942  0.00  0.00     0.056 C 
HETATM   10  C   UNK N   1      26.140  19.621   4.301  0.00  0.00     0.256 A 
HETATM   11  N   UNK N   1      26.213  18.416   3.665  0.00  0.00    -0.275 N 
HETATM   12  O   UNK N   1      25.212  20.375   4.064  0.00  0.00    -0.267 OA
HETATM   13  C   UNK N   1      27.238  17.540   3.911  0.00  0.00     0.331 A 
HETATM   14  H   UNK N   1      25.514  18.171   3.016  0.00  0.00     0.173 HD
HETATM   15  O   UNK N   1      27.262  16.488   3.301  0.00  0.00    -0.246 OA
ENDBRANCH   4   6
BRANCH   2  16
HETATM   16  O   UNK N   1      32.456  17.757   7.035  0.00  0.00    -0.289 OA
BRANCH  16  17
HETATM   17  P   UNK N   1      33.696  16.813   7.904  0.00  0.00     0.391 P 
HETATM   18  O   UNK N   1      34.264  17.761   8.995  0.00  0.00    -0.632 OA
BRANCH  17  19
HETATM   19  O   UNK N   1      34.624  17.971   7.002  0.00  0.00    -0.307 OA
HETATM   20  H   UNK N   1      35.390  18.451   7.353  0.00  0.00     0.222 HD
ENDBRANCH  17  19
BRANCH  17  21
HETATM   21  O   UNK N   1      32.439  16.830   9.103  0.00  0.00    -0.307 OA
HETATM   22  H   UNK N   1      31.491  17.029   9.170  0.00  0.00     0.222 HD
ENDBRANCH  17  21
ENDBRANCH  16  17
ENDBRANCH   2  16
BRANCH   3  23
HETATM   23  C   UNK N   1      32.852  17.234   4.068  0.00  0.00     0.215 C 
BRANCH  23  24
HETATM   24  O   UNK N   1      32.636  16.489   2.901  0.00  0.00    -0.294 OA
BRANCH  24  25
HETATM   25  P   UNK N   1      33.368  14.944   3.246  0.00  0.00     0.390 P 
HETATM   26  O   UNK N   1      34.063  15.334   1.916  0.00  0.00    -0.632 OA
BRANCH  25  27
HETATM   27  O   UNK N   1      33.099  13.545   2.256  0.00  0.00    -0.307 OA
HETATM   28  H   UNK N   1      32.305  13.300   1.756  0.00  0.00     0.222 HD
ENDBRANCH  25  27
BRANCH  25  29
HETATM   29  O   UNK N   1      31.673  14.702   2.947  0.00  0.00    -0.307 OA
HETATM   30  H   UNK N   1      31.090  14.257   3.582  0.00  0.00     0.222 HD
ENDBRANCH  25  29
ENDBRANCH  24  25
ENDBRANCH  23  24
ENDBRANCH   3  23
TORSDOF 10
ENDMDL
MODEL 9
REMARK VINA RESULT:      -5.7      3.867      7.233
REMARK  10 active torsions:
REMARK  status: ('A' for Active; 'I' for Inactive)
REMARK    1  A    between atoms: C_7  and  C_4 
REMARK    2  A    between atoms: O_21  and  C_4 
REMARK    3  A    between atoms: C_6  and  O_23 
REMARK    4  A    between atoms: C_8  and  N_12 
REMARK    5  A    between atoms: P_24  and  O_15 
REMARK    6  A    between atoms: P_24  and  O_16 
REMARK    7  A    between atoms: P_25  and  O_18 
REMARK    8  A    between atoms: P_25  and  O_19 
REMARK    9  A    between atoms: P_24  and  O_21 
REMARK   10  A    between atoms: P_25  and  O_23 
ROOT
HETATM    1  C   UNK N   1      21.950  17.724   5.810  0.00  0.00     0.089 C 
HETATM    2  C   UNK N   1      21.317  16.363   5.802  0.00  0.00     0.169 C 
HETATM    3  C   UNK N   1      21.769  15.923   4.424  0.00  0.00     0.178 C 
HETATM    4  C   UNK N   1      21.768  18.181   4.358  0.00  0.00     0.235 C 
HETATM    5  O   UNK N   1      21.576  17.017   3.564  0.00  0.00    -0.356 OA
ENDROOT
BRANCH   4   6
HETATM    6  N   UNK N   1      22.887  19.004   3.820  0.00  0.00    -0.282 N 
HETATM    7  C   UNK N   1      24.150  18.525   4.013  0.00  0.00     0.110 A 
HETATM    8  C   UNK N   1      25.271  19.216   3.557  0.00  0.00     0.022 A 
HETATM    9  C   UNK N   1      26.635  18.671   3.818  0.00  0.00     0.056 C 
HETATM   10  C   UNK N   1      25.087  20.414   2.868  0.00  0.00     0.256 A 
HETATM   11  N   UNK N   1      23.823  20.882   2.661  0.00  0.00    -0.275 N 
HETATM   12  O   UNK N   1      26.042  21.044   2.447  0.00  0.00    -0.267 OA
HETATM   13  C   UNK N   1      22.725  20.204   3.125  0.00  0.00     0.331 A 
HETATM   14  H   UNK N   1      23.696  21.725   2.168  0.00  0.00     0.173 HD
HETATM   15  O   UNK N   1      21.621  20.659   2.894  0.00  0.00    -0.246 OA
ENDBRANCH   4   6
BRANCH   2  16
HETATM   16  O   UNK N   1      21.802  15.428   6.771  0.00  0.00    -0.289 OA
BRANCH  16  17
HETATM   17  P   UNK N   1      20.833  15.178   8.249  0.00  0.00     0.391 P 
HETATM   18  O   UNK N   1      20.244  13.746   8.133  0.00  0.00    -0.632 OA
BRANCH  17  19
HETATM   19  O   UNK N   1      19.637  15.323   6.998  0.00  0.00    -0.307 OA
HETATM   20  H   UNK N   1      19.513  14.679   6.283  0.00  0.00     0.222 HD
ENDBRANCH  17  19
BRANCH  17  21
HETATM   21  O   UNK N   1      22.196  14.162   8.609  0.00  0.00    -0.307 OA
HETATM   22  H   UNK N   1      22.378  13.269   8.942  0.00  0.00     0.222 HD
ENDBRANCH  17  21
ENDBRANCH  16  17
ENDBRANCH   2  16
BRANCH   3  23
HETATM   23  C   UNK N   1      21.078  14.649   3.924  0.00  0.00     0.215 C 
BRANCH  23  24
HETATM   24  O   UNK N   1      19.747  14.534   4.346  0.00  0.00    -0.294 OA
BRANCH  24  25
HETATM   25  P   UNK N   1      19.363  12.855   4.072  0.00  0.00     0.390 P 
HETATM   26  O   UNK N   1      18.042  13.387   4.688  0.00  0.00    -0.632 OA
BRANCH  25  27
HETATM   27  O   UNK N   1      19.077  11.741   5.372  0.00  0.00    -0.307 OA
HETATM   28  H   UNK N   1      19.706  11.401   6.027  0.00  0.00     0.222 HD
ENDBRANCH  25  27
BRANCH  25  29
HETATM   29  O   UNK N   1      20.621  12.949   5.268  0.00  0.00    -0.307 OA
HETATM   30  H   UNK N   1      21.157  12.181   5.521  0.00  0.00     0.222 HD
ENDBRANCH  25  29
ENDBRANCH  24  25
ENDBRANCH  23  24
ENDBRANCH   3  23
TORSDOF 10
ENDMDL
