REMARK  15 active torsions:
REMARK  status: ('A' for Active; 'I' for Inactive)
REMARK    1  A    between atoms: C_16  and  C_12 
REMARK    2  A    between atoms: N_27  and  C_12 
REMARK    3  A    between atoms: C_16  and  C_13 
REMARK    4  A    between atoms: N_28  and  C_13 
REMARK    5  A    between atoms: C_19  and  C_14 
REMARK    6  A    between atoms: O_30  and  C_14 
REMARK    7  A    between atoms: C_23  and  C_15 
REMARK    8  A    between atoms: N_25  and  C_16 
REMARK    9  A    between atoms: N_29  and  C_17 
REMARK   10  A    between atoms: O_39  and  C_18 
REMARK   11  A    between atoms: C_20  and  O_31 
REMARK   12  A    between atoms: C_21  and  O_32 
REMARK   13  A    between atoms: C_22  and  O_33 
REMARK   14  A    between atoms: O_34  and  C_23 
REMARK   15  A    between atoms: C_24  and  O_39 
ROOT
HETATM    1  C   UNK N   1       1.072  11.363   0.027  0.00  0.00     0.052 A 
HETATM    2  C   UNK N   1       3.400  11.888   0.444  0.00  0.00     0.052 A 
HETATM    3  C   UNK N   1       1.906  13.584  -0.336  0.00  0.00     0.073 A 
HETATM    4  C   UNK N   1       2.387  10.939   0.371  0.00  0.00     0.019 A 
HETATM    5  C   UNK N   1       0.841  12.712  -0.336  0.00  0.00     0.106 A 
HETATM    6  C   UNK N   1       3.164  13.201   0.109  0.00  0.00     0.075 A 
ENDROOT
BRANCH   4   7
HETATM    7  C   UNK N   1       2.765   9.559   0.783  0.00  0.00     0.146 C 
HETATM    8  N   UNK N   1       2.026   8.522   0.606  0.00  0.00    -0.362 N 
ATOM      9  HN  UNK N   1       2.329   7.649   1.038  1.00  0.00     0.162 HD
BRANCH   8  10
HETATM   10  C   UNK N   1       0.810   8.499  -0.154  0.00  0.00     0.140 C 
BRANCH  10  11
HETATM   11  C   UNK N   1       0.887   7.424  -1.264  0.00  0.00     0.299 C 
BRANCH  11  12
HETATM   12  N   UNK N   1       1.665   6.218  -0.926  0.00  0.00     0.094 N 
HETATM   13  C   UNK N   1       1.221   5.632   0.353  0.00  0.00     0.298 C 
HETATM   14  C   UNK N   1       2.244   4.642   0.938  0.00  0.00     0.198 C 
HETATM   15  O   UNK N   1       3.277   4.374   0.027  0.00  0.00    -0.388 OA
HETATM   16  C   UNK N   1       3.950   5.590  -0.133  0.00  0.00     0.198 C 
HETATM   17  C   UNK N   1       3.107   6.521  -1.008  0.00  0.00     0.298 C 
ENDBRANCH  11  12
ENDBRANCH  10  11
BRANCH  10  18
HETATM   18  C   UNK N   1      -0.402   8.311   0.738  0.00  0.00     0.299 C 
BRANCH  18  19
HETATM   19  N   UNK N   1      -1.546   8.853   0.030  0.00  0.00     0.094 N 
HETATM   20  C   UNK N   1      -1.854  10.167   0.573  0.00  0.00     0.298 C 
HETATM   21  C   UNK N   1      -3.061  10.718  -0.192  0.00  0.00     0.198 C 
HETATM   22  O   UNK N   1      -4.175   9.901   0.050  0.00  0.00    -0.388 OA
HETATM   23  C   UNK N   1      -3.893   8.643  -0.518  0.00  0.00     0.198 C 
HETATM   24  C   UNK N   1      -2.710   7.994   0.213  0.00  0.00     0.298 C 
ENDBRANCH  18  19
ENDBRANCH  10  18
ENDBRANCH   8  10
BRANCH   7  25
HETATM   25  O   UNK N   1       3.969   9.380   1.364  0.00  0.00    -0.346 OA
HETATM   26  H   UNK N   1       4.280   8.594   1.768  0.00  0.00     0.219 HD
ENDBRANCH   7  25
ENDBRANCH   4   7
BRANCH   5  27
HETATM   27  N   UNK N   1      -0.458  13.268  -0.526  0.00  0.00    -0.116 N 
HETATM   28  O   UNK N   1      -0.573  14.362  -0.984  0.00  0.00    -0.532 OA
HETATM   29  O   UNK N   1      -1.383  12.795   0.056  0.00  0.00    -0.532 OA
ENDBRANCH   5  27
BRANCH   6  30
HETATM   30  O   UNK N   1       4.137  14.111   0.297  0.00  0.00    -0.318 OA
BRANCH  30  31
HETATM   31  C   UNK N   1       3.979  15.449   0.018  0.00  0.00     0.298 C 
HETATM   32  C   UNK N   1       3.035  16.222   0.999  0.00  0.00     0.205 C 
HETATM   33  C   UNK N   1       2.840  17.609   0.381  0.00  0.00     0.183 C 
HETATM   34  C   UNK N   1       4.220  18.261   0.202  0.00  0.00     0.180 C 
HETATM   35  C   UNK N   1       5.222  17.315  -0.524  0.00  0.00     0.179 C 
HETATM   36  O   UNK N   1       5.251  16.048   0.095  0.00  0.00    -0.348 OA
BRANCH  32  37
HETATM   37  O   UNK N   1       1.779  15.649   1.194  0.00  0.00    -0.388 OA
HETATM   38  H   UNK N   1       0.997  16.206   1.330  0.00  0.00     0.210 HD
ENDBRANCH  32  37
BRANCH  33  39
HETATM   39  O   UNK N   1       2.188  17.487  -0.854  0.00  0.00    -0.390 OA
HETATM   40  H   UNK N   1       1.889  17.836  -1.709  0.00  0.00     0.210 HD
ENDBRANCH  33  39
BRANCH  34  41
HETATM   41  O   UNK N   1       4.085  19.463  -0.496  0.00  0.00    -0.390 OA
HETATM   42  H   UNK N   1       4.761  19.962  -0.981  0.00  0.00     0.210 HD
ENDBRANCH  34  41
BRANCH  35  43
HETATM   43  C   UNK N   1       6.643  17.859  -0.438  0.00  0.00     0.198 C 
BRANCH  43  44
HETATM   44  O   UNK N   1       6.773  19.053  -1.143  0.00  0.00    -0.398 OA
HETATM   45  H   UNK N   1       7.538  19.390  -1.634  0.00  0.00     0.209 HD
ENDBRANCH  43  44
ENDBRANCH  35  43
ENDBRANCH  30  31
ENDBRANCH   6  30
TORSDOF 15
