MODEL 1
REMARK VINA RESULT:      -5.6      0.000      0.000
REMARK  6 active torsions:
REMARK  status: ('A' for Active; 'I' for Inactive)
REMARK       I    between atoms: C_2  and  N_4 
REMARK    1  A    between atoms: C_5  and  N_4 
REMARK    2  A    between atoms: C_5  and  C_6 
REMARK    3  A    between atoms: C_5  and  C_11 
REMARK    4  A    between atoms: C_6  and  C_7 
REMARK    5  A    between atoms: C_7  and  C_8 
REMARK       I    between atoms: C_8  and  N_9 
REMARK    6  A    between atoms: C_11  and  O_12 
ROOT
HETATM    1  C   UNK N   1      33.497  17.226   8.732  0.00  0.00     0.182 C 
ENDROOT
BRANCH   1   2
HETATM    2  N   UNK N   1      34.055  16.403   9.808  0.00  0.00    -0.347 N 
HETATM    3  C   UNK N   1      35.156  16.567  10.593  0.00  0.00     0.214 C 
HETATM    4  C   UNK N   1      35.471  15.538  11.623  0.00  0.00     0.117 C 
HETATM    5  O   UNK N   1      35.895  17.528  10.484  0.00  0.00    -0.274 OA
HETATM    6  H   UNK N   1      33.543  15.584   9.998  0.00  0.00     0.163 HD
ENDBRANCH   1   2
BRANCH   1   7
HETATM    7  C   UNK N   1      31.972  17.040   8.585  0.00  0.00     0.045 C 
BRANCH   7   8
HETATM    8  C   UNK N   1      31.127  18.305   8.732  0.00  0.00     0.105 C 
BRANCH   8   9
HETATM    9  C   UNK N   1      29.800  18.082   9.400  0.00  0.00     0.215 C 
HETATM   10  N   UNK N   1      29.696  17.150  10.367  0.00  0.00    -0.370 N 
HETATM   11  H   UNK N   1      28.830  16.997  10.812  0.00  0.00     0.159 HD
HETATM   12  H   UNK N   1      30.484  16.623  10.630  0.00  0.00     0.159 HD
HETATM   13  O   UNK N   1      28.817  18.732   9.080  0.00  0.00    -0.274 OA
ENDBRANCH   8   9
ENDBRANCH   7   8
ENDBRANCH   1   7
BRANCH   1  14
HETATM   14  C   UNK N   1      34.314  18.170   7.843  0.00  0.00     0.163 C 
HETATM   15  O   UNK N   1      34.375  18.019   6.640  0.00  0.00    -0.648 OA
BRANCH  14  16
HETATM   16  O   UNK N   1      34.988  19.198   8.389  0.00  0.00    -0.775 OA
HETATM   17  H   UNK N   1      34.533  19.980   8.634  0.00  0.00     0.167 HD
ENDBRANCH  14  16
ENDBRANCH   1  14
TORSDOF 6
ENDMDL
MODEL 2
REMARK VINA RESULT:      -5.5      1.845      2.101
REMARK  6 active torsions:
REMARK  status: ('A' for Active; 'I' for Inactive)
REMARK       I    between atoms: C_2  and  N_4 
REMARK    1  A    between atoms: C_5  and  N_4 
REMARK    2  A    between atoms: C_5  and  C_6 
REMARK    3  A    between atoms: C_5  and  C_11 
REMARK    4  A    between atoms: C_6  and  C_7 
REMARK    5  A    between atoms: C_7  and  C_8 
REMARK       I    between atoms: C_8  and  N_9 
REMARK    6  A    between atoms: C_11  and  O_12 
ROOT
HETATM    1  C   UNK N   1      33.507  17.410   8.747  0.00  0.00     0.182 C 
ENDROOT
BRANCH   1   2
HETATM    2  N   UNK N   1      33.945  16.450   9.764  0.00  0.00    -0.347 N 
HETATM    3  C   UNK N   1      35.040  16.428  10.573  0.00  0.00     0.214 C 
HETATM    4  C   UNK N   1      35.213  15.295  11.525  0.00  0.00     0.117 C 
HETATM    5  O   UNK N   1      35.885  17.303  10.548  0.00  0.00    -0.274 OA
HETATM    6  H   UNK N   1      33.338  15.684   9.883  0.00  0.00     0.163 HD
ENDBRANCH   1   2
BRANCH   1   7
HETATM    7  C   UNK N   1      31.970  17.496   8.647  0.00  0.00     0.045 C 
BRANCH   7   8
HETATM    8  C   UNK N   1      31.305  16.505   7.692  0.00  0.00     0.105 C 
BRANCH   8   9
HETATM    9  C   UNK N   1      30.944  17.089   6.356  0.00  0.00     0.215 C 
HETATM   10  N   UNK N   1      31.901  17.239   5.420  0.00  0.00    -0.370 N 
HETATM   11  H   UNK N   1      31.674  17.621   4.541  0.00  0.00     0.159 HD
HETATM   12  H   UNK N   1      32.826  16.968   5.614  0.00  0.00     0.159 HD
HETATM   13  O   UNK N   1      29.798  17.429   6.107  0.00  0.00    -0.274 OA
ENDBRANCH   8   9
ENDBRANCH   7   8
ENDBRANCH   1   7
BRANCH   1  14
HETATM   14  C   UNK N   1      34.450  18.243   7.872  0.00  0.00     0.163 C 
HETATM   15  O   UNK N   1      34.518  18.079   6.670  0.00  0.00    -0.648 OA
BRANCH  14  16
HETATM   16  O   UNK N   1      35.230  19.187   8.428  0.00  0.00    -0.775 OA
HETATM   17  H   UNK N   1      35.393  19.990   7.972  0.00  0.00     0.167 HD
ENDBRANCH  14  16
ENDBRANCH   1  14
TORSDOF 6
ENDMDL
MODEL 3
REMARK VINA RESULT:      -5.4      1.570      4.751
REMARK  6 active torsions:
REMARK  status: ('A' for Active; 'I' for Inactive)
REMARK       I    between atoms: C_2  and  N_4 
REMARK    1  A    between atoms: C_5  and  N_4 
REMARK    2  A    between atoms: C_5  and  C_6 
REMARK    3  A    between atoms: C_5  and  C_11 
REMARK    4  A    between atoms: C_6  and  C_7 
REMARK    5  A    between atoms: C_7  and  C_8 
REMARK       I    between atoms: C_8  and  N_9 
REMARK    6  A    between atoms: C_11  and  O_12 
ROOT
HETATM    1  C   UNK N   1      33.293  17.290   8.615  0.00  0.00     0.182 C 
ENDROOT
BRANCH   1   2
HETATM    2  N   UNK N   1      31.925  17.686   8.962  0.00  0.00    -0.347 N 
HETATM    3  C   UNK N   1      30.768  17.663   8.244  0.00  0.00     0.214 C 
HETATM    4  C   UNK N   1      29.510  18.141   8.883  0.00  0.00     0.117 C 
HETATM    5  O   UNK N   1      30.724  17.265   7.094  0.00  0.00    -0.274 OA
HETATM    6  H   UNK N   1      31.824  18.030   9.879  0.00  0.00     0.163 HD
ENDBRANCH   1   2
BRANCH   1   7
HETATM    7  C   UNK N   1      33.668  15.911   9.199  0.00  0.00     0.045 C 
BRANCH   7   8
HETATM    8  C   UNK N   1      35.163  15.613   9.300  0.00  0.00     0.105 C 
BRANCH   8   9
HETATM    9  C   UNK N   1      35.824  16.200  10.515  0.00  0.00     0.215 C 
HETATM   10  N   UNK N   1      36.345  15.378  11.446  0.00  0.00    -0.370 N 
HETATM   11  H   UNK N   1      36.781  15.753  12.245  0.00  0.00     0.159 HD
HETATM   12  H   UNK N   1      36.290  14.402  11.327  0.00  0.00     0.159 HD
HETATM   13  O   UNK N   1      35.896  17.409  10.670  0.00  0.00    -0.274 OA
ENDBRANCH   8   9
ENDBRANCH   7   8
ENDBRANCH   1   7
BRANCH   1  14
HETATM   14  C   UNK N   1      34.256  18.131   7.772  0.00  0.00     0.163 C 
HETATM   15  O   UNK N   1      34.365  17.969   6.574  0.00  0.00    -0.648 OA
BRANCH  14  16
HETATM   16  O   UNK N   1      35.011  19.080   8.355  0.00  0.00    -0.775 OA
HETATM   17  H   UNK N   1      34.708  19.512   9.129  0.00  0.00     0.167 HD
ENDBRANCH  14  16
ENDBRANCH   1  14
TORSDOF 6
ENDMDL
MODEL 4
REMARK VINA RESULT:      -5.0      2.565      4.269
REMARK  6 active torsions:
REMARK  status: ('A' for Active; 'I' for Inactive)
REMARK       I    between atoms: C_2  and  N_4 
REMARK    1  A    between atoms: C_5  and  N_4 
REMARK    2  A    between atoms: C_5  and  C_6 
REMARK    3  A    between atoms: C_5  and  C_11 
REMARK    4  A    between atoms: C_6  and  C_7 
REMARK    5  A    between atoms: C_7  and  C_8 
REMARK       I    between atoms: C_8  and  N_9 
REMARK    6  A    between atoms: C_11  and  O_12 
ROOT
HETATM    1  C   UNK N   1      33.440  17.310   8.680  0.00  0.00     0.182 C 
ENDROOT
BRANCH   1   2
HETATM    2  N   UNK N   1      32.060  17.652   9.036  0.00  0.00    -0.347 N 
HETATM    3  C   UNK N   1      30.895  17.554   8.338  0.00  0.00     0.214 C 
HETATM    4  C   UNK N   1      29.626  17.991   8.983  0.00  0.00     0.117 C 
HETATM    5  O   UNK N   1      30.853  17.119   7.202  0.00  0.00    -0.274 OA
HETATM    6  H   UNK N   1      31.957  18.020   9.944  0.00  0.00     0.163 HD
ENDBRANCH   1   2
BRANCH   1   7
HETATM    7  C   UNK N   1      33.866  15.938   9.242  0.00  0.00     0.045 C 
BRANCH   7   8
HETATM    8  C   UNK N   1      33.999  14.809   8.221  0.00  0.00     0.105 C 
BRANCH   8   9
HETATM    9  C   UNK N   1      32.748  13.997   8.036  0.00  0.00     0.215 C 
HETATM   10  N   UNK N   1      31.923  14.280   7.010  0.00  0.00    -0.370 N 
HETATM   11  H   UNK N   1      31.101  13.753   6.881  0.00  0.00     0.159 HD
HETATM   12  H   UNK N   1      32.141  15.012   6.390  0.00  0.00     0.159 HD
HETATM   13  O   UNK N   1      32.470  13.087   8.802  0.00  0.00    -0.274 OA
ENDBRANCH   8   9
ENDBRANCH   7   8
ENDBRANCH   1   7
BRANCH   1  14
HETATM   14  C   UNK N   1      34.370  18.198   7.846  0.00  0.00     0.163 C 
HETATM   15  O   UNK N   1      34.480  18.055   6.645  0.00  0.00    -0.648 OA
BRANCH  14  16
HETATM   16  O   UNK N   1      35.092  19.165   8.439  0.00  0.00    -0.775 OA
HETATM   17  H   UNK N   1      36.024  19.183   8.340  0.00  0.00     0.167 HD
ENDBRANCH  14  16
ENDBRANCH   1  14
TORSDOF 6
ENDMDL
MODEL 5
REMARK VINA RESULT:      -5.0      1.994      3.052
REMARK  6 active torsions:
REMARK  status: ('A' for Active; 'I' for Inactive)
REMARK       I    between atoms: C_2  and  N_4 
REMARK    1  A    between atoms: C_5  and  N_4 
REMARK    2  A    between atoms: C_5  and  C_6 
REMARK    3  A    between atoms: C_5  and  C_11 
REMARK    4  A    between atoms: C_6  and  C_7 
REMARK    5  A    between atoms: C_7  and  C_8 
REMARK       I    between atoms: C_8  and  N_9 
REMARK    6  A    between atoms: C_11  and  O_12 
ROOT
HETATM    1  C   UNK N   1      31.341  17.722   8.155  0.00  0.00     0.182 C 
ENDROOT
BRANCH   1   2
HETATM    2  N   UNK N   1      32.559  17.295   8.847  0.00  0.00    -0.347 N 
HETATM    3  C   UNK N   1      33.870  17.602   8.641  0.00  0.00     0.214 C 
HETATM    4  C   UNK N   1      34.903  16.998   9.529  0.00  0.00     0.117 C 
HETATM    5  O   UNK N   1      34.230  18.355   7.755  0.00  0.00    -0.274 OA
HETATM    6  H   UNK N   1      32.403  16.675   9.596  0.00  0.00     0.163 HD
ENDBRANCH   1   2
BRANCH   1   7
HETATM    7  C   UNK N   1      30.551  18.777   8.958  0.00  0.00     0.045 C 
BRANCH   7   8
HETATM    8  C   UNK N   1      29.502  18.233   9.925  0.00  0.00     0.105 C 
BRANCH   8   9
HETATM    9  C   UNK N   1      28.161  17.978   9.297  0.00  0.00     0.215 C 
HETATM   10  N   UNK N   1      27.649  18.884   8.443  0.00  0.00    -0.370 N 
HETATM   11  H   UNK N   1      26.771  18.726   8.026  0.00  0.00     0.159 HD
HETATM   12  H   UNK N   1      28.152  19.704   8.235  0.00  0.00     0.159 HD
HETATM   13  O   UNK N   1      27.531  16.963   9.550  0.00  0.00    -0.274 OA
ENDBRANCH   8   9
ENDBRANCH   7   8
ENDBRANCH   1   7
BRANCH   1  14
HETATM   14  C   UNK N   1      30.883  17.194   6.791  0.00  0.00     0.163 C 
HETATM   15  O   UNK N   1      31.614  16.529   6.086  0.00  0.00    -0.648 OA
BRANCH  14  16
HETATM   16  O   UNK N   1      29.643  17.464   6.343  0.00  0.00    -0.775 OA
HETATM   17  H   UNK N   1      28.917  17.450   6.936  0.00  0.00     0.167 HD
ENDBRANCH  14  16
ENDBRANCH   1  14
TORSDOF 6
ENDMDL
MODEL 6
REMARK VINA RESULT:      -5.0     10.417     12.262
REMARK  6 active torsions:
REMARK  status: ('A' for Active; 'I' for Inactive)
REMARK       I    between atoms: C_2  and  N_4 
REMARK    1  A    between atoms: C_5  and  N_4 
REMARK    2  A    between atoms: C_5  and  C_6 
REMARK    3  A    between atoms: C_5  and  C_11 
REMARK    4  A    between atoms: C_6  and  C_7 
REMARK    5  A    between atoms: C_7  and  C_8 
REMARK       I    between atoms: C_8  and  N_9 
REMARK    6  A    between atoms: C_11  and  O_12 
ROOT
HETATM    1  C   UNK N   1      22.436  19.509   3.209  0.00  0.00     0.182 C 
ENDROOT
BRANCH   1   2
HETATM    2  N   UNK N   1      23.821  19.706   3.647  0.00  0.00    -0.347 N 
HETATM    3  C   UNK N   1      24.890  20.282   3.031  0.00  0.00     0.214 C 
HETATM    4  C   UNK N   1      26.195  20.335   3.746  0.00  0.00     0.117 C 
HETATM    5  O   UNK N   1      24.818  20.758   1.912  0.00  0.00    -0.274 OA
HETATM    6  H   UNK N   1      24.012  19.361   4.549  0.00  0.00     0.163 HD
ENDBRANCH   1   2
BRANCH   1   7
HETATM    7  C   UNK N   1      21.917  18.092   3.533  0.00  0.00     0.045 C 
BRANCH   7   8
HETATM    8  C   UNK N   1      20.905  17.995   4.672  0.00  0.00     0.105 C 
BRANCH   8   9
HETATM    9  C   UNK N   1      21.519  18.023   6.043  0.00  0.00     0.215 C 
HETATM   10  N   UNK N   1      22.585  17.243   6.305  0.00  0.00    -0.370 N 
HETATM   11  H   UNK N   1      22.994  17.254   7.201  0.00  0.00     0.159 HD
HETATM   12  H   UNK N   1      22.955  16.662   5.602  0.00  0.00     0.159 HD
HETATM   13  O   UNK N   1      21.066  18.740   6.921  0.00  0.00    -0.274 OA
ENDBRANCH   8   9
ENDBRANCH   7   8
ENDBRANCH   1   7
BRANCH   1  14
HETATM   14  C   UNK N   1      21.584  20.572   2.509  0.00  0.00     0.163 C 
HETATM   15  O   UNK N   1      21.614  20.723   1.304  0.00  0.00    -0.648 OA
BRANCH  14  16
HETATM   16  O   UNK N   1      20.773  21.369   3.228  0.00  0.00    -0.775 OA
HETATM   17  H   UNK N   1      20.056  21.807   2.812  0.00  0.00     0.167 HD
ENDBRANCH  14  16
ENDBRANCH   1  14
TORSDOF 6
ENDMDL
MODEL 7
REMARK VINA RESULT:      -5.0     12.780     14.338
REMARK  6 active torsions:
REMARK  status: ('A' for Active; 'I' for Inactive)
REMARK       I    between atoms: C_2  and  N_4 
REMARK    1  A    between atoms: C_5  and  N_4 
REMARK    2  A    between atoms: C_5  and  C_6 
REMARK    3  A    between atoms: C_5  and  C_11 
REMARK    4  A    between atoms: C_6  and  C_7 
REMARK    5  A    between atoms: C_7  and  C_8 
REMARK       I    between atoms: C_8  and  N_9 
REMARK    6  A    between atoms: C_11  and  O_12 
ROOT
HETATM    1  C   UNK N   1      43.068  22.773   1.664  0.00  0.00     0.182 C 
ENDROOT
BRANCH   1   2
HETATM    2  N   UNK N   1      44.163  23.563   1.094  0.00  0.00    -0.347 N 
HETATM    3  C   UNK N   1      44.977  24.507   1.642  0.00  0.00     0.214 C 
HETATM    4  C   UNK N   1      46.019  25.146   0.792  0.00  0.00     0.117 C 
HETATM    5  O   UNK N   1      44.883  24.849   2.807  0.00  0.00    -0.274 OA
HETATM    6  H   UNK N   1      44.342  23.377   0.144  0.00  0.00     0.163 HD
ENDBRANCH   1   2
BRANCH   1   7
HETATM    7  C   UNK N   1      43.528  21.366   2.101  0.00  0.00     0.045 C 
BRANCH   7   8
HETATM    8  C   UNK N   1      43.486  21.086   3.602  0.00  0.00     0.105 C 
BRANCH   8   9
HETATM    9  C   UNK N   1      44.333  22.015   4.424  0.00  0.00     0.215 C 
HETATM   10  N   UNK N   1      45.652  22.105   4.170  0.00  0.00    -0.370 N 
HETATM   11  H   UNK N   1      46.216  22.712   4.703  0.00  0.00     0.159 HD
HETATM   12  H   UNK N   1      46.053  21.565   3.452  0.00  0.00     0.159 HD
HETATM   13  O   UNK N   1      43.843  22.689   5.317  0.00  0.00    -0.274 OA
ENDBRANCH   8   9
ENDBRANCH   7   8
ENDBRANCH   1   7
BRANCH   1  14
HETATM   14  C   UNK N   1      41.625  23.267   1.818  0.00  0.00     0.163 C 
HETATM   15  O   UNK N   1      41.326  24.429   1.635  0.00  0.00    -0.648 OA
BRANCH  14  16
HETATM   16  O   UNK N   1      40.651  22.407   2.164  0.00  0.00    -0.775 OA
HETATM   17  H   UNK N   1      40.754  21.490   2.002  0.00  0.00     0.167 HD
ENDBRANCH  14  16
ENDBRANCH   1  14
TORSDOF 6
ENDMDL
MODEL 8
REMARK VINA RESULT:      -5.0      8.071      9.365
REMARK  6 active torsions:
REMARK  status: ('A' for Active; 'I' for Inactive)
REMARK       I    between atoms: C_2  and  N_4 
REMARK    1  A    between atoms: C_5  and  N_4 
REMARK    2  A    between atoms: C_5  and  C_6 
REMARK    3  A    between atoms: C_5  and  C_11 
REMARK    4  A    between atoms: C_6  and  C_7 
REMARK    5  A    between atoms: C_7  and  C_8 
REMARK       I    between atoms: C_8  and  N_9 
REMARK    6  A    between atoms: C_11  and  O_12 
ROOT
HETATM    1  C   UNK N   1      36.358  13.139  15.550  0.00  0.00     0.182 C 
ENDROOT
BRANCH   1   2
HETATM    2  N   UNK N   1      36.950  11.847  15.195  0.00  0.00    -0.347 N 
HETATM    3  C   UNK N   1      37.439  11.370  14.017  0.00  0.00     0.214 C 
HETATM    4  C   UNK N   1      37.988   9.986  13.969  0.00  0.00     0.117 C 
HETATM    5  O   UNK N   1      37.444  12.036  12.998  0.00  0.00    -0.274 OA
HETATM    6  H   UNK N   1      37.005  11.208  15.943  0.00  0.00     0.163 HD
ENDBRANCH   1   2
BRANCH   1   7
HETATM    7  C   UNK N   1      35.043  12.982  16.342  0.00  0.00     0.045 C 
BRANCH   7   8
HETATM    8  C   UNK N   1      35.170  12.363  17.733  0.00  0.00     0.105 C 
BRANCH   8   9
HETATM    9  C   UNK N   1      35.219  13.368  18.849  0.00  0.00     0.215 C 
HETATM   10  N   UNK N   1      35.178  12.940  20.126  0.00  0.00    -0.370 N 
HETATM   11  H   UNK N   1      35.209  13.590  20.864  0.00  0.00     0.159 HD
HETATM   12  H   UNK N   1      35.115  11.977  20.320  0.00  0.00     0.159 HD
HETATM   13  O   UNK N   1      35.297  14.564  18.616  0.00  0.00    -0.274 OA
ENDBRANCH   8   9
ENDBRANCH   7   8
ENDBRANCH   1   7
BRANCH   1  14
HETATM   14  C   UNK N   1      36.958  14.502  15.187  0.00  0.00     0.163 C 
HETATM   15  O   UNK N   1      37.544  15.180  16.007  0.00  0.00    -0.648 OA
BRANCH  14  16
HETATM   16  O   UNK N   1      36.843  14.978  13.935  0.00  0.00    -0.775 OA
HETATM   17  H   UNK N   1      36.527  14.424  13.249  0.00  0.00     0.167 HD
ENDBRANCH  14  16
ENDBRANCH   1  14
TORSDOF 6
ENDMDL
MODEL 9
REMARK VINA RESULT:      -4.9      2.343      6.284
REMARK  6 active torsions:
REMARK  status: ('A' for Active; 'I' for Inactive)
REMARK       I    between atoms: C_2  and  N_4 
REMARK    1  A    between atoms: C_5  and  N_4 
REMARK    2  A    between atoms: C_5  and  C_6 
REMARK    3  A    between atoms: C_5  and  C_11 
REMARK    4  A    between atoms: C_6  and  C_7 
REMARK    5  A    between atoms: C_7  and  C_8 
REMARK       I    between atoms: C_8  and  N_9 
REMARK    6  A    between atoms: C_11  and  O_12 
ROOT
HETATM    1  C   UNK N   1      29.643  17.674   8.340  0.00  0.00     0.182 C 
ENDROOT
BRANCH   1   2
HETATM    2  N   UNK N   1      29.441  17.523   6.897  0.00  0.00    -0.347 N 
HETATM    3  C   UNK N   1      28.668  18.216   6.015  0.00  0.00     0.214 C 
HETATM    4  C   UNK N   1      28.673  17.817   4.580  0.00  0.00     0.117 C 
HETATM    5  O   UNK N   1      27.970  19.152   6.359  0.00  0.00    -0.274 OA
HETATM    6  H   UNK N   1      29.958  16.789   6.491  0.00  0.00     0.163 HD
ENDBRANCH   1   2
BRANCH   1   7
HETATM    7  C   UNK N   1      31.125  17.909   8.702  0.00  0.00     0.045 C 
BRANCH   7   8
HETATM    8  C   UNK N   1      32.135  17.646   7.587  0.00  0.00     0.105 C 
BRANCH   8   9
HETATM    9  C   UNK N   1      33.569  17.810   8.006  0.00  0.00     0.215 C 
HETATM   10  N   UNK N   1      33.925  17.518   9.271  0.00  0.00    -0.370 N 
HETATM   11  H   UNK N   1      34.862  17.622   9.555  0.00  0.00     0.159 HD
HETATM   12  H   UNK N   1      33.248  17.200   9.912  0.00  0.00     0.159 HD
HETATM   13  O   UNK N   1      34.414  18.204   7.217  0.00  0.00    -0.274 OA
ENDBRANCH   8   9
ENDBRANCH   7   8
ENDBRANCH   1   7
BRANCH   1  14
HETATM   14  C   UNK N   1      28.527  17.609   9.388  0.00  0.00     0.163 C 
HETATM   15  O   UNK N   1      28.599  16.876  10.353  0.00  0.00    -0.648 OA
BRANCH  14  16
HETATM   16  O   UNK N   1      27.430  18.376   9.254  0.00  0.00    -0.775 OA
HETATM   17  H   UNK N   1      26.628  18.125   9.669  0.00  0.00     0.167 HD
ENDBRANCH  14  16
ENDBRANCH   1  14
TORSDOF 6
ENDMDL
