MODEL 1
REMARK VINA RESULT:      -5.3      0.000      0.000
REMARK  6 active torsions:
REMARK  status: ('A' for Active; 'I' for Inactive)
REMARK    1  A    between atoms: C_2  and  N_1 
REMARK    2  A    between atoms: C_2  and  C_3 
REMARK    3  A    between atoms: C_2  and  C_6 
REMARK    4  A    between atoms: C_3  and  O_4 
REMARK    5  A    between atoms: C_8  and  O_9 
REMARK    6  A    between atoms: C_11  and  O_12 
ROOT
HETATM    1  C   UNK N   1      22.861  12.745  10.400  0.00  0.00    -0.021 A 
HETATM    2  C   UNK N   1      23.404  13.214   9.191  0.00  0.00     0.046 A 
HETATM    3  C   UNK N   1      22.605  13.908   8.276  0.00  0.00     0.069 A 
HETATM    4  C   UNK N   1      21.258  14.137   8.558  0.00  0.00     0.073 A 
HETATM    5  C   UNK N   1      20.705  13.665   9.750  0.00  0.00     0.069 A 
HETATM    6  C   UNK N   1      21.498  12.959  10.659  0.00  0.00     0.046 A 
ENDROOT
BRANCH   1   7
HETATM    7  C   UNK N   1      23.718  11.919  11.346  0.00  0.00     0.207 C 
BRANCH   7   8
HETATM    8  N   UNK N   1      25.121  12.294  11.245  0.00  0.00    -0.414 N 
HETATM    9  H   UNK N   1      25.471  13.219  11.497  0.00  0.00     0.151 HD
HETATM   10  H   UNK N   1      25.786  11.600  10.905  0.00  0.00     0.151 HD
ENDBRANCH   7   8
BRANCH   7  11
HETATM   11  C   UNK N   1      23.307  11.876  12.800  0.00  0.00     0.167 C 
HETATM   12  O   UNK N   1      23.919  12.496  13.654  0.00  0.00    -0.648 OA
BRANCH  11  13
HETATM   13  O   UNK N   1      22.237  11.142  13.159  0.00  0.00    -0.775 OA
HETATM   14  H   UNK N   1      21.528  11.521  13.640  0.00  0.00     0.167 HD
ENDBRANCH  11  13
ENDBRANCH   7  11
ENDBRANCH   1   7
BRANCH   3  15
HETATM   15  O   UNK N   1      23.133  14.343   7.120  0.00  0.00    -0.361 OA
HETATM   16  H   UNK N   1      22.809  15.129   6.724  0.00  0.00     0.217 HD
ENDBRANCH   3  15
BRANCH   5  17
HETATM   17  O   UNK N   1      19.407  13.881  10.019  0.00  0.00    -0.361 OA
HETATM   18  H   UNK N   1      18.745  13.520   9.463  0.00  0.00     0.217 HD
ENDBRANCH   5  17
TORSDOF 6
ENDMDL
MODEL 2
REMARK VINA RESULT:      -5.2     12.778     14.298
REMARK  6 active torsions:
REMARK  status: ('A' for Active; 'I' for Inactive)
REMARK    1  A    between atoms: C_2  and  N_1 
REMARK    2  A    between atoms: C_2  and  C_3 
REMARK    3  A    between atoms: C_2  and  C_6 
REMARK    4  A    between atoms: C_3  and  O_4 
REMARK    5  A    between atoms: C_8  and  O_9 
REMARK    6  A    between atoms: C_11  and  O_12 
ROOT
HETATM    1  C   UNK N   1      35.467  14.074  12.626  0.00  0.00    -0.021 A 
HETATM    2  C   UNK N   1      34.959  12.797  12.922  0.00  0.00     0.046 A 
HETATM    3  C   UNK N   1      35.311  12.151  14.111  0.00  0.00     0.069 A 
HETATM    4  C   UNK N   1      36.174  12.772  15.015  0.00  0.00     0.073 A 
HETATM    5  C   UNK N   1      36.694  14.036  14.727  0.00  0.00     0.069 A 
HETATM    6  C   UNK N   1      36.355  14.676  13.532  0.00  0.00     0.046 A 
ENDROOT
BRANCH   1   7
HETATM    7  C   UNK N   1      35.146  14.728  11.292  0.00  0.00     0.207 C 
BRANCH   7   8
HETATM    8  N   UNK N   1      33.709  14.890  11.120  0.00  0.00    -0.414 N 
HETATM    9  H   UNK N   1      33.049  14.874  11.899  0.00  0.00     0.151 HD
HETATM   10  H   UNK N   1      33.344  15.026  10.178  0.00  0.00     0.151 HD
ENDBRANCH   7   8
BRANCH   7  11
HETATM   11  C   UNK N   1      35.845  16.027  10.966  0.00  0.00     0.167 C 
HETATM   12  O   UNK N   1      35.241  17.087  10.935  0.00  0.00    -0.648 OA
BRANCH  11  13
HETATM   13  O   UNK N   1      37.168  16.015  10.713  0.00  0.00    -0.775 OA
HETATM   14  H   UNK N   1      37.641  15.209  10.639  0.00  0.00     0.167 HD
ENDBRANCH  11  13
ENDBRANCH   7  11
ENDBRANCH   1   7
BRANCH   3  15
HETATM   15  O   UNK N   1      34.826  10.927  14.378  0.00  0.00    -0.361 OA
HETATM   16  H   UNK N   1      33.988  10.834  14.789  0.00  0.00     0.217 HD
ENDBRANCH   3  15
BRANCH   5  17
HETATM   17  O   UNK N   1      37.528  14.632  15.594  0.00  0.00    -0.361 OA
HETATM   18  H   UNK N   1      38.371  14.261  15.764  0.00  0.00     0.217 HD
ENDBRANCH   5  17
TORSDOF 6
ENDMDL
MODEL 3
REMARK VINA RESULT:      -5.2     12.717     14.197
REMARK  6 active torsions:
REMARK  status: ('A' for Active; 'I' for Inactive)
REMARK    1  A    between atoms: C_2  and  N_1 
REMARK    2  A    between atoms: C_2  and  C_3 
REMARK    3  A    between atoms: C_2  and  C_6 
REMARK    4  A    between atoms: C_3  and  O_4 
REMARK    5  A    between atoms: C_8  and  O_9 
REMARK    6  A    between atoms: C_11  and  O_12 
ROOT
HETATM    1  C   UNK N   1      35.515  14.030  12.641  0.00  0.00    -0.021 A 
HETATM    2  C   UNK N   1      36.406  14.654  13.531  0.00  0.00     0.046 A 
HETATM    3  C   UNK N   1      36.667  14.094  14.786  0.00  0.00     0.069 A 
HETATM    4  C   UNK N   1      36.039  12.907  15.165  0.00  0.00     0.073 A 
HETATM    5  C   UNK N   1      35.142  12.283  14.294  0.00  0.00     0.069 A 
HETATM    6  C   UNK N   1      34.870  12.850  13.046  0.00  0.00     0.046 A 
ENDROOT
BRANCH   1   7
HETATM    7  C   UNK N   1      35.174  14.694  11.317  0.00  0.00     0.207 C 
BRANCH   7   8
HETATM    8  N   UNK N   1      33.734  14.854  11.167  0.00  0.00    -0.414 N 
HETATM    9  H   UNK N   1      33.260  15.753  11.260  0.00  0.00     0.151 HD
HETATM   10  H   UNK N   1      33.173  14.029  10.959  0.00  0.00     0.151 HD
ENDBRANCH   7   8
BRANCH   7  11
HETATM   11  C   UNK N   1      35.866  15.998  10.994  0.00  0.00     0.167 C 
HETATM   12  O   UNK N   1      35.259  17.057  10.980  0.00  0.00    -0.648 OA
BRANCH  11  13
HETATM   13  O   UNK N   1      37.185  15.992  10.722  0.00  0.00    -0.775 OA
HETATM   14  H   UNK N   1      37.797  15.579  11.299  0.00  0.00     0.167 HD
ENDBRANCH  11  13
ENDBRANCH   7  11
ENDBRANCH   1   7
BRANCH   3  15
HETATM   15  O   UNK N   1      37.513  14.706  15.630  0.00  0.00    -0.361 OA
HETATM   16  H   UNK N   1      37.177  15.227  16.334  0.00  0.00     0.217 HD
ENDBRANCH   3  15
BRANCH   5  17
HETATM   17  O   UNK N   1      34.534  11.143  14.660  0.00  0.00    -0.361 OA
HETATM   18  H   UNK N   1      35.012  10.337  14.667  0.00  0.00     0.217 HD
ENDBRANCH   5  17
TORSDOF 6
ENDMDL
MODEL 4
REMARK VINA RESULT:      -5.2      9.617     10.917
REMARK  6 active torsions:
REMARK  status: ('A' for Active; 'I' for Inactive)
REMARK    1  A    between atoms: C_2  and  N_1 
REMARK    2  A    between atoms: C_2  and  C_3 
REMARK    3  A    between atoms: C_2  and  C_6 
REMARK    4  A    between atoms: C_3  and  O_4 
REMARK    5  A    between atoms: C_8  and  O_9 
REMARK    6  A    between atoms: C_11  and  O_12 
ROOT
HETATM    1  C   UNK N   1      31.760  17.628   8.124  0.00  0.00    -0.021 A 
HETATM    2  C   UNK N   1      31.408  17.097   6.871  0.00  0.00     0.046 A 
HETATM    3  C   UNK N   1      30.083  17.138   6.428  0.00  0.00     0.069 A 
HETATM    4  C   UNK N   1      29.095  17.708   7.233  0.00  0.00     0.073 A 
HETATM    5  C   UNK N   1      29.430  18.229   8.485  0.00  0.00     0.069 A 
HETATM    6  C   UNK N   1      30.752  18.174   8.934  0.00  0.00     0.046 A 
ENDROOT
BRANCH   1   7
HETATM    7  C   UNK N   1      33.188  17.498   8.630  0.00  0.00     0.207 C 
BRANCH   7   8
HETATM    8  N   UNK N   1      33.566  16.099   8.777  0.00  0.00    -0.414 N 
HETATM    9  H   UNK N   1      32.917  15.376   9.089  0.00  0.00     0.151 HD
HETATM   10  H   UNK N   1      34.525  15.830   8.560  0.00  0.00     0.151 HD
ENDBRANCH   7   8
BRANCH   7  11
HETATM   11  C   UNK N   1      34.265  18.238   7.871  0.00  0.00     0.167 C 
HETATM   12  O   UNK N   1      34.896  19.148   8.384  0.00  0.00    -0.648 OA
BRANCH  11  13
HETATM   13  O   UNK N   1      34.540  17.878   6.603  0.00  0.00    -0.775 OA
HETATM   14  H   UNK N   1      34.242  18.390   5.877  0.00  0.00     0.167 HD
ENDBRANCH  11  13
ENDBRANCH   7  11
ENDBRANCH   1   7
BRANCH   3  15
HETATM   15  O   UNK N   1      29.758  16.619   5.233  0.00  0.00    -0.361 OA
HETATM   16  H   UNK N   1      28.905  16.768   4.873  0.00  0.00     0.217 HD
ENDBRANCH   3  15
BRANCH   5  17
HETATM   17  O   UNK N   1      28.479  18.773   9.261  0.00  0.00    -0.361 OA
HETATM   18  H   UNK N   1      27.582  18.528   9.147  0.00  0.00     0.217 HD
ENDBRANCH   5  17
TORSDOF 6
ENDMDL
MODEL 5
REMARK VINA RESULT:      -5.2      2.125      4.961
REMARK  6 active torsions:
REMARK  status: ('A' for Active; 'I' for Inactive)
REMARK    1  A    between atoms: C_2  and  N_1 
REMARK    2  A    between atoms: C_2  and  C_3 
REMARK    3  A    between atoms: C_2  and  C_6 
REMARK    4  A    between atoms: C_3  and  O_4 
REMARK    5  A    between atoms: C_8  and  O_9 
REMARK    6  A    between atoms: C_11  and  O_12 
ROOT
HETATM    1  C   UNK N   1      22.371  13.381   9.419  0.00  0.00    -0.021 A 
HETATM    2  C   UNK N   1      21.294  12.914  10.191  0.00  0.00     0.046 A 
HETATM    3  C   UNK N   1      21.521  12.163  11.349  0.00  0.00     0.069 A 
HETATM    4  C   UNK N   1      22.826  11.869  11.746  0.00  0.00     0.073 A 
HETATM    5  C   UNK N   1      23.905  12.317  10.980  0.00  0.00     0.069 A 
HETATM    6  C   UNK N   1      23.679  13.054   9.815  0.00  0.00     0.046 A 
ENDROOT
BRANCH   1   7
HETATM    7  C   UNK N   1      22.109  14.121   8.118  0.00  0.00     0.207 C 
BRANCH   7   8
HETATM    8  N   UNK N   1      23.245  14.009   7.213  0.00  0.00    -0.414 N 
HETATM    9  H   UNK N   1      24.040  13.395   7.390  0.00  0.00     0.151 HD
HETATM   10  H   UNK N   1      23.246  14.572   6.363  0.00  0.00     0.151 HD
ENDBRANCH   7   8
BRANCH   7  11
HETATM   11  C   UNK N   1      20.834  13.793   7.375  0.00  0.00     0.167 C 
HETATM   12  O   UNK N   1      19.955  14.624   7.217  0.00  0.00    -0.648 OA
BRANCH  11  13
HETATM   13  O   UNK N   1      20.669  12.555   6.869  0.00  0.00    -0.775 OA
HETATM   14  H   UNK N   1      19.826  12.252   6.594  0.00  0.00     0.167 HD
ENDBRANCH  11  13
ENDBRANCH   7  11
ENDBRANCH   1   7
BRANCH   3  15
HETATM   15  O   UNK N   1      20.482  11.716  12.073  0.00  0.00    -0.361 OA
HETATM   16  H   UNK N   1      19.605  11.927  11.815  0.00  0.00     0.217 HD
ENDBRANCH   3  15
BRANCH   5  17
HETATM   17  O   UNK N   1      25.161  12.030  11.359  0.00  0.00    -0.361 OA
HETATM   18  H   UNK N   1      25.639  12.631  11.896  0.00  0.00     0.217 HD
ENDBRANCH   5  17
TORSDOF 6
ENDMDL
MODEL 6
REMARK VINA RESULT:      -5.1      9.649     11.137
REMARK  6 active torsions:
REMARK  status: ('A' for Active; 'I' for Inactive)
REMARK    1  A    between atoms: C_2  and  N_1 
REMARK    2  A    between atoms: C_2  and  C_3 
REMARK    3  A    between atoms: C_2  and  C_6 
REMARK    4  A    between atoms: C_3  and  O_4 
REMARK    5  A    between atoms: C_8  and  O_9 
REMARK    6  A    between atoms: C_11  and  O_12 
ROOT
HETATM    1  C   UNK N   1      31.781  17.517   8.128  0.00  0.00    -0.021 A 
HETATM    2  C   UNK N   1      30.790  18.107   8.932  0.00  0.00     0.046 A 
HETATM    3  C   UNK N   1      29.480  18.242   8.461  0.00  0.00     0.069 A 
HETATM    4  C   UNK N   1      29.148  17.792   7.183  0.00  0.00     0.073 A 
HETATM    5  C   UNK N   1      30.126  17.215   6.370  0.00  0.00     0.069 A 
HETATM    6  C   UNK N   1      31.438  17.093   6.834  0.00  0.00     0.046 A 
ENDROOT
BRANCH   1   7
HETATM    7  C   UNK N   1      33.218  17.455   8.619  0.00  0.00     0.207 C 
BRANCH   7   8
HETATM    8  N   UNK N   1      33.645  16.077   8.818  0.00  0.00    -0.414 N 
HETATM    9  H   UNK N   1      34.478  15.823   9.349  0.00  0.00     0.151 HD
HETATM   10  H   UNK N   1      33.084  15.331   8.408  0.00  0.00     0.151 HD
ENDBRANCH   7   8
BRANCH   7  11
HETATM   11  C   UNK N   1      34.261  18.198   7.815  0.00  0.00     0.167 C 
HETATM   12  O   UNK N   1      34.481  17.924   6.646  0.00  0.00    -0.648 OA
BRANCH  11  13
HETATM   13  O   UNK N   1      34.958  19.190   8.401  0.00  0.00    -0.775 OA
HETATM   14  H   UNK N   1      35.184  19.968   7.931  0.00  0.00     0.167 HD
ENDBRANCH  11  13
ENDBRANCH   7  11
ENDBRANCH   1   7
BRANCH   3  15
HETATM   15  O   UNK N   1      28.545  18.815   9.236  0.00  0.00    -0.361 OA
HETATM   16  H   UNK N   1      28.706  18.938  10.152  0.00  0.00     0.217 HD
ENDBRANCH   3  15
BRANCH   5  17
HETATM   17  O   UNK N   1      29.808  16.786   5.138  0.00  0.00    -0.361 OA
HETATM   18  H   UNK N   1      30.479  16.487   4.557  0.00  0.00     0.217 HD
ENDBRANCH   5  17
TORSDOF 6
ENDMDL
MODEL 7
REMARK VINA RESULT:      -5.1      2.125      4.492
REMARK  6 active torsions:
REMARK  status: ('A' for Active; 'I' for Inactive)
REMARK    1  A    between atoms: C_2  and  N_1 
REMARK    2  A    between atoms: C_2  and  C_3 
REMARK    3  A    between atoms: C_2  and  C_6 
REMARK    4  A    between atoms: C_3  and  O_4 
REMARK    5  A    between atoms: C_8  and  O_9 
REMARK    6  A    between atoms: C_11  and  O_12 
ROOT
HETATM    1  C   UNK N   1      22.304  13.339   9.360  0.00  0.00    -0.021 A 
HETATM    2  C   UNK N   1      23.622  13.067   9.765  0.00  0.00     0.046 A 
HETATM    3  C   UNK N   1      23.870  12.338  10.933  0.00  0.00     0.069 A 
HETATM    4  C   UNK N   1      22.805  11.877  11.708  0.00  0.00     0.073 A 
HETATM    5  C   UNK N   1      21.491  12.151  11.322  0.00  0.00     0.069 A 
HETATM    6  C   UNK N   1      21.242  12.891  10.163  0.00  0.00     0.046 A 
ENDROOT
BRANCH   1   7
HETATM    7  C   UNK N   1      22.050  14.204   8.136  0.00  0.00     0.207 C 
BRANCH   7   8
HETATM    8  N   UNK N   1      23.023  13.929   7.089  0.00  0.00    -0.414 N 
HETATM    9  H   UNK N   1      23.785  13.259   7.197  0.00  0.00     0.151 HD
HETATM   10  H   UNK N   1      22.939  14.430   6.204  0.00  0.00     0.151 HD
ENDBRANCH   7   8
BRANCH   7  11
HETATM   11  C   UNK N   1      20.656  14.191   7.551  0.00  0.00     0.167 C 
HETATM   12  O   UNK N   1      19.866  15.096   7.764  0.00  0.00    -0.648 OA
BRANCH  11  13
HETATM   13  O   UNK N   1      20.282  13.160   6.769  0.00  0.00    -0.775 OA
HETATM   14  H   UNK N   1      19.428  12.782   6.841  0.00  0.00     0.167 HD
ENDBRANCH  11  13
ENDBRANCH   7  11
ENDBRANCH   1   7
BRANCH   3  15
HETATM   15  O   UNK N   1      25.134  12.093  11.315  0.00  0.00    -0.361 OA
HETATM   16  H   UNK N   1      25.421  12.341  12.173  0.00  0.00     0.217 HD
ENDBRANCH   3  15
BRANCH   5  17
HETATM   17  O   UNK N   1      20.466  11.711  12.070  0.00  0.00    -0.361 OA
HETATM   18  H   UNK N   1      20.436  11.905  12.986  0.00  0.00     0.217 HD
ENDBRANCH   5  17
TORSDOF 6
ENDMDL
MODEL 8
REMARK VINA RESULT:      -5.1      7.915     10.583
REMARK  6 active torsions:
REMARK  status: ('A' for Active; 'I' for Inactive)
REMARK    1  A    between atoms: C_2  and  N_1 
REMARK    2  A    between atoms: C_2  and  C_3 
REMARK    3  A    between atoms: C_2  and  C_6 
REMARK    4  A    between atoms: C_3  and  O_4 
REMARK    5  A    between atoms: C_8  and  O_9 
REMARK    6  A    between atoms: C_11  and  O_12 
ROOT
HETATM    1  C   UNK N   1      20.617  19.066   3.075  0.00  0.00    -0.021 A 
HETATM    2  C   UNK N   1      21.693  19.102   3.980  0.00  0.00     0.046 A 
HETATM    3  C   UNK N   1      21.877  18.069   4.905  0.00  0.00     0.069 A 
HETATM    4  C   UNK N   1      20.989  16.994   4.938  0.00  0.00     0.073 A 
HETATM    5  C   UNK N   1      19.910  16.953   4.053  0.00  0.00     0.069 A 
HETATM    6  C   UNK N   1      19.716  17.991   3.138  0.00  0.00     0.046 A 
ENDROOT
BRANCH   1   7
HETATM    7  C   UNK N   1      20.378  20.235   2.134  0.00  0.00     0.207 C 
BRANCH   7   8
HETATM    8  N   UNK N   1      21.010  21.448   2.635  0.00  0.00    -0.414 N 
HETATM    9  H   UNK N   1      21.771  21.923   2.148  0.00  0.00     0.151 HD
HETATM   10  H   UNK N   1      20.676  21.842   3.515  0.00  0.00     0.151 HD
ENDBRANCH   7   8
BRANCH   7  11
HETATM   11  C   UNK N   1      20.735  20.042   0.678  0.00  0.00     0.167 C 
HETATM   12  O   UNK N   1      21.289  20.918   0.035  0.00  0.00    -0.648 OA
BRANCH  11  13
HETATM   13  O   UNK N   1      20.440  18.871   0.080  0.00  0.00    -0.775 OA
HETATM   14  H   UNK N   1      20.192  18.837  -0.823  0.00  0.00     0.167 HD
ENDBRANCH  11  13
ENDBRANCH   7  11
ENDBRANCH   1   7
BRANCH   3  15
HETATM   15  O   UNK N   1      22.904  18.120   5.770  0.00  0.00    -0.361 OA
HETATM   16  H   UNK N   1      23.780  17.983   5.465  0.00  0.00     0.217 HD
ENDBRANCH   3  15
BRANCH   5  17
HETATM   17  O   UNK N   1      19.052  15.920   4.087  0.00  0.00    -0.361 OA
HETATM   18  H   UNK N   1      19.301  15.091   3.728  0.00  0.00     0.217 HD
ENDBRANCH   5  17
TORSDOF 6
ENDMDL
MODEL 9
REMARK VINA RESULT:      -5.0     13.795     15.223
REMARK  6 active torsions:
REMARK  status: ('A' for Active; 'I' for Inactive)
REMARK    1  A    between atoms: C_2  and  N_1 
REMARK    2  A    between atoms: C_2  and  C_3 
REMARK    3  A    between atoms: C_2  and  C_6 
REMARK    4  A    between atoms: C_3  and  O_4 
REMARK    5  A    between atoms: C_8  and  O_9 
REMARK    6  A    between atoms: C_11  and  O_12 
ROOT
HETATM    1  C   UNK N   1      35.702  13.106  16.610  0.00  0.00    -0.021 A 
HETATM    2  C   UNK N   1      35.887  11.716  16.514  0.00  0.00     0.046 A 
HETATM    3  C   UNK N   1      35.708  10.896  17.634  0.00  0.00     0.069 A 
HETATM    4  C   UNK N   1      35.346  11.457  18.859  0.00  0.00     0.073 A 
HETATM    5  C   UNK N   1      35.171  12.838  18.970  0.00  0.00     0.069 A 
HETATM    6  C   UNK N   1      35.364  13.659  17.855  0.00  0.00     0.046 A 
ENDROOT
BRANCH   1   7
HETATM    7  C   UNK N   1      35.984  13.993  15.409  0.00  0.00     0.207 C 
BRANCH   7   8
HETATM    8  N   UNK N   1      37.282  14.642  15.529  0.00  0.00    -0.414 N 
HETATM    9  H   UNK N   1      37.423  15.519  16.031  0.00  0.00     0.151 HD
HETATM   10  H   UNK N   1      38.090  14.198  15.092  0.00  0.00     0.151 HD
ENDBRANCH   7   8
BRANCH   7  11
HETATM   11  C   UNK N   1      35.853  13.371  14.037  0.00  0.00     0.167 C 
HETATM   12  O   UNK N   1      34.761  13.171  13.529  0.00  0.00    -0.648 OA
BRANCH  11  13
HETATM   13  O   UNK N   1      36.967  13.039  13.358  0.00  0.00    -0.775 OA
HETATM   14  H   UNK N   1      37.386  13.650  12.785  0.00  0.00     0.167 HD
ENDBRANCH  11  13
ENDBRANCH   7  11
ENDBRANCH   1   7
BRANCH   3  15
HETATM   15  O   UNK N   1      35.897   9.570  17.531  0.00  0.00    -0.361 OA
HETATM   16  H   UNK N   1      35.751   9.138  16.711  0.00  0.00     0.217 HD
ENDBRANCH   3  15
BRANCH   5  17
HETATM   17  O   UNK N   1      34.828  13.379  20.150  0.00  0.00    -0.361 OA
HETATM   18  H   UNK N   1      34.533  12.830  20.849  0.00  0.00     0.217 HD
ENDBRANCH   5  17
TORSDOF 6
ENDMDL
