MODEL 1
REMARK VINA RESULT:      -4.6      0.000      0.000
REMARK  2 active torsions:
REMARK  status: ('A' for Active; 'I' for Inactive)
REMARK    1  A    between atoms: C_5  and  O_6 
REMARK    2  A    between atoms: C_7  and  O_8 
ROOT
HETATM    1  C   UNK N   1      29.090  22.153  -6.134  0.00  0.00     0.048 C 
HETATM    2  C   UNK N   1      30.053  21.902  -5.034  0.00  0.00    -0.059 A 
HETATM    3  C   UNK N   1      31.098  20.992  -5.215  0.00  0.00     0.009 A 
HETATM    4  C   UNK N   1      32.006  20.756  -4.180  0.00  0.00     0.040 A 
HETATM    5  C   UNK N   1      31.870  21.429  -2.962  0.00  0.00     0.098 A 
HETATM    6  C   UNK N   1      30.820  22.344  -2.780  0.00  0.00     0.099 A 
HETATM    7  C   UNK N   1      29.914  22.577  -3.819  0.00  0.00     0.046 A 
ENDROOT
BRANCH   5   8
HETATM    8  O   UNK N   1      32.748  21.195  -1.972  0.00  0.00    -0.358 OA
HETATM    9  H   UNK N   1      32.852  21.819  -1.280  0.00  0.00     0.217 HD
ENDBRANCH   5   8
BRANCH   6  10
HETATM   10  O   UNK N   1      30.677  22.999  -1.615  0.00  0.00    -0.358 OA
HETATM   11  H   UNK N   1      30.860  22.562  -0.807  0.00  0.00     0.217 HD
ENDBRANCH   6  10
TORSDOF 2
ENDMDL
MODEL 2
REMARK VINA RESULT:      -4.6     18.295     18.924
REMARK  2 active torsions:
REMARK  status: ('A' for Active; 'I' for Inactive)
REMARK    1  A    between atoms: C_5  and  O_6 
REMARK    2  A    between atoms: C_7  and  O_8 
ROOT
HETATM    1  C   UNK N   1      22.628  13.821   7.821  0.00  0.00     0.048 C 
HETATM    2  C   UNK N   1      22.651  13.194   9.165  0.00  0.00    -0.059 A 
HETATM    3  C   UNK N   1      21.453  12.826   9.785  0.00  0.00     0.009 A 
HETATM    4  C   UNK N   1      21.474  12.235  11.050  0.00  0.00     0.040 A 
HETATM    5  C   UNK N   1      22.693  12.012  11.699  0.00  0.00     0.098 A 
HETATM    6  C   UNK N   1      23.896  12.382  11.077  0.00  0.00     0.099 A 
HETATM    7  C   UNK N   1      23.870  12.973   9.810  0.00  0.00     0.046 A 
ENDROOT
BRANCH   5   8
HETATM    8  O   UNK N   1      22.703  11.443  12.917  0.00  0.00    -0.358 OA
HETATM    9  H   UNK N   1      23.421  10.899  13.174  0.00  0.00     0.217 HD
ENDBRANCH   5   8
BRANCH   6  10
HETATM   10  O   UNK N   1      25.075  12.174  11.687  0.00  0.00    -0.358 OA
HETATM   11  H   UNK N   1      25.611  12.903  11.932  0.00  0.00     0.217 HD
ENDBRANCH   6  10
TORSDOF 2
ENDMDL
MODEL 3
REMARK VINA RESULT:      -4.6     18.745     19.535
REMARK  2 active torsions:
REMARK  status: ('A' for Active; 'I' for Inactive)
REMARK    1  A    between atoms: C_5  and  O_6 
REMARK    2  A    between atoms: C_7  and  O_8 
ROOT
HETATM    1  C   UNK N   1      24.773  12.046  10.913  0.00  0.00     0.048 C 
HETATM    2  C   UNK N   1      23.372  12.472  10.674  0.00  0.00    -0.059 A 
HETATM    3  C   UNK N   1      23.089  13.426   9.693  0.00  0.00     0.009 A 
HETATM    4  C   UNK N   1      21.770  13.827   9.469  0.00  0.00     0.040 A 
HETATM    5  C   UNK N   1      20.732  13.275  10.225  0.00  0.00     0.098 A 
HETATM    6  C   UNK N   1      21.016  12.316  11.211  0.00  0.00     0.099 A 
HETATM    7  C   UNK N   1      22.338  11.918  11.432  0.00  0.00     0.046 A 
ENDROOT
BRANCH   5   8
HETATM    8  O   UNK N   1      19.466  13.667  10.001  0.00  0.00    -0.358 OA
HETATM    9  H   UNK N   1      18.762  13.276  10.481  0.00  0.00     0.217 HD
ENDBRANCH   5   8
BRANCH   6  10
HETATM   10  O   UNK N   1      20.029  11.776  11.946  0.00  0.00    -0.358 OA
HETATM   11  H   UNK N   1      19.333  11.311  11.525  0.00  0.00     0.217 HD
ENDBRANCH   6  10
TORSDOF 2
ENDMDL
MODEL 4
REMARK VINA RESULT:      -4.5     11.453     12.248
REMARK  2 active torsions:
REMARK  status: ('A' for Active; 'I' for Inactive)
REMARK    1  A    between atoms: C_5  and  O_6 
REMARK    2  A    between atoms: C_7  and  O_8 
ROOT
HETATM    1  C   UNK N   1      20.093  16.407   2.099  0.00  0.00     0.048 C 
HETATM    2  C   UNK N   1      20.488  17.831   2.221  0.00  0.00    -0.059 A 
HETATM    3  C   UNK N   1      20.890  18.342   3.458  0.00  0.00     0.009 A 
HETATM    4  C   UNK N   1      21.261  19.684   3.573  0.00  0.00     0.040 A 
HETATM    5  C   UNK N   1      21.231  20.517   2.450  0.00  0.00     0.098 A 
HETATM    6  C   UNK N   1      20.828  20.004   1.207  0.00  0.00     0.099 A 
HETATM    7  C   UNK N   1      20.457  18.661   1.097  0.00  0.00     0.046 A 
ENDROOT
BRANCH   5   8
HETATM    8  O   UNK N   1      21.591  21.807   2.571  0.00  0.00    -0.358 OA
HETATM    9  H   UNK N   1      22.437  22.027   2.908  0.00  0.00     0.217 HD
ENDBRANCH   5   8
BRANCH   6  10
HETATM   10  O   UNK N   1      20.795  20.792   0.119  0.00  0.00    -0.358 OA
HETATM   11  H   UNK N   1      20.057  21.350  -0.033  0.00  0.00     0.217 HD
ENDBRANCH   6  10
TORSDOF 2
ENDMDL
MODEL 5
REMARK VINA RESULT:      -4.4     18.246     18.939
REMARK  2 active torsions:
REMARK  status: ('A' for Active; 'I' for Inactive)
REMARK    1  A    between atoms: C_5  and  O_6 
REMARK    2  A    between atoms: C_7  and  O_8 
ROOT
HETATM    1  C   UNK N   1      24.900  13.447   8.663  0.00  0.00     0.048 C 
HETATM    2  C   UNK N   1      23.781  13.016   9.536  0.00  0.00    -0.059 A 
HETATM    3  C   UNK N   1      24.030  12.189  10.635  0.00  0.00     0.009 A 
HETATM    4  C   UNK N   1      22.976  11.783  11.456  0.00  0.00     0.040 A 
HETATM    5  C   UNK N   1      21.671  12.203  11.181  0.00  0.00     0.098 A 
HETATM    6  C   UNK N   1      21.420  13.034  10.076  0.00  0.00     0.099 A 
HETATM    7  C   UNK N   1      22.479  13.437   9.257  0.00  0.00     0.046 A 
ENDROOT
BRANCH   5   8
HETATM    8  O   UNK N   1      20.664  11.806  11.978  0.00  0.00    -0.358 OA
HETATM    9  H   UNK N   1      20.728  10.997  12.446  0.00  0.00     0.217 HD
ENDBRANCH   5   8
BRANCH   6  10
HETATM   10  O   UNK N   1      20.172  13.445   9.799  0.00  0.00    -0.358 OA
HETATM   11  H   UNK N   1      19.850  13.405   8.920  0.00  0.00     0.217 HD
ENDBRANCH   6  10
TORSDOF 2
ENDMDL
MODEL 6
REMARK VINA RESULT:      -4.4     20.313     21.351
REMARK  2 active torsions:
REMARK  status: ('A' for Active; 'I' for Inactive)
REMARK    1  A    between atoms: C_5  and  O_6 
REMARK    2  A    between atoms: C_7  and  O_8 
ROOT
HETATM    1  C   UNK N   1      33.604  10.820  14.678  0.00  0.00     0.048 C 
HETATM    2  C   UNK N   1      34.643  11.856  14.896  0.00  0.00    -0.059 A 
HETATM    3  C   UNK N   1      34.893  12.335  16.185  0.00  0.00     0.009 A 
HETATM    4  C   UNK N   1      35.871  13.311  16.391  0.00  0.00     0.040 A 
HETATM    5  C   UNK N   1      36.600  13.810  15.307  0.00  0.00     0.098 A 
HETATM    6  C   UNK N   1      36.349  13.330  14.012  0.00  0.00     0.099 A 
HETATM    7  C   UNK N   1      35.369  12.353  13.811  0.00  0.00     0.046 A 
ENDROOT
BRANCH   5   8
HETATM    8  O   UNK N   1      37.539  14.750  15.516  0.00  0.00    -0.358 OA
HETATM    9  H   UNK N   1      37.287  15.644  15.637  0.00  0.00     0.217 HD
ENDBRANCH   5   8
BRANCH   6  10
HETATM   10  O   UNK N   1      37.042  13.801  12.961  0.00  0.00    -0.358 OA
HETATM   11  H   UNK N   1      36.966  14.702  12.716  0.00  0.00     0.217 HD
ENDBRANCH   6  10
TORSDOF 2
ENDMDL
MODEL 7
REMARK VINA RESULT:      -4.4     13.728     15.008
REMARK  2 active torsions:
REMARK  status: ('A' for Active; 'I' for Inactive)
REMARK    1  A    between atoms: C_5  and  O_6 
REMARK    2  A    between atoms: C_7  and  O_8 
ROOT
HETATM    1  C   UNK N   1      43.518  18.518   2.652  0.00  0.00     0.048 C 
HETATM    2  C   UNK N   1      43.555  19.967   2.965  0.00  0.00    -0.059 A 
HETATM    3  C   UNK N   1      42.427  20.761   2.741  0.00  0.00     0.009 A 
HETATM    4  C   UNK N   1      42.463  22.126   3.036  0.00  0.00     0.040 A 
HETATM    5  C   UNK N   1      43.627  22.699   3.556  0.00  0.00     0.098 A 
HETATM    6  C   UNK N   1      44.761  21.903   3.781  0.00  0.00     0.099 A 
HETATM    7  C   UNK N   1      44.720  20.537   3.484  0.00  0.00     0.046 A 
ENDROOT
BRANCH   5   8
HETATM    8  O   UNK N   1      43.651  24.014   3.837  0.00  0.00    -0.358 OA
HETATM    9  H   UNK N   1      42.970  24.574   3.517  0.00  0.00     0.217 HD
ENDBRANCH   5   8
BRANCH   6  10
HETATM   10  O   UNK N   1      45.887  22.440   4.281  0.00  0.00    -0.358 OA
HETATM   11  H   UNK N   1      46.200  23.260   3.952  0.00  0.00     0.217 HD
ENDBRANCH   6  10
TORSDOF 2
ENDMDL
MODEL 8
REMARK VINA RESULT:      -4.3     22.655     23.881
REMARK  2 active torsions:
REMARK  status: ('A' for Active; 'I' for Inactive)
REMARK    1  A    between atoms: C_5  and  O_6 
REMARK    2  A    between atoms: C_7  and  O_8 
ROOT
HETATM    1  C   UNK N   1      34.562  11.712  14.960  0.00  0.00     0.048 C 
HETATM    2  C   UNK N   1      34.857  11.995  16.385  0.00  0.00    -0.059 A 
HETATM    3  C   UNK N   1      35.094  10.942  17.273  0.00  0.00     0.009 A 
HETATM    4  C   UNK N   1      35.373  11.209  18.615  0.00  0.00     0.040 A 
HETATM    5  C   UNK N   1      35.415  12.529  19.073  0.00  0.00     0.098 A 
HETATM    6  C   UNK N   1      35.177  13.588  18.181  0.00  0.00     0.099 A 
HETATM    7  C   UNK N   1      34.899  13.316  16.839  0.00  0.00     0.046 A 
ENDROOT
BRANCH   5   8
HETATM    8  O   UNK N   1      35.684  12.775  20.367  0.00  0.00    -0.358 OA
HETATM    9  H   UNK N   1      34.982  12.889  20.977  0.00  0.00     0.217 HD
ENDBRANCH   5   8
BRANCH   6  10
HETATM   10  O   UNK N   1      35.214  14.862  18.606  0.00  0.00    -0.358 OA
HETATM   11  H   UNK N   1      35.913  15.151  19.161  0.00  0.00     0.217 HD
ENDBRANCH   6  10
TORSDOF 2
ENDMDL
MODEL 9
REMARK VINA RESULT:      -4.3     23.638     24.857
REMARK  2 active torsions:
REMARK  status: ('A' for Active; 'I' for Inactive)
REMARK    1  A    between atoms: C_5  and  O_6 
REMARK    2  A    between atoms: C_7  and  O_8 
ROOT
HETATM    1  C   UNK N   1      35.323  13.110  15.830  0.00  0.00     0.048 C 
HETATM    2  C   UNK N   1      35.366  12.537  17.197  0.00  0.00    -0.059 A 
HETATM    3  C   UNK N   1      35.747  11.205  17.385  0.00  0.00     0.009 A 
HETATM    4  C   UNK N   1      35.788  10.665  18.672  0.00  0.00     0.040 A 
HETATM    5  C   UNK N   1      35.447  11.456  19.774  0.00  0.00     0.098 A 
HETATM    6  C   UNK N   1      35.064  12.794  19.586  0.00  0.00     0.099 A 
HETATM    7  C   UNK N   1      35.025  13.330  18.296  0.00  0.00     0.046 A 
ENDROOT
BRANCH   5   8
HETATM    8  O   UNK N   1      35.490  10.926  21.009  0.00  0.00    -0.358 OA
HETATM    9  H   UNK N   1      36.167  11.181  21.605  0.00  0.00     0.217 HD
ENDBRANCH   5   8
BRANCH   6  10
HETATM   10  O   UNK N   1      34.735  13.565  20.635  0.00  0.00    -0.358 OA
HETATM   11  H   UNK N   1      34.242  13.204  21.346  0.00  0.00     0.217 HD
ENDBRANCH   6  10
TORSDOF 2
ENDMDL
