REMARK  25 active torsions:
REMARK  status: ('A' for Active; 'I' for Inactive)
REMARK    1  A    between atoms: C_8  and  C_5 
REMARK    2  A    between atoms: C_9  and  C_6 
REMARK    3  A    between atoms: O_42  and  C_6 
REMARK    4  A    between atoms: O_27  and  C_7 
REMARK    5  A    between atoms: O_28  and  C_10 
REMARK    6  A    between atoms: C_11  and  N_21 
REMARK    7  A    between atoms: C_12  and  O_29 
REMARK    8  A    between atoms: C_13  and  O_30 
REMARK    9  A    between atoms: C_14  and  O_31 
REMARK   10  A    between atoms: C_15  and  O_45 
REMARK   11  A    between atoms: C_16  and  N_25 
REMARK   12  A    between atoms: C_17  and  O_46 
REMARK   13  A    between atoms: C_20  and  C_18 
REMARK   14  A    between atoms: O_33  and  C_18 
REMARK   15  A    between atoms: C_20  and  O_45 
REMARK   16  A    between atoms: O_47  and  C_20 
REMARK   17  A    between atoms: P_49  and  O_35 
REMARK   18  A    between atoms: P_49  and  O_36 
REMARK   19  A    between atoms: P_50  and  O_38 
REMARK   20  A    between atoms: P_51  and  O_40 
REMARK   21  A    between atoms: P_50  and  O_42 
REMARK   22  A    between atoms: P_51  and  O_46 
REMARK   23  A    between atoms: P_49  and  O_47 
REMARK   24  A    between atoms: P_50  and  O_48 
REMARK   25  A    between atoms: P_51  and  O_48 
ROOT
HETATM    1  C   UNK N   1      -1.013  -0.002  -0.309  0.00  0.00     0.198 C 
HETATM    2  O   UNK N   1      -1.131  -0.188   1.070  0.00  0.00    -0.398 OA
HETATM    3  H   UNK N   1      -1.284  -0.181   2.028  0.00  0.00     0.209 HD
ENDROOT
BRANCH   1   4
HETATM    4  C   UNK N   1       0.184   0.881  -0.646  0.00  0.00     0.179 C 
HETATM    5  C   UNK N   1       1.516   0.201  -0.218  0.00  0.00     0.180 C 
HETATM    6  C   UNK N   1       2.683   1.163  -0.532  0.00  0.00     0.184 C 
HETATM    7  C   UNK N   1       2.417   2.532   0.147  0.00  0.00     0.170 C 
HETATM    8  C   UNK N   1       1.074   3.029  -0.444  0.00  0.00     0.297 C 
HETATM    9  O   UNK N   1       0.016   2.161  -0.046  0.00  0.00    -0.348 OA
BRANCH   5  10
HETATM   10  O   UNK N   1       1.656  -0.990  -0.931  0.00  0.00    -0.390 OA
HETATM   11  H   UNK N   1       0.987  -1.488  -1.426  0.00  0.00     0.210 HD
ENDBRANCH   5  10
BRANCH   6  12
HETATM   12  O   UNK N   1       4.006   0.643  -0.414  0.00  0.00    -0.336 OA
BRANCH  12  13
HETATM   13  C   UNK N   1       4.514   0.149   0.818  0.00  0.00     0.258 C 
HETATM   14  C   UNK N   1       4.145   1.009   2.018  0.00  0.00     0.092 C 
BRANCH  13  15
HETATM   15  C   UNK N   1       6.025   0.251   0.729  0.00  0.00     0.205 C 
HETATM   16  O   UNK N   1       6.544   1.328   0.473  0.00  0.00    -0.646 OA
BRANCH  15  17
HETATM   17  O   UNK N   1       6.812  -0.822   0.928  0.00  0.00    -0.772 OA
HETATM   18  H   UNK N   1       6.438  -1.670   1.066  0.00  0.00     0.167 HD
ENDBRANCH  15  17
ENDBRANCH  13  15
BRANCH  13  19
HETATM   19  O   UNK N   1       4.072  -1.173   1.095  0.00  0.00    -0.249 OA
BRANCH  19  20
HETATM   20  P   UNK N   1       4.357  -2.332  -0.208  0.00  0.00     0.393 P 
HETATM   21  O   UNK N   1       4.252  -1.651  -1.600  0.00  0.00    -0.631 OA
BRANCH  20  22
HETATM   22  O   UNK N   1       5.906  -3.109  -0.121  0.00  0.00    -0.307 OA
HETATM   23  H   UNK N   1       5.964  -4.076  -0.073  0.00  0.00     0.222 HD
ENDBRANCH  20  22
BRANCH  20  24
HETATM   24  O   UNK N   1       3.116  -3.545  -0.176  0.00  0.00    -0.307 OA
HETATM   25  H   UNK N   1       2.182  -3.283  -0.159  0.00  0.00     0.222 HD
ENDBRANCH  20  24
ENDBRANCH  19  20
ENDBRANCH  13  19
ENDBRANCH  12  13
ENDBRANCH   6  12
BRANCH   7  26
HETATM   26  N   UNK N   1       3.591   3.399   0.046  0.00  0.00    -0.363 N 
HETATM   27  C   UNK N   1       3.773   4.513  -0.583  0.00  0.00     0.107 C 
HETATM   28  C   UNK N   1       5.070   5.222  -0.416  0.00  0.00     0.097 C 
ATOM     29  HN  UNK N   1       4.406   3.067   0.561  1.00  0.00     0.162 HD
BRANCH  27  30
HETATM   30  O   UNK N   1       2.840   5.049  -1.388  0.00  0.00    -0.350 OA
HETATM   31  H   UNK N   1       2.839   5.800  -1.949  0.00  0.00     0.219 HD
ENDBRANCH  27  30
ENDBRANCH   7  26
BRANCH   8  32
HETATM   32  O   UNK N   1       0.793   4.379  -0.172  0.00  0.00    -0.263 OA
BRANCH  32  33
HETATM   33  P   UNK N   1       0.174   4.722   1.414  0.00  0.00     0.404 P 
HETATM   34  O   UNK N   1       1.294   4.439   2.449  0.00  0.00    -0.631 OA
BRANCH  33  35
HETATM   35  O   UNK N   1      -1.249   3.841   1.874  0.00  0.00    -0.307 OA
HETATM   36  H   UNK N   1      -2.073   4.284   2.131  0.00  0.00     0.222 HD
ENDBRANCH  33  35
BRANCH  33  37
HETATM   37  O   UNK N   1      -0.095   6.438   1.464  0.00  0.00    -0.195 OA
BRANCH  37  38
HETATM   38  P   UNK N   1      -1.225   6.930   0.202  0.00  0.00     0.401 P 
HETATM   39  O   UNK N   1      -2.540   7.325   0.918  0.00  0.00    -0.631 OA
BRANCH  38  40
HETATM   40  O   UNK N   1      -0.655   8.463  -0.380  0.00  0.00    -0.307 OA
HETATM   41  H   UNK N   1       0.246   8.616  -0.706  0.00  0.00     0.222 HD
ENDBRANCH  38  40
BRANCH  38  42
HETATM   42  O   UNK N   1      -1.639   6.002  -1.244  0.00  0.00    -0.294 OA
BRANCH  42  43
HETATM   43  C   UNK N   1      -1.805   4.648  -0.933  0.00  0.00     0.215 C 
BRANCH  43  44
HETATM   44  C   UNK N   1      -3.250   4.165  -0.991  0.00  0.00     0.180 C 
HETATM   45  C   UNK N   1      -4.081   4.802   0.111  0.00  0.00     0.182 C 
HETATM   46  C   UNK N   1      -5.154   3.782   0.226  0.00  0.00     0.198 C 
HETATM   47  C   UNK N   1      -4.290   2.523   0.202  0.00  0.00     0.263 C 
HETATM   48  O   UNK N   1      -3.299   2.757  -0.789  0.00  0.00    -0.353 OA
BRANCH  45  49
HETATM   49  O   UNK N   1      -4.580   6.059  -0.240  0.00  0.00    -0.390 OA
HETATM   50  H   UNK N   1      -3.997   6.795  -0.484  0.00  0.00     0.210 HD
ENDBRANCH  45  49
BRANCH  46  51
HETATM   51  O   UNK N   1      -5.890   3.918   1.406  0.00  0.00    -0.388 OA
HETATM   52  H   UNK N   1      -6.063   4.407   2.226  0.00  0.00     0.210 HD
ENDBRANCH  46  51
BRANCH  47  53
HETATM   53  N   UNK N   1      -4.986   1.227  -0.029  0.00  0.00    -0.280 N 
HETATM   54  C   UNK N   1      -4.191   0.119  -0.052  0.00  0.00     0.103 A 
HETATM   55  C   UNK N   1      -4.722  -1.155  -0.233  0.00  0.00     0.073 A 
HETATM   56  C   UNK N   1      -6.092  -1.291  -0.391  0.00  0.00     0.144 A 
HETATM   57  N   UNK N   1      -6.884  -0.195  -0.368  0.00  0.00    -0.289 N 
HETATM   58  C   UNK N   1      -6.363   1.060  -0.189  0.00  0.00     0.330 A 
ATOM     59  HN  UNK N   1      -7.891  -0.305  -0.487  1.00  0.00     0.172 HD
HETATM   60  O   UNK N   1      -7.126   2.004  -0.163  0.00  0.00    -0.246 OA
BRANCH  56  61
HETATM   61  O   UNK N   1      -6.634  -2.508  -0.562  0.00  0.00    -0.346 OA
HETATM   62  H   UNK N   1      -7.558  -2.605  -0.681  0.00  0.00     0.219 HD
ENDBRANCH  56  61
ENDBRANCH  47  53
ENDBRANCH  43  44
ENDBRANCH  42  43
ENDBRANCH  38  42
ENDBRANCH  37  38
ENDBRANCH  33  37
ENDBRANCH  32  33
ENDBRANCH   8  32
ENDBRANCH   1   4
TORSDOF 25
