REMARK  5 active torsions:
REMARK  status: ('A' for Active; 'I' for Inactive)
REMARK    1  A    between atoms: C_2  and  N_1 
REMARK    2  A    between atoms: C_2  and  C_3 
REMARK    3  A    between atoms: C_2  and  C_13 
REMARK    4  A    between atoms: C_3  and  N_4 
REMARK    5  A    between atoms: C_13  and  O_14 
ROOT
HETATM    1  N   UNK N   1       1.390   0.524  -0.172  0.00  0.00    -0.306 N 
HETATM    2  C   UNK N   1       1.316  -0.813  -0.414  0.00  0.00     0.120 A 
HETATM    3  C   UNK N   1       0.108  -1.499  -0.315  0.00  0.00     0.094 A 
HETATM    4 Br   UNK N   1       0.061  -3.384  -0.629  0.00  0.00    -0.044 Br
HETATM    5  C   UNK N   1      -1.041  -0.788   0.026  0.00  0.00     0.268 A 
HETATM    6  O   UNK N   1      -2.117  -1.352   0.105  0.00  0.00    -0.267 OA
HETATM    7  N   UNK N   1      -0.956   0.548   0.285  0.00  0.00    -0.274 N 
HETATM    8  C   UNK N   1       0.240   1.212   0.205  0.00  0.00     0.329 A 
HETATM    9  O   UNK N   1       0.270   2.397   0.476  0.00  0.00    -0.246 OA
HETATM   10  H   UNK N   1      -1.768   1.045   0.534  0.00  0.00     0.173 HD
ENDROOT
BRANCH   1  11
HETATM   11  C   UNK N   1       2.730   1.123  -0.315  0.00  0.00     0.168 C 
BRANCH  11  12
HETATM   12  C   UNK N   1       2.822   2.644  -0.173  0.00  0.00     0.192 C 
BRANCH  12  13
HETATM   13  N   UNK N   1       2.222   3.286  -1.332  0.00  0.00    -0.416 N 
HETATM   14  H   UNK N   1       2.402   3.876  -2.145  0.00  0.00     0.150 HD
HETATM   15  H   UNK N   1       1.228   3.056  -1.332  0.00  0.00     0.150 HD
ENDBRANCH  12  13
BRANCH  12  16
HETATM   16  C   UNK N   1       4.235   3.123  -0.015  0.00  0.00     0.164 C 
HETATM   17  O   UNK N   1       5.173   2.342  -0.063  0.00  0.00    -0.648 OA
BRANCH  16  18
HETATM   18  O   UNK N   1       4.469   4.431   0.195  0.00  0.00    -0.775 OA
HETATM   19  H   UNK N   1       5.340   4.745   0.342  0.00  0.00     0.167 HD
ENDBRANCH  16  18
ENDBRANCH  12  16
ENDBRANCH  11  12
ENDBRANCH   1  11
TORSDOF 5
