MODEL 1
REMARK VINA RESULT:      -3.5      0.000      0.000
REMARK  3 active torsions:
REMARK  status: ('A' for Active; 'I' for Inactive)
REMARK    1  A    between atoms: C_2  and  C_4 
REMARK    2  A    between atoms: C_4  and  C_5 
REMARK    3  A    between atoms: C_5  and  O_6 
ROOT
HETATM    1  C   UNK N   1      30.813  21.609  -3.308  0.00  0.00     0.103 C 
ENDROOT
BRANCH   1   2
HETATM    2  C   UNK N   1      30.168  22.720  -2.528  0.00  0.00     0.125 C 
HETATM    3  C   UNK N   1      29.043  23.482  -3.134  0.00  0.00     0.091 C 
HETATM    4  O   UNK N   1      30.553  23.007  -1.406  0.00  0.00    -0.298 OA
ENDBRANCH   1   2
BRANCH   1   5
HETATM    5  C   UNK N   1      32.331  21.642  -3.206  0.00  0.00     0.171 C 
BRANCH   5   6
HETATM    6  O   UNK N   1      32.732  21.138  -1.970  0.00  0.00    -0.400 OA
HETATM    7  H   UNK N   1      32.272  20.378  -1.584  0.00  0.00     0.209 HD
ENDBRANCH   5   6
ENDBRANCH   1   5
TORSDOF 3
ENDMDL
MODEL 2
REMARK VINA RESULT:      -3.3     11.102     11.911
REMARK  3 active torsions:
REMARK  status: ('A' for Active; 'I' for Inactive)
REMARK    1  A    between atoms: C_2  and  C_4 
REMARK    2  A    between atoms: C_4  and  C_5 
REMARK    3  A    between atoms: C_5  and  O_6 
ROOT
HETATM    1  C   UNK N   1      20.830  19.559   2.014  0.00  0.00     0.103 C 
ENDROOT
BRANCH   1   2
HETATM    2  C   UNK N   1      20.750  19.801   3.495  0.00  0.00     0.125 C 
HETATM    3  C   UNK N   1      21.287  18.778   4.434  0.00  0.00     0.091 C 
HETATM    4  O   UNK N   1      20.252  20.823   3.940  0.00  0.00    -0.298 OA
ENDBRANCH   1   2
BRANCH   1   5
HETATM    5  C   UNK N   1      20.690  20.845   1.214  0.00  0.00     0.171 C 
BRANCH   5   6
HETATM    6  O   UNK N   1      20.604  20.548  -0.145  0.00  0.00    -0.400 OA
HETATM    7  H   UNK N   1      20.988  21.152  -0.799  0.00  0.00     0.209 HD
ENDBRANCH   5   6
ENDBRANCH   1   5
TORSDOF 3
ENDMDL
MODEL 3
REMARK VINA RESULT:      -3.3     12.995     13.605
REMARK  3 active torsions:
REMARK  status: ('A' for Active; 'I' for Inactive)
REMARK    1  A    between atoms: C_2  and  C_4 
REMARK    2  A    between atoms: C_4  and  C_5 
REMARK    3  A    between atoms: C_5  and  O_6 
ROOT
HETATM    1  C   UNK N   1      33.883  17.327   8.909  0.00  0.00     0.103 C 
ENDROOT
BRANCH   1   2
HETATM    2  C   UNK N   1      35.000  16.689   9.686  0.00  0.00     0.125 C 
HETATM    3  C   UNK N   1      35.369  15.274   9.410  0.00  0.00     0.091 C 
HETATM    4  O   UNK N   1      35.610  17.313  10.540  0.00  0.00    -0.298 OA
ENDBRANCH   1   2
BRANCH   1   5
HETATM    5  C   UNK N   1      34.393  18.354   7.909  0.00  0.00     0.171 C 
BRANCH   5   6
HETATM    6  O   UNK N   1      35.295  19.214   8.534  0.00  0.00    -0.400 OA
HETATM    7  H   UNK N   1      35.004  19.765   9.276  0.00  0.00     0.209 HD
ENDBRANCH   5   6
ENDBRANCH   1   5
TORSDOF 3
ENDMDL
MODEL 4
REMARK VINA RESULT:      -3.3     11.006     11.436
REMARK  3 active torsions:
REMARK  status: ('A' for Active; 'I' for Inactive)
REMARK    1  A    between atoms: C_2  and  C_4 
REMARK    2  A    between atoms: C_4  and  C_5 
REMARK    3  A    between atoms: C_5  and  O_6 
ROOT
HETATM    1  C   UNK N   1      33.310  17.861   8.213  0.00  0.00     0.103 C 
ENDROOT
BRANCH   1   2
HETATM    2  C   UNK N   1      33.225  17.630   6.731  0.00  0.00     0.125 C 
HETATM    3  C   UNK N   1      31.954  17.131   6.139  0.00  0.00     0.091 C 
HETATM    4  O   UNK N   1      34.182  17.844   6.004  0.00  0.00    -0.298 OA
ENDBRANCH   1   2
BRANCH   1   5
HETATM    5  C   UNK N   1      34.749  17.924   8.703  0.00  0.00     0.171 C 
BRANCH   5   6
HETATM    6  O   UNK N   1      35.265  19.201   8.489  0.00  0.00    -0.400 OA
HETATM    7  H   UNK N   1      35.905  19.352   7.778  0.00  0.00     0.209 HD
ENDBRANCH   5   6
ENDBRANCH   1   5
TORSDOF 3
ENDMDL
MODEL 5
REMARK VINA RESULT:      -3.1     18.711     18.967
REMARK  3 active torsions:
REMARK  status: ('A' for Active; 'I' for Inactive)
REMARK    1  A    between atoms: C_2  and  C_4 
REMARK    2  A    between atoms: C_4  and  C_5 
REMARK    3  A    between atoms: C_5  and  O_6 
ROOT
HETATM    1  C   UNK N   1      22.840  11.857  10.679  0.00  0.00     0.103 C 
ENDROOT
BRANCH   1   2
HETATM    2  C   UNK N   1      21.465  12.455  10.795  0.00  0.00     0.125 C 
HETATM    3  C   UNK N   1      21.052  13.528   9.849  0.00  0.00     0.091 C 
HETATM    4  O   UNK N   1      20.683  12.074  11.651  0.00  0.00    -0.298 OA
ENDBRANCH   1   2
BRANCH   1   5
HETATM    5  C   UNK N   1      23.618  11.953  11.983  0.00  0.00     0.171 C 
BRANCH   5   6
HETATM    6  O   UNK N   1      24.941  12.306  11.717  0.00  0.00    -0.400 OA
HETATM    7  H   UNK N   1      25.257  12.347  10.802  0.00  0.00     0.209 HD
ENDBRANCH   5   6
ENDBRANCH   1   5
TORSDOF 3
ENDMDL
MODEL 6
REMARK VINA RESULT:      -3.1     11.671     12.594
REMARK  3 active torsions:
REMARK  status: ('A' for Active; 'I' for Inactive)
REMARK    1  A    between atoms: C_2  and  C_4 
REMARK    2  A    between atoms: C_4  and  C_5 
REMARK    3  A    between atoms: C_5  and  O_6 
ROOT
HETATM    1  C   UNK N   1      20.820  18.619   2.699  0.00  0.00     0.103 C 
ENDROOT
BRANCH   1   2
HETATM    2  C   UNK N   1      20.614  20.107   2.737  0.00  0.00     0.125 C 
HETATM    3  C   UNK N   1      20.796  20.903   1.493  0.00  0.00     0.091 C 
HETATM    4  O   UNK N   1      20.301  20.672   3.772  0.00  0.00    -0.298 OA
ENDBRANCH   1   2
BRANCH   1   5
HETATM    5  C   UNK N   1      19.544  17.854   3.017  0.00  0.00     0.171 C 
BRANCH   5   6
HETATM    6  O   UNK N   1      18.444  18.534   2.496  0.00  0.00    -0.400 OA
HETATM    7  H   UNK N   1      18.272  18.518   1.542  0.00  0.00     0.209 HD
ENDBRANCH   5   6
ENDBRANCH   1   5
TORSDOF 3
ENDMDL
MODEL 7
REMARK VINA RESULT:      -3.0     13.751     14.180
REMARK  3 active torsions:
REMARK  status: ('A' for Active; 'I' for Inactive)
REMARK    1  A    between atoms: C_2  and  C_4 
REMARK    2  A    between atoms: C_4  and  C_5 
REMARK    3  A    between atoms: C_5  and  O_6 
ROOT
HETATM    1  C   UNK N   1      34.700  15.986   9.907  0.00  0.00     0.103 C 
ENDROOT
BRANCH   1   2
HETATM    2  C   UNK N   1      34.487  17.294   9.199  0.00  0.00     0.125 C 
HETATM    3  C   UNK N   1      33.264  17.488   8.372  0.00  0.00     0.091 C 
HETATM    4  O   UNK N   1      35.299  18.200   9.291  0.00  0.00    -0.298 OA
ENDBRANCH   1   2
BRANCH   1   5
HETATM    5  C   UNK N   1      35.538  16.145  11.167  0.00  0.00     0.171 C 
BRANCH   5   6
HETATM    6  O   UNK N   1      36.892  16.149  10.836  0.00  0.00    -0.400 OA
HETATM    7  H   UNK N   1      37.497  15.525  11.264  0.00  0.00     0.209 HD
ENDBRANCH   5   6
ENDBRANCH   1   5
TORSDOF 3
ENDMDL
MODEL 8
REMARK VINA RESULT:      -3.0     18.296     18.579
REMARK  3 active torsions:
REMARK  status: ('A' for Active; 'I' for Inactive)
REMARK    1  A    between atoms: C_2  and  C_4 
REMARK    2  A    between atoms: C_4  and  C_5 
REMARK    3  A    between atoms: C_5  and  O_6 
ROOT
HETATM    1  C   UNK N   1      23.308  12.759  10.281  0.00  0.00     0.103 C 
ENDROOT
BRANCH   1   2
HETATM    2  C   UNK N   1      22.445  12.216  11.386  0.00  0.00     0.125 C 
HETATM    3  C   UNK N   1      23.064  11.875  12.696  0.00  0.00     0.091 C 
HETATM    4  O   UNK N   1      21.247  12.051  11.225  0.00  0.00    -0.298 OA
ENDBRANCH   1   2
BRANCH   1   5
HETATM    5  C   UNK N   1      24.751  12.291  10.397  0.00  0.00     0.171 C 
BRANCH   5   6
HETATM    6  O   UNK N   1      25.579  13.380  10.667  0.00  0.00    -0.400 OA
HETATM    7  H   UNK N   1      25.921  13.921   9.940  0.00  0.00     0.209 HD
ENDBRANCH   5   6
ENDBRANCH   1   5
TORSDOF 3
ENDMDL
MODEL 9
REMARK VINA RESULT:      -2.9     18.292     18.656
REMARK  3 active torsions:
REMARK  status: ('A' for Active; 'I' for Inactive)
REMARK    1  A    between atoms: C_2  and  C_4 
REMARK    2  A    between atoms: C_4  and  C_5 
REMARK    3  A    between atoms: C_5  and  O_6 
ROOT
HETATM    1  C   UNK N   1      22.570  11.952  10.752  0.00  0.00     0.103 C 
ENDROOT
BRANCH   1   2
HETATM    2  C   UNK N   1      23.613  11.963  11.834  0.00  0.00     0.125 C 
HETATM    3  C   UNK N   1      23.189  11.926  13.260  0.00  0.00     0.091 C 
HETATM    4  O   UNK N   1      24.802  12.001  11.562  0.00  0.00    -0.298 OA
ENDBRANCH   1   2
BRANCH   1   5
HETATM    5  C   UNK N   1      22.563  13.244   9.949  0.00  0.00     0.171 C 
BRANCH   5   6
HETATM    6  O   UNK N   1      23.749  13.358   9.226  0.00  0.00    -0.400 OA
HETATM    7  H   UNK N   1      24.196  12.562   8.900  0.00  0.00     0.209 HD
ENDBRANCH   5   6
ENDBRANCH   1   5
TORSDOF 3
ENDMDL
