REMARK  3 active torsions:
REMARK  status: ('A' for Active; 'I' for Inactive)
REMARK    1  A    between atoms: Re_18  and  C_15 
REMARK    2  A    between atoms: Re_18  and  C_20 
REMARK    3  A    between atoms: Re_18  and  C_21 
ROOT
HETATM    1  C   UNK N   1      -2.199  -0.093  -0.136  0.00  0.00     0.082 C 
HETATM    2  O   UNK N   1      -3.319  -0.080  -0.184  0.00  0.00    -0.312 OA
HETATM    3  H   UNK N   1      -4.222  -0.070  -0.223  0.00  0.00     0.230 HD
ENDROOT
BRANCH   1   4
HETATM    4 Re   UNK N   1      -0.064  -0.155  -0.042  0.00  0.00     0.000 Re
HETATM    5  N   UNK N   1       1.576   1.141  -0.402  0.00  0.00    -0.258 N 
HETATM    6  C   UNK N   1       1.517   2.494  -0.667  0.00  0.00     0.117 C 
HETATM    7  C   UNK N   1       2.761   0.572  -0.205  0.00  0.00     0.096 A 
HETATM    8  C   UNK N   1       2.618   3.314  -0.495  0.00  0.00     0.020 C 
HETATM    9  C   UNK N   1       3.818   2.732  -0.105  0.00  0.00     0.015 C 
HETATM   10  C   UNK N   1       3.911   1.340  -0.045  0.00  0.00    -0.005 A 
HETATM   11  C   UNK N   1       5.119   0.694   0.216  0.00  0.00     0.015 A 
HETATM   12  C   UNK N   1       5.166  -0.713   0.276  0.00  0.00     0.015 A 
HETATM   13  C   UNK N   1       3.995  -1.458   0.119  0.00  0.00    -0.005 A 
HETATM   14  C   UNK N   1       3.981  -2.851   0.233  0.00  0.00     0.015 A 
HETATM   15  C   UNK N   1       2.797  -0.782  -0.090  0.00  0.00     0.096 A 
HETATM   16  C   UNK N   1       2.788  -3.538   0.053  0.00  0.00     0.020 A 
HETATM   17  C   UNK N   1       1.633  -2.806  -0.146  0.00  0.00     0.117 A 
HETATM   18  N   UNK N   1       1.634  -1.430  -0.142  0.00  0.00    -0.258 N 
BRANCH   4  19
HETATM   19  C   UNK N   1      -0.734   1.915   0.319  0.00  0.00     0.082 C 
HETATM   20  O   UNK N   1      -0.905   3.020   0.480  0.00  0.00    -0.312 OA
HETATM   21  H   UNK N   1      -1.041   3.905   0.609  0.00  0.00     0.230 HD
ENDBRANCH   4  19
BRANCH   4  22
HETATM   22  C   UNK N   1      -0.741  -2.170   0.543  0.00  0.00     0.082 C 
HETATM   23  O   UNK N   1      -0.943  -3.251   0.828  0.00  0.00    -0.312 OA
HETATM   24  H   UNK N   1      -1.104  -4.111   1.055  0.00  0.00     0.230 HD
ENDBRANCH   4  22
ENDBRANCH   1   4
TORSDOF 3
