MODEL 1
REMARK VINA RESULT:      -5.1      0.000      0.000
REMARK  3 active torsions:
REMARK  status: ('A' for Active; 'I' for Inactive)
REMARK    1  A    between atoms: N_1  and  C_2 
REMARK    2  A    between atoms: C_5  and  S_9 
REMARK    3  A    between atoms: S_9  and  N_10 
ROOT
HETATM    1  C   UNK N   1      35.254  12.711  18.956  0.00  0.00     0.025 A 
HETATM    2  C   UNK N   1      35.397  11.518  18.241  0.00  0.00     0.030 A 
HETATM    3  C   UNK N   1      35.557  11.551  16.852  0.00  0.00     0.027 A 
HETATM    4  C   UNK N   1      35.570  12.777  16.177  0.00  0.00     0.079 A 
HETATM    5  C   UNK N   1      35.421  13.969  16.893  0.00  0.00     0.027 A 
HETATM    6  C   UNK N   1      35.260  13.937  18.281  0.00  0.00    -0.056 A 
HETATM    7 Hg   UNK N   1      35.054  15.700  19.335  0.00  0.00     0.086 Hg
ENDROOT
BRANCH   4   8
HETATM    8  S   UNK N   1      35.859  12.831  14.414  0.00  0.00     0.256 S 
HETATM    9  O   UNK N   1      36.544  11.552  13.911  0.00  0.00    -0.201 OA
HETATM   10  O   UNK N   1      34.561  12.839  13.591  0.00  0.00    -0.201 OA
BRANCH   8  11
HETATM   11  N   UNK N   1      36.826  14.154  13.761  0.00  0.00    -0.324 N 
HETATM   12  H   UNK N   1      37.812  14.354  13.587  0.00  0.00     0.169 HD
HETATM   13  H   UNK N   1      36.237  14.937  13.479  0.00  0.00     0.169 HD
ENDBRANCH   8  11
ENDBRANCH   4   8
BRANCH   1  14
HETATM   14  N   UNK N   1      35.112  12.680  20.357  0.00  0.00    -0.399 N 
HETATM   15  H   UNK N   1      34.563  11.982  20.780  0.00  0.00     0.156 HD
HETATM   16  H   UNK N   1      35.563  13.356  20.912  0.00  0.00     0.156 HD
ENDBRANCH   1  14
TORSDOF 3
ENDMDL
MODEL 2
REMARK VINA RESULT:      -5.0     14.724     15.288
REMARK  3 active torsions:
REMARK  status: ('A' for Active; 'I' for Inactive)
REMARK    1  A    between atoms: N_1  and  C_2 
REMARK    2  A    between atoms: C_5  and  S_9 
REMARK    3  A    between atoms: S_9  and  N_10 
ROOT
HETATM    1  C   UNK N   1      24.098  12.283  10.734  0.00  0.00     0.025 A 
HETATM    2  C   UNK N   1      24.275  13.085   9.603  0.00  0.00     0.030 A 
HETATM    3  C   UNK N   1      23.179  13.742   9.035  0.00  0.00     0.027 A 
HETATM    4  C   UNK N   1      21.905  13.592   9.595  0.00  0.00     0.079 A 
HETATM    5  C   UNK N   1      21.729  12.784  10.722  0.00  0.00     0.027 A 
HETATM    6  C   UNK N   1      22.824  12.126  11.290  0.00  0.00    -0.056 A 
HETATM    7 Hg   UNK N   1      22.563  10.945  12.963  0.00  0.00     0.086 Hg
ENDROOT
BRANCH   4   8
HETATM    8  S   UNK N   1      20.516  14.495   8.925  0.00  0.00     0.256 S 
HETATM    9  O   UNK N   1      20.103  13.963   7.546  0.00  0.00    -0.201 OA
HETATM   10  O   UNK N   1      19.225  14.303   9.736  0.00  0.00    -0.201 OA
BRANCH   8  11
HETATM   11  N   UNK N   1      20.670  16.240   8.714  0.00  0.00    -0.324 N 
HETATM   12  H   UNK N   1      20.872  16.894   7.957  0.00  0.00     0.169 HD
HETATM   13  H   UNK N   1      20.514  16.733   9.593  0.00  0.00     0.169 HD
ENDBRANCH   8  11
ENDBRANCH   4   8
BRANCH   1  14
HETATM   14  N   UNK N   1      25.205  11.636  11.318  0.00  0.00    -0.399 N 
HETATM   15  H   UNK N   1      25.250  10.653  11.333  0.00  0.00     0.156 HD
HETATM   16  H   UNK N   1      25.935  12.168  11.711  0.00  0.00     0.156 HD
ENDBRANCH   1  14
TORSDOF 3
ENDMDL
MODEL 3
REMARK VINA RESULT:      -5.0     10.213     11.193
REMARK  3 active torsions:
REMARK  status: ('A' for Active; 'I' for Inactive)
REMARK    1  A    between atoms: N_1  and  C_2 
REMARK    2  A    between atoms: C_5  and  S_9 
REMARK    3  A    between atoms: S_9  and  N_10 
ROOT
HETATM    1  C   UNK N   1      29.508  17.564   7.370  0.00  0.00     0.025 A 
HETATM    2  C   UNK N   1      30.433  17.013   6.478  0.00  0.00     0.030 A 
HETATM    3  C   UNK N   1      31.801  17.084   6.759  0.00  0.00     0.027 A 
HETATM    4  C   UNK N   1      32.244  17.710   7.930  0.00  0.00     0.079 A 
HETATM    5  C   UNK N   1      31.318  18.267   8.817  0.00  0.00     0.027 A 
HETATM    6  C   UNK N   1      29.950  18.197   8.536  0.00  0.00    -0.056 A 
HETATM    7 Hg   UNK N   1      28.585  19.007   9.856  0.00  0.00     0.086 Hg
ENDROOT
BRANCH   4   8
HETATM    8  S   UNK N   1      33.985  17.729   8.336  0.00  0.00     0.256 S 
HETATM    9  O   UNK N   1      34.817  16.944   7.313  0.00  0.00    -0.201 OA
HETATM   10  O   UNK N   1      34.609  19.130   8.242  0.00  0.00    -0.201 OA
BRANCH   8  11
HETATM   11  N   UNK N   1      34.488  17.106   9.908  0.00  0.00    -0.324 N 
HETATM   12  H   UNK N   1      34.194  16.380  10.561  0.00  0.00     0.169 HD
HETATM   13  H   UNK N   1      35.299  17.613  10.263  0.00  0.00     0.169 HD
ENDBRANCH   8  11
ENDBRANCH   4   8
BRANCH   1  14
HETATM   14  N   UNK N   1      28.128  17.476   7.097  0.00  0.00    -0.399 N 
HETATM   15  H   UNK N   1      27.474  17.785   7.764  0.00  0.00     0.156 HD
HETATM   16  H   UNK N   1      27.819  17.107   6.239  0.00  0.00     0.156 HD
ENDBRANCH   1  14
TORSDOF 3
ENDMDL
MODEL 4
REMARK VINA RESULT:      -5.0      7.328      8.296
REMARK  3 active torsions:
REMARK  status: ('A' for Active; 'I' for Inactive)
REMARK    1  A    between atoms: N_1  and  C_2 
REMARK    2  A    between atoms: C_5  and  S_9 
REMARK    3  A    between atoms: S_9  and  N_10 
ROOT
HETATM    1  C   UNK N   1      35.022  14.624  11.430  0.00  0.00     0.025 A 
HETATM    2  C   UNK N   1      35.684  15.850  11.536  0.00  0.00     0.030 A 
HETATM    3  C   UNK N   1      35.489  16.836  10.563  0.00  0.00     0.027 A 
HETATM    4  C   UNK N   1      34.635  16.593   9.482  0.00  0.00     0.079 A 
HETATM    5  C   UNK N   1      33.978  15.363   9.374  0.00  0.00     0.027 A 
HETATM    6  C   UNK N   1      34.174  14.378  10.345  0.00  0.00    -0.056 A 
HETATM    7 Hg   UNK N   1      33.191  12.569  10.189  0.00  0.00     0.086 Hg
ENDROOT
BRANCH   4   8
HETATM    8  S   UNK N   1      34.315  17.878   8.281  0.00  0.00     0.256 S 
HETATM    9  O   UNK N   1      35.202  19.109   8.516  0.00  0.00    -0.201 OA
HETATM   10  O   UNK N   1      34.707  17.477   6.851  0.00  0.00    -0.201 OA
BRANCH   8  11
HETATM   11  N   UNK N   1      32.675  18.516   8.148  0.00  0.00    -0.324 N 
HETATM   12  H   UNK N   1      32.222  19.367   7.818  0.00  0.00     0.169 HD
HETATM   13  H   UNK N   1      31.991  17.847   8.500  0.00  0.00     0.169 HD
ENDBRANCH   8  11
ENDBRANCH   4   8
BRANCH   1  14
HETATM   14  N   UNK N   1      35.203  13.637  12.419  0.00  0.00    -0.399 N 
HETATM   15  H   UNK N   1      34.718  13.702  13.273  0.00  0.00     0.156 HD
HETATM   16  H   UNK N   1      35.814  12.883  12.256  0.00  0.00     0.156 HD
ENDBRANCH   1  14
TORSDOF 3
ENDMDL
MODEL 5
REMARK VINA RESULT:      -4.9     11.656     12.945
REMARK  3 active torsions:
REMARK  status: ('A' for Active; 'I' for Inactive)
REMARK    1  A    between atoms: N_1  and  C_2 
REMARK    2  A    between atoms: C_5  and  S_9 
REMARK    3  A    between atoms: S_9  and  N_10 
ROOT
HETATM    1  C   UNK N   1      30.339  17.416   4.670  0.00  0.00     0.025 A 
HETATM    2  C   UNK N   1      30.140  17.212   6.038  0.00  0.00     0.030 A 
HETATM    3  C   UNK N   1      31.239  17.130   6.899  0.00  0.00     0.027 A 
HETATM    4  C   UNK N   1      32.537  17.248   6.391  0.00  0.00     0.079 A 
HETATM    5  C   UNK N   1      32.735  17.445   5.021  0.00  0.00     0.027 A 
HETATM    6  C   UNK N   1      31.636  17.526   4.160  0.00  0.00    -0.056 A 
HETATM    7 Hg   UNK N   1      31.932  17.832   2.139  0.00  0.00     0.086 Hg
ENDROOT
BRANCH   4   8
HETATM    8  S   UNK N   1      33.942  17.230   7.496  0.00  0.00     0.256 S 
HETATM    9  O   UNK N   1      34.999  16.207   7.056  0.00  0.00    -0.201 OA
HETATM   10  O   UNK N   1      34.743  18.541   7.474  0.00  0.00    -0.201 OA
BRANCH   8  11
HETATM   11  N   UNK N   1      33.662  16.890   9.205  0.00  0.00    -0.324 N 
HETATM   12  H   UNK N   1      33.549  17.418  10.070  0.00  0.00     0.169 HD
HETATM   13  H   UNK N   1      33.596  15.886   9.375  0.00  0.00     0.169 HD
ENDBRANCH   8  11
ENDBRANCH   4   8
BRANCH   1  14
HETATM   14  N   UNK N   1      29.231  17.517   3.805  0.00  0.00    -0.399 N 
HETATM   15  H   UNK N   1      29.074  16.825   3.123  0.00  0.00     0.156 HD
HETATM   16  H   UNK N   1      28.614  18.280   3.883  0.00  0.00     0.156 HD
ENDBRANCH   1  14
TORSDOF 3
ENDMDL
MODEL 6
REMARK VINA RESULT:      -4.9     16.069     16.566
REMARK  3 active torsions:
REMARK  status: ('A' for Active; 'I' for Inactive)
REMARK    1  A    between atoms: N_1  and  C_2 
REMARK    2  A    between atoms: C_5  and  S_9 
REMARK    3  A    between atoms: S_9  and  N_10 
ROOT
HETATM    1  C   UNK N   1      22.213  12.296  10.730  0.00  0.00     0.025 A 
HETATM    2  C   UNK N   1      22.870  13.181   9.869  0.00  0.00     0.030 A 
HETATM    3  C   UNK N   1      22.152  14.202   9.238  0.00  0.00     0.027 A 
HETATM    4  C   UNK N   1      20.778  14.336   9.465  0.00  0.00     0.079 A 
HETATM    5  C   UNK N   1      20.122  13.446  10.321  0.00  0.00     0.027 A 
HETATM    6  C   UNK N   1      20.838  12.425  10.951  0.00  0.00    -0.056 A 
HETATM    7 Hg   UNK N   1      19.868  11.122  12.225  0.00  0.00     0.086 Hg
ENDROOT
BRANCH   4   8
HETATM    8  S   UNK N   1      19.872  15.690   8.728  0.00  0.00     0.256 S 
HETATM    9  O   UNK N   1      20.719  16.969   8.657  0.00  0.00    -0.201 OA
HETATM   10  O   UNK N   1      19.533  15.453   7.249  0.00  0.00    -0.201 OA
BRANCH   8  11
HETATM   11  N   UNK N   1      18.353  16.190   9.475  0.00  0.00    -0.324 N 
HETATM   12  H   UNK N   1      17.827  15.984  10.324  0.00  0.00     0.169 HD
HETATM   13  H   UNK N   1      17.866  16.873   8.896  0.00  0.00     0.169 HD
ENDBRANCH   8  11
ENDBRANCH   4   8
BRANCH   1  14
HETATM   14  N   UNK N   1      22.939  11.279  11.380  0.00  0.00    -0.399 N 
HETATM   15  H   UNK N   1      22.940  10.365  11.016  0.00  0.00     0.156 HD
HETATM   16  H   UNK N   1      23.446  11.483  12.199  0.00  0.00     0.156 HD
ENDBRANCH   1  14
TORSDOF 3
ENDMDL
MODEL 7
REMARK VINA RESULT:      -4.7     14.774     15.212
REMARK  3 active torsions:
REMARK  status: ('A' for Active; 'I' for Inactive)
REMARK    1  A    between atoms: N_1  and  C_2 
REMARK    2  A    between atoms: C_5  and  S_9 
REMARK    3  A    between atoms: S_9  and  N_10 
ROOT
HETATM    1  C   UNK N   1      22.532  12.051  11.642  0.00  0.00     0.025 A 
HETATM    2  C   UNK N   1      21.204  12.352  11.327  0.00  0.00     0.030 A 
HETATM    3  C   UNK N   1      20.905  13.040  10.146  0.00  0.00     0.027 A 
HETATM    4  C   UNK N   1      21.935  13.429   9.282  0.00  0.00     0.079 A 
HETATM    5  C   UNK N   1      23.263  13.133   9.602  0.00  0.00     0.027 A 
HETATM    6  C   UNK N   1      23.563  12.447  10.783  0.00  0.00    -0.056 A 
HETATM    7 Hg   UNK N   1      25.525  11.999  11.244  0.00  0.00     0.086 Hg
ENDROOT
BRANCH   4   8
HETATM    8  S   UNK N   1      21.553  14.233   7.732  0.00  0.00     0.256 S 
HETATM    9  O   UNK N   1      20.192  13.787   7.180  0.00  0.00    -0.201 OA
HETATM   10  O   UNK N   1      21.355  15.750   7.872  0.00  0.00    -0.201 OA
BRANCH   8  11
HETATM   11  N   UNK N   1      22.677  14.039   6.386  0.00  0.00    -0.324 N 
HETATM   12  H   UNK N   1      23.143  13.275   5.896  0.00  0.00     0.169 HD
HETATM   13  H   UNK N   1      22.934  14.942   5.987  0.00  0.00     0.169 HD
ENDBRANCH   8  11
ENDBRANCH   4   8
BRANCH   1  14
HETATM   14  N   UNK N   1      22.833  11.342  12.821  0.00  0.00    -0.399 N 
HETATM   15  H   UNK N   1      23.365  10.515  12.777  0.00  0.00     0.156 HD
HETATM   16  H   UNK N   1      22.511  11.674  13.690  0.00  0.00     0.156 HD
ENDBRANCH   1  14
TORSDOF 3
ENDMDL
MODEL 8
REMARK VINA RESULT:      -4.7     10.880     11.619
REMARK  3 active torsions:
REMARK  status: ('A' for Active; 'I' for Inactive)
REMARK    1  A    between atoms: N_1  and  C_2 
REMARK    2  A    between atoms: C_5  and  S_9 
REMARK    3  A    between atoms: S_9  and  N_10 
ROOT
HETATM    1  C   UNK N   1      29.245  17.572   7.934  0.00  0.00     0.025 A 
HETATM    2  C   UNK N   1      30.017  18.266   8.871  0.00  0.00     0.030 A 
HETATM    3  C   UNK N   1      31.411  18.264   8.765  0.00  0.00     0.027 A 
HETATM    4  C   UNK N   1      32.034  17.564   7.724  0.00  0.00     0.079 A 
HETATM    5  C   UNK N   1      31.260  16.865   6.793  0.00  0.00     0.027 A 
HETATM    6  C   UNK N   1      29.866  16.866   6.899  0.00  0.00    -0.056 A 
HETATM    7 Hg   UNK N   1      28.727  15.845   5.513  0.00  0.00     0.086 Hg
ENDROOT
BRANCH   4   8
HETATM    8  S   UNK N   1      33.810  17.627   7.534  0.00  0.00     0.256 S 
HETATM    9  O   UNK N   1      34.217  17.875   6.074  0.00  0.00    -0.201 OA
HETATM   10  O   UNK N   1      34.450  18.828   8.247  0.00  0.00    -0.201 OA
BRANCH   8  11
HETATM   11  N   UNK N   1      34.760  16.230   8.042  0.00  0.00    -0.324 N 
HETATM   12  H   UNK N   1      35.123  15.841   8.912  0.00  0.00     0.169 HD
HETATM   13  H   UNK N   1      35.019  15.651   7.243  0.00  0.00     0.169 HD
ENDBRANCH   8  11
ENDBRANCH   4   8
BRANCH   1  14
HETATM   14  N   UNK N   1      27.839  17.589   8.030  0.00  0.00    -0.399 N 
HETATM   15  H   UNK N   1      27.401  17.385   8.887  0.00  0.00     0.156 HD
HETATM   16  H   UNK N   1      27.295  17.807   7.239  0.00  0.00     0.156 HD
ENDBRANCH   1  14
TORSDOF 3
ENDMDL
MODEL 9
REMARK VINA RESULT:      -4.7     17.272     18.387
REMARK  3 active torsions:
REMARK  status: ('A' for Active; 'I' for Inactive)
REMARK    1  A    between atoms: N_1  and  C_2 
REMARK    2  A    between atoms: C_5  and  S_9 
REMARK    3  A    between atoms: S_9  and  N_10 
ROOT
HETATM    1  C   UNK N   1      44.210  23.577   2.638  0.00  0.00     0.025 A 
HETATM    2  C   UNK N   1      43.215  23.603   1.656  0.00  0.00     0.030 A 
HETATM    3  C   UNK N   1      42.239  22.602   1.624  0.00  0.00     0.027 A 
HETATM    4  C   UNK N   1      42.260  21.572   2.572  0.00  0.00     0.079 A 
HETATM    5  C   UNK N   1      43.260  21.545   3.549  0.00  0.00     0.027 A 
HETATM    6  C   UNK N   1      44.236  22.545   3.581  0.00  0.00    -0.056 A 
HETATM    7 Hg   UNK N   1      45.701  22.508   5.035  0.00  0.00     0.086 Hg
ENDROOT
BRANCH   4   8
HETATM    8  S   UNK N   1      40.968  20.338   2.589  0.00  0.00     0.256 S 
HETATM    9  O   UNK N   1      41.339  19.114   1.740  0.00  0.00    -0.201 OA
HETATM   10  O   UNK N   1      40.755  19.708   3.974  0.00  0.00    -0.201 OA
BRANCH   8  11
HETATM   11  N   UNK N   1      39.356  20.801   2.041  0.00  0.00    -0.324 N 
HETATM   12  H   UNK N   1      38.392  20.504   2.197  0.00  0.00     0.169 HD
HETATM   13  H   UNK N   1      39.399  21.582   1.387  0.00  0.00     0.169 HD
ENDBRANCH   8  11
ENDBRANCH   4   8
BRANCH   1  14
HETATM   14  N   UNK N   1      45.181  24.596   2.683  0.00  0.00    -0.399 N 
HETATM   15  H   UNK N   1      45.211  25.215   3.447  0.00  0.00     0.156 HD
HETATM   16  H   UNK N   1      45.832  24.688   1.949  0.00  0.00     0.156 HD
ENDBRANCH   1  14
TORSDOF 3
ENDMDL
