REMARK  31 active torsions:
REMARK  status: ('A' for Active; 'I' for Inactive)
REMARK    1  A    between atoms: C_8  and  C_7 
REMARK    2  A    between atoms: C_19  and  C_7 
REMARK    3  A    between atoms: N_32  and  C_8 
REMARK    4  A    between atoms: C_10  and  C_9 
REMARK    5  A    between atoms: N_30  and  C_9 
REMARK    6  A    between atoms: S_61  and  C_10 
REMARK    7  A    between atoms: C_18  and  C_11 
REMARK    8  A    between atoms: O_53  and  C_11 
REMARK    9  A    between atoms: C_16  and  C_12 
REMARK   10  A    between atoms: S_61  and  C_12 
REMARK   11  A    between atoms: C_28  and  C_13 
REMARK   12  A    between atoms: O_54  and  C_13 
REMARK   13  A    between atoms: O_41  and  C_17 
REMARK   14  A    between atoms: O_42  and  C_19 
REMARK   15  A    between atoms: C_21  and  O_43 
REMARK   16  A    between atoms: C_22  and  O_56 
REMARK   17  A    between atoms: C_26  and  C_23 
REMARK   18  A    between atoms: C_28  and  C_23 
REMARK   19  A    between atoms: C_23  and  O_44 
REMARK   20  A    between atoms: N_29  and  C_24 
REMARK   21  A    between atoms: O_45  and  C_26 
REMARK   22  A    between atoms: C_27  and  N_40 
REMARK   23  A    between atoms: P_58  and  O_46 
REMARK   24  A    between atoms: P_58  and  O_47 
REMARK   25  A    between atoms: P_59  and  O_49 
REMARK   26  A    between atoms: P_60  and  O_51 
REMARK   27  A    between atoms: P_59  and  O_53 
REMARK   28  A    between atoms: P_60  and  O_54 
REMARK   29  A    between atoms: P_58  and  O_56 
REMARK   30  A    between atoms: P_59  and  O_57 
REMARK   31  A    between atoms: P_60  and  O_57 
ROOT
HETATM    1  O   UNK N   1      -3.629  -3.004   1.797  0.00  0.00    -0.195 OA
ENDROOT
BRANCH   1   2
HETATM    2  P   UNK N   1      -2.164  -2.064   1.969  0.00  0.00     0.401 P 
HETATM    3  O   UNK N   1      -1.007  -2.993   2.420  0.00  0.00    -0.631 OA
BRANCH   2   4
HETATM    4  O   UNK N   1      -2.392  -0.959   3.289  0.00  0.00    -0.307 OA
HETATM    5  H   UNK N   1      -1.921  -0.541   4.027  0.00  0.00     0.222 HD
ENDBRANCH   2   4
BRANCH   2   6
HETATM    6  O   UNK N   1      -1.687  -1.127   0.574  0.00  0.00    -0.294 OA
BRANCH   6   7
HETATM    7  C   UNK N   1      -0.965  -1.953  -0.301  0.00  0.00     0.215 C 
BRANCH   7   8
HETATM    8  C   UNK N   1       0.381  -1.322  -0.669  0.00  0.00     0.180 C 
HETATM    9  C   UNK N   1       1.541  -1.923   0.149  0.00  0.00     0.197 C 
HETATM   10  C   UNK N   1       2.426  -0.707   0.218  0.00  0.00     0.199 C 
HETATM   11  C   UNK N   1       1.364   0.345   0.495  0.00  0.00     0.262 C 
HETATM   12  O   UNK N   1       0.340   0.077  -0.433  0.00  0.00    -0.353 OA
BRANCH   9  13
HETATM   13  O   UNK N   1       2.233  -2.990  -0.473  0.00  0.00    -0.286 OA
BRANCH  13  14
HETATM   14  P   UNK N   1       1.208  -4.402  -0.649  0.00  0.00     0.391 P 
HETATM   15  O   UNK N   1       0.431  -4.639   0.673  0.00  0.00    -0.632 OA
BRANCH  14  16
HETATM   16  O   UNK N   1       0.054  -4.230  -1.936  0.00  0.00    -0.307 OA
HETATM   17  H   UNK N   1      -0.184  -3.624  -2.655  0.00  0.00     0.222 HD
ENDBRANCH  14  16
BRANCH  14  18
HETATM   18  O   UNK N   1       2.169  -5.824  -0.905  0.00  0.00    -0.307 OA
HETATM   19  H   UNK N   1       1.749  -6.686  -1.048  0.00  0.00     0.222 HD
ENDBRANCH  14  18
ENDBRANCH  13  14
ENDBRANCH   9  13
BRANCH  10  20
HETATM   20  O   UNK N   1       3.387  -0.808   1.227  0.00  0.00    -0.388 OA
HETATM   21  H   UNK N   1       3.660  -1.420   1.928  0.00  0.00     0.210 HD
ENDBRANCH  10  20
BRANCH  11  22
HETATM   22  N   UNK N   1       1.799   1.743   0.378  0.00  0.00    -0.297 N 
HETATM   23  C   UNK N   1       0.949   2.802   0.448  0.00  0.00     0.188 A 
HETATM   24  N   UNK N   1       1.611   3.986   0.338  0.00  0.00    -0.346 N 
HETATM   25  C   UNK N   1       2.900   3.635   0.209  0.00  0.00     0.122 A 
ATOM     26  HN  UNK N   1       1.216   4.927   0.351  1.00  0.00     0.167 HD
HETATM   27  C   UNK N   1       4.025   4.434   0.092  0.00  0.00     0.131 A 
HETATM   28  C   UNK N   1       3.018   2.291   0.227  0.00  0.00     0.142 A 
HETATM   29  N   UNK N   1       5.240   3.818   0.001  0.00  0.00    -0.337 N 
HETATM   30  C   UNK N   1       5.340   2.447   0.021  0.00  0.00     0.183 A 
ATOM     31  HN  UNK N   1       6.086   4.382  -0.084  1.00  0.00     0.168 HD
HETATM   32  N   UNK N   1       4.218   1.670   0.136  0.00  0.00    -0.336 N 
ATOM     33  HN  UNK N   1       4.284   0.652   0.153  1.00  0.00     0.168 HD
BRANCH  27  34
HETATM   34  N   UNK N   1       3.927   5.840   0.083  0.00  0.00    -0.383 N 
HETATM   35  H   UNK N   1       4.744   6.390   0.077  0.00  0.00     0.157 HD
HETATM   36  H   UNK N   1       3.043   6.272   0.083  0.00  0.00     0.157 HD
ENDBRANCH  27  34
ENDBRANCH  11  22
ENDBRANCH   7   8
ENDBRANCH   6   7
ENDBRANCH   2   6
ENDBRANCH   1   2
BRANCH   1  37
HETATM   37  P   UNK N   1      -3.652  -3.724   0.205  0.00  0.00     0.401 P 
HETATM   38  O   UNK N   1      -4.983  -4.517   0.119  0.00  0.00    -0.631 OA
BRANCH  37  39
HETATM   39  O   UNK N   1      -2.393  -4.899   0.006  0.00  0.00    -0.307 OA
HETATM   40  H   UNK N   1      -2.610  -5.838  -0.105  0.00  0.00     0.222 HD
ENDBRANCH  37  39
BRANCH  37  41
HETATM   41  O   UNK N   1      -3.697  -2.565  -1.098  0.00  0.00    -0.296 OA
BRANCH  41  42
HETATM   42  C   UNK N   1      -4.390  -1.483  -0.557  0.00  0.00     0.192 C 
BRANCH  42  43
HETATM   43  C   UNK N   1      -5.616  -1.064  -1.367  0.00  0.00     0.008 C 
HETATM   44  C   UNK N   1      -5.146  -0.174  -2.508  0.00  0.00     0.020 C 
HETATM   45  C   UNK N   1      -6.329  -2.270  -1.972  0.00  0.00     0.020 C 
BRANCH  43  46
HETATM   46  C   UNK N   1      -6.577  -0.283  -0.436  0.00  0.00     0.202 C 
BRANCH  46  47
HETATM   47  C   UNK N   1      -7.121  -1.159   0.699  0.00  0.00     0.141 C 
HETATM   48  N   UNK N   1      -8.381  -1.262   0.952  0.00  0.00    -0.372 N 
ATOM     49  HN  UNK N   1      -8.675  -1.913   1.681  1.00  0.00     0.161 HD
BRANCH  48  50
HETATM   50  C   UNK N   1      -9.393  -0.509   0.262  0.00  0.00     0.129 C 
BRANCH  50  51
HETATM   51  C   UNK N   1     -10.001  -1.306  -0.874  0.00  0.00     0.103 C 
BRANCH  51  52
HETATM   52  C   UNK N   1     -10.677  -2.575  -0.437  0.00  0.00     0.112 C 
HETATM   53  N   UNK N   1     -11.626  -2.607   0.444  0.00  0.00    -0.374 N 
ATOM     54  HN  UNK N   1     -12.065  -3.513   0.608  1.00  0.00     0.161 HD
BRANCH  53  55
HETATM   55  C   UNK N   1     -12.132  -1.489   1.227  0.00  0.00     0.131 C 
BRANCH  55  56
HETATM   56  C   UNK N   1     -12.444  -0.201   0.453  0.00  0.00     0.093 C 
BRANCH  56  57
HETATM   57  S   UNK N   1     -13.188  -0.455  -1.188  0.00  0.00    -0.163 SA
BRANCH  57  58
HETATM   58  C   UNK N   1     -14.881  -0.474  -0.525  0.00  0.00     0.112 C 
BRANCH  58  59
HETATM   59  C   UNK N   1     -15.409  -1.856  -0.284  0.00  0.00    -0.049 A 
HETATM   60  C   UNK N   1     -16.724  -2.001   0.167  0.00  0.00     0.011 A 
HETATM   61  C   UNK N   1     -17.252  -3.275   0.399  0.00  0.00     0.037 A 
HETATM   62  C   UNK N   1     -16.464  -4.409   0.183  0.00  0.00     0.065 A 
HETATM   63  C   UNK N   1     -15.149  -4.272  -0.265  0.00  0.00     0.037 A 
HETATM   64  C   UNK N   1     -14.624  -3.001  -0.501  0.00  0.00     0.011 A 
BRANCH  62  65
HETATM   65  O   UNK N   1     -16.971  -5.631   0.407  0.00  0.00    -0.361 OA
HETATM   66  H   UNK N   1     -17.887  -5.751   0.563  0.00  0.00     0.217 HD
ENDBRANCH  62  65
ENDBRANCH  58  59
ENDBRANCH  57  58
ENDBRANCH  56  57
ENDBRANCH  55  56
ENDBRANCH  53  55
BRANCH  52  67
HETATM   67  O   UNK N   1     -10.300  -3.724  -1.026  0.00  0.00    -0.350 OA
HETATM   68  H   UNK N   1     -10.861  -4.352  -1.437  0.00  0.00     0.219 HD
ENDBRANCH  52  67
ENDBRANCH  51  52
ENDBRANCH  50  51
ENDBRANCH  48  50
BRANCH  47  69
HETATM   69  O   UNK N   1      -6.260  -1.834   1.482  0.00  0.00    -0.348 OA
HETATM   70  H   UNK N   1      -6.367  -2.589   2.027  0.00  0.00     0.219 HD
ENDBRANCH  47  69
ENDBRANCH  46  47
BRANCH  46  71
HETATM   71  O   UNK N   1      -5.911   0.809   0.127  0.00  0.00    -0.387 OA
HETATM   72  H   UNK N   1      -5.024   0.787   0.517  0.00  0.00     0.210 HD
ENDBRANCH  46  71
ENDBRANCH  43  46
ENDBRANCH  42  43
ENDBRANCH  41  42
ENDBRANCH  37  41
ENDBRANCH   1  37
TORSDOF 31
