REMARK  7 active torsions:
REMARK  status: ('A' for Active; 'I' for Inactive)
REMARK    1  A    between atoms: Br_1  and  Br_1 
REMARK    2  A    between atoms: Ta_13  and  Ta_13 
REMARK    3  A    between atoms: Ta_14  and  Ta_14 
REMARK    4  A    between atoms: Ta_15  and  Ta_15 
REMARK    5  A    between atoms: Ta_16  and  Ta_16 
REMARK    6  A    between atoms: Ta_17  and  Ta_17 
REMARK    7  A    between atoms: Ta_18  and  Ta_18 
ROOT
HETATM    1 Br   UNK N   1      -2.659   2.491   0.000  0.00  0.00     0.000 Br
ENDROOT
TORSDOF 7
