REMARK  6 active torsions:
REMARK  status: ('A' for Active; 'I' for Inactive)
REMARK    1  A    between atoms: C_2  and  C_3 
REMARK    2  A    between atoms: C_2  and  C_8 
REMARK    3  A    between atoms: C_3  and  N_4 
REMARK    4  A    between atoms: C_3  and  C_5 
REMARK    5  A    between atoms: C_5  and  O_6 
REMARK    6  A    between atoms: C_8  and  O_9 
ROOT
HETATM    1  C   UNK N   1       0.979   0.508   0.000  0.00  0.00     0.187 C 
ENDROOT
BRANCH   1   2
HETATM    2  C   UNK N   1       2.309   1.271  -0.000  0.00  0.00     0.112 C 
HETATM    3  C   UNK N   1       2.350   2.796   0.000  0.00  0.00     0.024 C 
BRANCH   2   4
HETATM    4  C   UNK N   1       3.602   0.523   0.000  0.00  0.00     0.145 C 
HETATM    5  O   UNK N   1       3.610  -0.696   0.000  0.00  0.00    -0.650 OA
BRANCH   4   6
HETATM    6  O   UNK N   1       4.766   1.194   0.000  0.00  0.00    -0.776 OA
HETATM    7  H   UNK N   1       5.577   0.725  -0.000  0.00  0.00     0.167 HD
ENDBRANCH   4   6
ENDBRANCH   2   4
ENDBRANCH   1   2
BRANCH   1   8
HETATM    8  N   UNK N   1       0.986  -0.948  -0.000  0.00  0.00    -0.417 N 
HETATM    9  H   UNK N   1       0.105  -1.462  -0.000  0.00  0.00     0.150 HD
HETATM   10  H   UNK N   1       1.872  -1.453  -0.000  0.00  0.00     0.150 HD
ENDBRANCH   1   8
BRANCH   1  11
HETATM   11  C   UNK N   1      -0.354   1.166  -0.000  0.00  0.00     0.163 C 
HETATM   12  O   UNK N   1      -0.444   2.380  -0.000  0.00  0.00    -0.648 OA
BRANCH  11  13
HETATM   13  O   UNK N   1      -1.467   0.411  -0.000  0.00  0.00    -0.775 OA
HETATM   14  H   UNK N   1      -2.310   0.820  -0.000  0.00  0.00     0.167 HD
ENDBRANCH  11  13
ENDBRANCH   1  11
TORSDOF 6
