REMARK  9 active torsions:
REMARK  status: ('A' for Active; 'I' for Inactive)
REMARK    1  A    between atoms: C_10  and  C_5 
REMARK    2  A    between atoms: O_23  and  C_5 
REMARK    3  A    between atoms: O_22  and  C_7 
REMARK    4  A    between atoms: C_11  and  O_17 
REMARK    5  A    between atoms: C_12  and  O_18 
REMARK    6  A    between atoms: C_13  and  N_16 
REMARK    7  A    between atoms: P_25  and  O_19 
REMARK    8  A    between atoms: P_25  and  O_20 
REMARK    9  A    between atoms: P_25  and  O_23 
ROOT
HETATM    1  C   UNK N   1       1.234   3.600  -0.484  0.00  0.00     0.180 C 
HETATM    2  C   UNK N   1       0.281   3.482   0.721  0.00  0.00     0.182 C 
HETATM    3  C   UNK N   1      -0.588   2.362   0.254  0.00  0.00     0.198 C 
HETATM    4  C   UNK N   1       0.405   1.476  -0.488  0.00  0.00     0.261 C 
HETATM    5  O   UNK N   1       1.241   2.368  -1.192  0.00  0.00    -0.353 OA
ENDROOT
BRANCH   4   6
HETATM    6  N   UNK N   1       1.225   0.538   0.309  0.00  0.00    -0.311 N 
HETATM    7  C   UNK N   1       0.759  -0.429   1.146  0.00  0.00     0.186 A 
HETATM    8  N   UNK N   1       1.758  -1.255   1.562  0.00  0.00    -0.350 N 
HETATM    9  C   UNK N   1       2.863  -0.795   0.944  0.00  0.00     0.062 A 
ATOM     10  HN  UNK N   1       1.685  -2.048   2.199  1.00  0.00     0.166 HD
HETATM   11  C   UNK N   1       4.136  -1.362   0.931  0.00  0.00     0.068 A 
HETATM   12  C   UNK N   1       2.547   0.299   0.204  0.00  0.00     0.064 A 
HETATM   13  C   UNK N   1       5.126  -0.745   0.121  0.00  0.00     0.070 A 
HETATM   14  C   UNK N   1       4.804   0.420  -0.610  0.00  0.00     0.039 A 
HETATM   15  C   UNK N   1       3.502   0.944  -0.586  0.00  0.00     0.035 A 
BRANCH  13  16
HETATM   16  O   UNK N   1       6.367  -1.270  -0.014  0.00  0.00    -0.356 OA
HETATM   17  C   UNK N   1       6.714  -2.515   0.458  0.00  0.00     0.210 C 
ENDBRANCH  13  16
ENDBRANCH   4   6
BRANCH   3  18
HETATM   18  O   UNK N   1      -1.295   1.722   1.276  0.00  0.00    -0.388 OA
HETATM   19  H   UNK N   1      -1.925   1.924   1.985  0.00  0.00     0.210 HD
ENDBRANCH   3  18
BRANCH   2  20
HETATM   20  O   UNK N   1       0.962   3.089   1.878  0.00  0.00    -0.390 OA
HETATM   21  H   UNK N   1       0.962   2.543   2.681  0.00  0.00     0.210 HD
ENDBRANCH   2  20
BRANCH   1  22
HETATM   22  C   UNK N   1       2.665   3.947  -0.072  0.00  0.00     0.215 C 
BRANCH  22  23
HETATM   23  O   UNK N   1       2.737   5.150   0.635  0.00  0.00    -0.294 OA
BRANCH  23  24
HETATM   24  P   UNK N   1       3.584   6.230  -0.430  0.00  0.00     0.390 P 
HETATM   25  O   UNK N   1       2.521   7.162   0.208  0.00  0.00    -0.632 OA
BRANCH  24  26
HETATM   26  O   UNK N   1       4.549   7.535   0.181  0.00  0.00    -0.307 OA
HETATM   27  H   UNK N   1       5.451   7.433   0.522  0.00  0.00     0.222 HD
ENDBRANCH  24  26
BRANCH  24  28
HETATM   28  O   UNK N   1       4.682   5.687   0.806  0.00  0.00    -0.307 OA
HETATM   29  H   UNK N   1       4.726   5.006   1.495  0.00  0.00     0.222 HD
ENDBRANCH  24  28
ENDBRANCH  23  24
ENDBRANCH  22  23
ENDBRANCH   1  22
TORSDOF 9
