MODEL 1
REMARK VINA RESULT:      -7.5      0.000      0.000
REMARK  15 active torsions:
REMARK  status: ('A' for Active; 'I' for Inactive)
REMARK    1  A    between atoms: C_3  and  C_1 
REMARK    2  A    between atoms: O_29  and  C_1 
REMARK    3  A    between atoms: C_5  and  O_19 
REMARK    4  A    between atoms: C_6  and  O_31 
REMARK    5  A    between atoms: O_20  and  C_8 
REMARK    6  A    between atoms: C_9  and  N_18 
REMARK       I    between atoms: N_11  and  C_10 
REMARK    7  A    between atoms: P_33  and  O_21 
REMARK    8  A    between atoms: P_33  and  O_22 
REMARK    9  A    between atoms: P_34  and  O_24 
REMARK   10  A    between atoms: P_34  and  O_25 
REMARK   11  A    between atoms: P_35  and  O_27 
REMARK   12  A    between atoms: P_35  and  O_29 
REMARK   13  A    between atoms: P_33  and  O_31 
REMARK   14  A    between atoms: P_34  and  O_32 
REMARK   15  A    between atoms: P_35  and  O_32 
ROOT
HETATM    1  C   UNK N   1      22.337  14.802   5.361  0.00  0.00     0.180 C 
HETATM    2  C   UNK N   1      21.667  12.853   6.342  0.00  0.00     0.199 C 
HETATM    3  C   UNK N   1      21.106  13.902   5.420  0.00  0.00     0.197 C 
HETATM    4  C   UNK N   1      22.203  13.829   7.399  0.00  0.00     0.262 C 
HETATM    5  O   UNK N   1      22.851  14.876   6.686  0.00  0.00    -0.353 OA
ENDROOT
BRANCH   4   6
HETATM    6  N   UNK N   1      23.040  13.268   8.467  0.00  0.00    -0.297 N 
HETATM    7  C   UNK N   1      24.394  13.344   8.558  0.00  0.00     0.188 A 
HETATM    8  N   UNK N   1      24.835  12.932   9.783  0.00  0.00    -0.346 N 
HETATM    9  C   UNK N   1      23.713  12.602  10.446  0.00  0.00     0.130 A 
ATOM     10  HN  UNK N   1      25.797  12.886  10.119  1.00  0.00     0.167 HD
HETATM   11  C   UNK N   1      22.640  12.786   9.654  0.00  0.00     0.157 A 
HETATM   12  C   UNK N   1      23.542  12.177  11.756  0.00  0.00     0.186 A 
HETATM   13  N   UNK N   1      21.377  12.543  10.072  0.00  0.00    -0.174 N 
HETATM   14  C   UNK N   1      21.194  12.075  11.344  0.00  0.00     0.679 A 
HETATM   15  H   UNK N   1      20.610  12.699   9.476  0.00  0.00     0.186 HD
HETATM   16  N   UNK N   1      20.017  11.796  11.754  0.00  0.00    -0.234 N 
HETATM   17  N   UNK N   1      22.271  11.909  12.182  0.00  0.00    -0.168 N 
HETATM   18  H   UNK N   1      19.216  12.099  11.270  0.00  0.00     0.174 HD
ATOM     19  HN  UNK N   1      19.905  11.245  12.606  1.00  0.00     0.174 HD
ATOM     20  HN  UNK N   1      22.120  11.582  13.136  1.00  0.00     0.186 HD
BRANCH  12  21
HETATM   21  O   UNK N   1      24.585  12.050  12.593  0.00  0.00    -0.344 OA
HETATM   22  H   UNK N   1      25.084  12.803  12.838  0.00  0.00     0.219 HD
ENDBRANCH  12  21
ENDBRANCH   4   6
BRANCH   2  23
HETATM   23  O   UNK N   1      20.665  12.006   6.817  0.00  0.00    -0.388 OA
HETATM   24  H   UNK N   1      19.844  12.260   7.266  0.00  0.00     0.210 HD
ENDBRANCH   2  23
BRANCH   3  25
HETATM   25  O   UNK N   1      20.704  13.405   4.162  0.00  0.00    -0.286 OA
BRANCH  25  26
HETATM   26  P   UNK N   1      18.948  13.467   4.010  0.00  0.00     0.391 P 
HETATM   27  O   UNK N   1      18.649  13.790   2.527  0.00  0.00    -0.632 OA
BRANCH  26  28
HETATM   28  O   UNK N   1      18.163  14.719   4.933  0.00  0.00    -0.307 OA
HETATM   29  H   UNK N   1      18.109  15.342   5.674  0.00  0.00     0.222 HD
ENDBRANCH  26  28
BRANCH  26  30
HETATM   30  O   UNK N   1      18.211  11.927   4.318  0.00  0.00    -0.307 OA
HETATM   31  H   UNK N   1      18.151  11.583   5.223  0.00  0.00     0.222 HD
ENDBRANCH  26  30
ENDBRANCH  25  26
ENDBRANCH   3  25
BRANCH   1  32
HETATM   32  C   UNK N   1      22.090  16.181   4.755  0.00  0.00     0.215 C 
BRANCH  32  33
HETATM   33  O   UNK N   1      20.745  16.561   4.727  0.00  0.00    -0.294 OA
BRANCH  33  34
HETATM   34  P   UNK N   1      20.616  17.412   3.215  0.00  0.00     0.401 P 
HETATM   35  O   UNK N   1      20.777  16.375   2.068  0.00  0.00    -0.631 OA
BRANCH  34  36
HETATM   36  O   UNK N   1      19.013  18.059   3.077  0.00  0.00    -0.307 OA
HETATM   37  H   UNK N   1      18.339  17.828   3.736  0.00  0.00     0.222 HD
ENDBRANCH  34  36
BRANCH  34  38
HETATM   38  O   UNK N   1      21.816  18.694   3.122  0.00  0.00    -0.195 OA
BRANCH  38  39
HETATM   39  P   UNK N   1      21.072  20.250   2.818  0.00  0.00     0.399 P 
HETATM   40  O   UNK N   1      20.082  20.613   3.956  0.00  0.00    -0.631 OA
BRANCH  39  41
HETATM   41  O   UNK N   1      20.113  20.155   1.374  0.00  0.00    -0.307 OA
HETATM   42  H   UNK N   1      20.183  20.042   0.413  0.00  0.00     0.222 HD
ENDBRANCH  39  41
BRANCH  39  43
HETATM   43  O   UNK N   1      22.232  21.532   2.670  0.00  0.00    -0.307 OA
HETATM   44  H   UNK N   1      22.440  22.110   3.421  0.00  0.00     0.222 HD
ENDBRANCH  39  43
ENDBRANCH  38  39
ENDBRANCH  34  38
ENDBRANCH  33  34
ENDBRANCH  32  33
ENDBRANCH   1  32
TORSDOF 15
ENDMDL
MODEL 2
REMARK VINA RESULT:      -7.2      4.518      6.055
REMARK  15 active torsions:
REMARK  status: ('A' for Active; 'I' for Inactive)
REMARK    1  A    between atoms: C_3  and  C_1 
REMARK    2  A    between atoms: O_29  and  C_1 
REMARK    3  A    between atoms: C_5  and  O_19 
REMARK    4  A    between atoms: C_6  and  O_31 
REMARK    5  A    between atoms: O_20  and  C_8 
REMARK    6  A    between atoms: C_9  and  N_18 
REMARK       I    between atoms: N_11  and  C_10 
REMARK    7  A    between atoms: P_33  and  O_21 
REMARK    8  A    between atoms: P_33  and  O_22 
REMARK    9  A    between atoms: P_34  and  O_24 
REMARK   10  A    between atoms: P_34  and  O_25 
REMARK   11  A    between atoms: P_35  and  O_27 
REMARK   12  A    between atoms: P_35  and  O_29 
REMARK   13  A    between atoms: P_33  and  O_31 
REMARK   14  A    between atoms: P_34  and  O_32 
REMARK   15  A    between atoms: P_35  and  O_32 
ROOT
HETATM    1  C   UNK N   1      21.764  15.053   3.725  0.00  0.00     0.180 C 
HETATM    2  C   UNK N   1      23.318  15.279   5.381  0.00  0.00     0.199 C 
HETATM    3  C   UNK N   1      21.836  15.455   5.196  0.00  0.00     0.197 C 
HETATM    4  C   UNK N   1      23.737  16.077   4.138  0.00  0.00     0.262 C 
HETATM    5  O   UNK N   1      22.881  15.656   3.083  0.00  0.00    -0.353 OA
ENDROOT
BRANCH   4   6
HETATM    6  N   UNK N   1      25.157  16.039   3.765  0.00  0.00    -0.297 N 
HETATM    7  C   UNK N   1      25.685  15.472   2.649  0.00  0.00     0.188 A 
HETATM    8  N   UNK N   1      26.996  15.819   2.486  0.00  0.00    -0.346 N 
HETATM    9  C   UNK N   1      27.261  16.619   3.533  0.00  0.00     0.130 A 
ATOM     10  HN  UNK N   1      27.630  15.536   1.738  1.00  0.00     0.167 HD
HETATM   11  C   UNK N   1      26.166  16.738   4.309  0.00  0.00     0.157 A 
HETATM   12  C   UNK N   1      28.416  17.317   3.855  0.00  0.00     0.186 A 
HETATM   13  N   UNK N   1      26.147  17.497   5.427  0.00  0.00    -0.174 N 
HETATM   14  C   UNK N   1      27.293  18.152   5.787  0.00  0.00     0.679 A 
HETATM   15  H   UNK N   1      25.328  17.577   5.969  0.00  0.00     0.186 HD
HETATM   16  N   UNK N   1      27.318  18.843   6.861  0.00  0.00    -0.234 N 
HETATM   17  N   UNK N   1      28.413  18.072   4.995  0.00  0.00    -0.168 N 
HETATM   18  H   UNK N   1      26.492  19.096   7.331  0.00  0.00     0.174 HD
ATOM     19  HN  UNK N   1      28.217  19.140   7.240  1.00  0.00     0.174 HD
ATOM     20  HN  UNK N   1      29.254  18.583   5.261  1.00  0.00     0.186 HD
BRANCH  12  21
HETATM   21  O   UNK N   1      29.502  17.275   3.066  0.00  0.00    -0.344 OA
HETATM   22  H   UNK N   1      30.237  17.826   3.248  0.00  0.00     0.219 HD
ENDBRANCH  12  21
ENDBRANCH   4   6
BRANCH   2  23
HETATM   23  O   UNK N   1      23.751  15.842   6.582  0.00  0.00    -0.388 OA
HETATM   24  H   UNK N   1      23.477  16.689   6.966  0.00  0.00     0.210 HD
ENDBRANCH   2  23
BRANCH   3  25
HETATM   25  O   UNK N   1      21.050  14.646   6.045  0.00  0.00    -0.286 OA
BRANCH  25  26
HETATM   26  P   UNK N   1      20.154  15.647   7.188  0.00  0.00     0.391 P 
HETATM   27  O   UNK N   1      19.911  14.769   8.439  0.00  0.00    -0.632 OA
BRANCH  26  28
HETATM   28  O   UNK N   1      18.576  16.158   6.655  0.00  0.00    -0.307 OA
HETATM   29  H   UNK N   1      17.624  16.293   6.778  0.00  0.00     0.222 HD
ENDBRANCH  26  28
BRANCH  26  30
HETATM   30  O   UNK N   1      21.085  17.005   7.735  0.00  0.00    -0.307 OA
HETATM   31  H   UNK N   1      22.048  17.022   7.617  0.00  0.00     0.222 HD
ENDBRANCH  26  30
ENDBRANCH  25  26
ENDBRANCH   3  25
BRANCH   1  32
HETATM   32  C   UNK N   1      20.444  15.390   3.035  0.00  0.00     0.215 C 
BRANCH  32  33
HETATM   33  O   UNK N   1      19.742  16.443   3.628  0.00  0.00    -0.294 OA
BRANCH  33  34
HETATM   34  P   UNK N   1      19.967  17.742   2.492  0.00  0.00     0.401 P 
HETATM   35  O   UNK N   1      20.111  17.119   1.075  0.00  0.00    -0.631 OA
BRANCH  34  36
HETATM   36  O   UNK N   1      18.527  18.710   2.464  0.00  0.00    -0.307 OA
HETATM   37  H   UNK N   1      18.047  18.888   3.287  0.00  0.00     0.222 HD
ENDBRANCH  34  36
BRANCH  34  38
HETATM   38  O   UNK N   1      21.364  18.716   2.934  0.00  0.00    -0.195 OA
BRANCH  38  39
HETATM   39  P   UNK N   1      21.101  20.413   2.586  0.00  0.00     0.399 P 
HETATM   40  O   UNK N   1      22.435  21.201   2.676  0.00  0.00    -0.631 OA
BRANCH  39  41
HETATM   41  O   UNK N   1      20.070  21.094   3.805  0.00  0.00    -0.307 OA
HETATM   42  H   UNK N   1      19.572  20.863   4.604  0.00  0.00     0.222 HD
ENDBRANCH  39  41
BRANCH  39  43
HETATM   43  O   UNK N   1      20.411  20.677   1.016  0.00  0.00    -0.307 OA
HETATM   44  H   UNK N   1      20.890  21.175   0.335  0.00  0.00     0.222 HD
ENDBRANCH  39  43
ENDBRANCH  38  39
ENDBRANCH  34  38
ENDBRANCH  33  34
ENDBRANCH  32  33
ENDBRANCH   1  32
TORSDOF 15
ENDMDL
MODEL 3
REMARK VINA RESULT:      -7.2      1.049      2.117
REMARK  15 active torsions:
REMARK  status: ('A' for Active; 'I' for Inactive)
REMARK    1  A    between atoms: C_3  and  C_1 
REMARK    2  A    between atoms: O_29  and  C_1 
REMARK    3  A    between atoms: C_5  and  O_19 
REMARK    4  A    between atoms: C_6  and  O_31 
REMARK    5  A    between atoms: O_20  and  C_8 
REMARK    6  A    between atoms: C_9  and  N_18 
REMARK       I    between atoms: N_11  and  C_10 
REMARK    7  A    between atoms: P_33  and  O_21 
REMARK    8  A    between atoms: P_33  and  O_22 
REMARK    9  A    between atoms: P_34  and  O_24 
REMARK   10  A    between atoms: P_34  and  O_25 
REMARK   11  A    between atoms: P_35  and  O_27 
REMARK   12  A    between atoms: P_35  and  O_29 
REMARK   13  A    between atoms: P_33  and  O_31 
REMARK   14  A    between atoms: P_34  and  O_32 
REMARK   15  A    between atoms: P_35  and  O_32 
ROOT
HETATM    1  C   UNK N   1      22.727  14.603   5.566  0.00  0.00     0.180 C 
HETATM    2  C   UNK N   1      21.855  12.778   6.623  0.00  0.00     0.199 C 
HETATM    3  C   UNK N   1      21.422  13.812   5.620  0.00  0.00     0.197 C 
HETATM    4  C   UNK N   1      22.430  13.767   7.646  0.00  0.00     0.262 C 
HETATM    5  O   UNK N   1      23.192  14.712   6.906  0.00  0.00    -0.353 OA
ENDROOT
BRANCH   4   6
HETATM    6  N   UNK N   1      23.173  13.202   8.780  0.00  0.00    -0.297 N 
HETATM    7  C   UNK N   1      24.515  13.272   8.983  0.00  0.00     0.188 A 
HETATM    8  N   UNK N   1      24.852  12.860  10.240  0.00  0.00    -0.346 N 
HETATM    9  C   UNK N   1      23.677  12.535  10.808  0.00  0.00     0.130 A 
ATOM     10  HN  UNK N   1      25.783  12.810  10.654  1.00  0.00     0.167 HD
HETATM   11  C   UNK N   1      22.674  12.723   9.930  0.00  0.00     0.157 A 
HETATM   12  C   UNK N   1      23.397  12.111  12.100  0.00  0.00     0.186 A 
HETATM   13  N   UNK N   1      21.381  12.486  10.243  0.00  0.00    -0.174 N 
HETATM   14  C   UNK N   1      21.091  12.019  11.496  0.00  0.00     0.679 A 
HETATM   15  H   UNK N   1      20.665  12.644   9.585  0.00  0.00     0.186 HD
HETATM   16  N   UNK N   1      19.883  11.746  11.807  0.00  0.00    -0.234 N 
HETATM   17  N   UNK N   1      22.094  11.849  12.420  0.00  0.00    -0.168 N 
HETATM   18  H   UNK N   1      19.126  12.052  11.258  0.00  0.00     0.174 HD
ATOM     19  HN  UNK N   1      19.698  11.196  12.646  1.00  0.00     0.174 HD
ATOM     20  HN  UNK N   1      21.863  11.523  13.358  1.00  0.00     0.186 HD
BRANCH  12  21
HETATM   21  O   UNK N   1      24.367  11.980  13.020  0.00  0.00    -0.344 OA
HETATM   22  H   UNK N   1      24.169  11.622  13.863  0.00  0.00     0.219 HD
ENDBRANCH  12  21
ENDBRANCH   4   6
BRANCH   2  23
HETATM   23  O   UNK N   1      20.767  12.046   7.100  0.00  0.00    -0.388 OA
HETATM   24  H   UNK N   1      20.647  11.084   7.070  0.00  0.00     0.210 HD
ENDBRANCH   2  23
BRANCH   3  25
HETATM   25  O   UNK N   1      21.029  13.277   4.375  0.00  0.00    -0.286 OA
BRANCH  25  26
HETATM   26  P   UNK N   1      19.281  13.405   4.176  0.00  0.00     0.391 P 
HETATM   27  O   UNK N   1      18.781  14.338   5.305  0.00  0.00    -0.632 OA
BRANCH  26  28
HETATM   28  O   UNK N   1      18.397  11.916   4.367  0.00  0.00    -0.307 OA
HETATM   29  H   UNK N   1      17.996  11.100   4.032  0.00  0.00     0.222 HD
ENDBRANCH  26  28
BRANCH  26  30
HETATM   30  O   UNK N   1      18.849  14.187   2.689  0.00  0.00    -0.307 OA
HETATM   31  H   UNK N   1      17.971  14.583   2.579  0.00  0.00     0.222 HD
ENDBRANCH  26  30
ENDBRANCH  25  26
ENDBRANCH   3  25
BRANCH   1  32
HETATM   32  C   UNK N   1      22.622  15.960   4.874  0.00  0.00     0.215 C 
BRANCH  32  33
HETATM   33  O   UNK N   1      21.341  16.518   4.901  0.00  0.00    -0.294 OA
BRANCH  33  34
HETATM   34  P   UNK N   1      21.666  18.219   5.062  0.00  0.00     0.401 P 
HETATM   35  O   UNK N   1      21.383  18.622   6.537  0.00  0.00    -0.631 OA
BRANCH  34  36
HETATM   36  O   UNK N   1      23.358  18.490   4.791  0.00  0.00    -0.307 OA
HETATM   37  H   UNK N   1      24.016  18.005   5.313  0.00  0.00     0.222 HD
ENDBRANCH  34  36
BRANCH  34  38
HETATM   38  O   UNK N   1      20.696  19.146   3.925  0.00  0.00    -0.195 OA
BRANCH  38  39
HETATM   39  P   UNK N   1      19.609  18.115   3.017  0.00  0.00     0.399 P 
HETATM   40  O   UNK N   1      20.355  17.443   1.834  0.00  0.00    -0.631 OA
BRANCH  39  41
HETATM   41  O   UNK N   1      18.365  19.088   2.296  0.00  0.00    -0.307 OA
HETATM   42  H   UNK N   1      17.692  19.077   1.597  0.00  0.00     0.222 HD
ENDBRANCH  39  41
BRANCH  39  43
HETATM   43  O   UNK N   1      18.892  16.872   3.993  0.00  0.00    -0.307 OA
HETATM   44  H   UNK N   1      19.006  16.862   4.957  0.00  0.00     0.222 HD
ENDBRANCH  39  43
ENDBRANCH  38  39
ENDBRANCH  34  38
ENDBRANCH  33  34
ENDBRANCH  32  33
ENDBRANCH   1  32
TORSDOF 15
ENDMDL
MODEL 4
REMARK VINA RESULT:      -7.1     10.233     13.815
REMARK  15 active torsions:
REMARK  status: ('A' for Active; 'I' for Inactive)
REMARK    1  A    between atoms: C_3  and  C_1 
REMARK    2  A    between atoms: O_29  and  C_1 
REMARK    3  A    between atoms: C_5  and  O_19 
REMARK    4  A    between atoms: C_6  and  O_31 
REMARK    5  A    between atoms: O_20  and  C_8 
REMARK    6  A    between atoms: C_9  and  N_18 
REMARK       I    between atoms: N_11  and  C_10 
REMARK    7  A    between atoms: P_33  and  O_21 
REMARK    8  A    between atoms: P_33  and  O_22 
REMARK    9  A    between atoms: P_34  and  O_24 
REMARK   10  A    between atoms: P_34  and  O_25 
REMARK   11  A    between atoms: P_35  and  O_27 
REMARK   12  A    between atoms: P_35  and  O_29 
REMARK   13  A    between atoms: P_33  and  O_31 
REMARK   14  A    between atoms: P_34  and  O_32 
REMARK   15  A    between atoms: P_35  and  O_32 
ROOT
HETATM    1  C   UNK N   1      32.705  15.994   8.651  0.00  0.00     0.180 C 
HETATM    2  C   UNK N   1      31.445  14.915   7.083  0.00  0.00     0.199 C 
HETATM    3  C   UNK N   1      32.666  14.653   7.922  0.00  0.00     0.197 C 
HETATM    4  C   UNK N   1      31.892  16.288   6.562  0.00  0.00     0.262 C 
HETATM    5  O   UNK N   1      32.412  16.993   7.682  0.00  0.00    -0.353 OA
ENDROOT
BRANCH   4   6
HETATM    6  N   UNK N   1      30.906  17.072   5.806  0.00  0.00    -0.297 N 
HETATM    7  C   UNK N   1      30.820  17.176   4.454  0.00  0.00     0.188 A 
HETATM    8  N   UNK N   1      29.657  17.781   4.073  0.00  0.00    -0.346 N 
HETATM    9  C   UNK N   1      29.026  18.045   5.231  0.00  0.00     0.130 A 
ATOM     10  HN  UNK N   1      29.339  17.985   3.126  1.00  0.00     0.167 HD
HETATM   11  C   UNK N   1      29.780  17.637   6.269  0.00  0.00     0.157 A 
HETATM   12  C   UNK N   1      27.774  18.598   5.460  0.00  0.00     0.186 A 
HETATM   13  N   UNK N   1      29.380  17.769   7.554  0.00  0.00    -0.174 N 
HETATM   14  C   UNK N   1      28.170  18.357   7.800  0.00  0.00     0.679 A 
HETATM   15  H   UNK N   1      29.946  17.449   8.293  0.00  0.00     0.186 HD
HETATM   16  N   UNK N   1      27.784  18.534   9.004  0.00  0.00    -0.234 N 
HETATM   17  N   UNK N   1      27.369  18.753   6.756  0.00  0.00    -0.168 N 
HETATM   18  H   UNK N   1      28.221  18.079   9.759  0.00  0.00     0.174 HD
ATOM     19  HN  UNK N   1      27.002  19.163   9.188  1.00  0.00     0.174 HD
ATOM     20  HN  UNK N   1      26.458  19.170   6.951  1.00  0.00     0.186 HD
BRANCH  12  21
HETATM   21  O   UNK N   1      26.968  18.951   4.444  0.00  0.00    -0.344 OA
HETATM   22  H   UNK N   1      26.045  19.027   4.582  0.00  0.00     0.219 HD
ENDBRANCH  12  21
ENDBRANCH   4   6
BRANCH   2  23
HETATM   23  O   UNK N   1      31.300  13.954   6.082  0.00  0.00    -0.388 OA
HETATM   24  H   UNK N   1      31.995  13.399   5.696  0.00  0.00     0.210 HD
ENDBRANCH   2  23
BRANCH   3  25
HETATM   25  O   UNK N   1      32.545  13.541   8.782  0.00  0.00    -0.286 OA
BRANCH  25  26
HETATM   26  P   UNK N   1      33.624  12.245   8.264  0.00  0.00     0.391 P 
HETATM   27  O   UNK N   1      34.553  12.855   7.188  0.00  0.00    -0.632 OA
BRANCH  26  28
HETATM   28  O   UNK N   1      32.845  10.886   7.502  0.00  0.00    -0.307 OA
HETATM   29  H   UNK N   1      32.599   9.950   7.447  0.00  0.00     0.222 HD
ENDBRANCH  26  28
BRANCH  26  30
HETATM   30  O   UNK N   1      34.667  11.714   9.545  0.00  0.00    -0.307 OA
HETATM   31  H   UNK N   1      35.224  12.349  10.022  0.00  0.00     0.222 HD
ENDBRANCH  26  30
ENDBRANCH  25  26
ENDBRANCH   3  25
BRANCH   1  32
HETATM   32  C   UNK N   1      34.004  16.274   9.403  0.00  0.00     0.215 C 
BRANCH  32  33
HETATM   33  O   UNK N   1      35.140  15.723   8.805  0.00  0.00    -0.294 OA
BRANCH  33  34
HETATM   34  P   UNK N   1      35.957  14.975  10.147  0.00  0.00     0.401 P 
HETATM   35  O   UNK N   1      36.855  13.837   9.586  0.00  0.00    -0.631 OA
BRANCH  34  36
HETATM   36  O   UNK N   1      37.024  16.139  10.865  0.00  0.00    -0.307 OA
HETATM   37  H   UNK N   1      36.941  16.356  11.807  0.00  0.00     0.222 HD
ENDBRANCH  34  36
BRANCH  34  38
HETATM   38  O   UNK N   1      34.795  14.382  11.327  0.00  0.00    -0.195 OA
BRANCH  38  39
HETATM   39  P   UNK N   1      35.581  13.483  12.608  0.00  0.00     0.399 P 
HETATM   40  O   UNK N   1      34.567  13.131  13.729  0.00  0.00    -0.631 OA
BRANCH  39  41
HETATM   41  O   UNK N   1      36.781  14.487  13.360  0.00  0.00    -0.307 OA
HETATM   42  H   UNK N   1      36.970  15.408  13.598  0.00  0.00     0.222 HD
ENDBRANCH  39  41
BRANCH  39  43
HETATM   43  O   UNK N   1      36.312  12.013  12.046  0.00  0.00    -0.307 OA
HETATM   44  H   UNK N   1      35.830  11.403  11.465  0.00  0.00     0.222 HD
ENDBRANCH  39  43
ENDBRANCH  38  39
ENDBRANCH  34  38
ENDBRANCH  33  34
ENDBRANCH  32  33
ENDBRANCH   1  32
TORSDOF 15
ENDMDL
MODEL 5
REMARK VINA RESULT:      -7.1     13.690     16.301
REMARK  15 active torsions:
REMARK  status: ('A' for Active; 'I' for Inactive)
REMARK    1  A    between atoms: C_3  and  C_1 
REMARK    2  A    between atoms: O_29  and  C_1 
REMARK    3  A    between atoms: C_5  and  O_19 
REMARK    4  A    between atoms: C_6  and  O_31 
REMARK    5  A    between atoms: O_20  and  C_8 
REMARK    6  A    between atoms: C_9  and  N_18 
REMARK       I    between atoms: N_11  and  C_10 
REMARK    7  A    between atoms: P_33  and  O_21 
REMARK    8  A    between atoms: P_33  and  O_22 
REMARK    9  A    between atoms: P_34  and  O_24 
REMARK   10  A    between atoms: P_34  and  O_25 
REMARK   11  A    between atoms: P_35  and  O_27 
REMARK   12  A    between atoms: P_35  and  O_29 
REMARK   13  A    between atoms: P_33  and  O_31 
REMARK   14  A    between atoms: P_34  and  O_32 
REMARK   15  A    between atoms: P_35  and  O_32 
ROOT
HETATM    1  C   UNK N   1      35.634  13.618  13.193  0.00  0.00     0.180 C 
HETATM    2  C   UNK N   1      36.817  11.853  14.026  0.00  0.00     0.199 C 
HETATM    3  C   UNK N   1      36.522  12.482  12.691  0.00  0.00     0.197 C 
HETATM    4  C   UNK N   1      35.362  11.801  14.511  0.00  0.00     0.262 C 
HETATM    5  O   UNK N   1      34.787  13.061  14.191  0.00  0.00    -0.353 OA
ENDROOT
BRANCH   4   6
HETATM    6  N   UNK N   1      35.135  11.412  15.909  0.00  0.00    -0.297 N 
HETATM    7  C   UNK N   1      35.048  10.145  16.392  0.00  0.00     0.188 A 
HETATM    8  N   UNK N   1      35.074  10.129  17.757  0.00  0.00    -0.346 N 
HETATM    9  C   UNK N   1      35.182  11.424  18.103  0.00  0.00     0.130 A 
ATOM     10  HN  UNK N   1      35.024   9.318  18.375  1.00  0.00     0.167 HD
HETATM   11  C   UNK N   1      35.201  12.194  16.998  0.00  0.00     0.157 A 
HETATM   12  C   UNK N   1      35.313  12.007  19.355  0.00  0.00     0.186 A 
HETATM   13  N   UNK N   1      35.315  13.540  17.053  0.00  0.00    -0.174 N 
HETATM   14  C   UNK N   1      35.395  14.135  18.282  0.00  0.00     0.679 A 
HETATM   15  H   UNK N   1      35.340  14.077  16.228  0.00  0.00     0.186 HD
HETATM   16  N   UNK N   1      35.461  15.407  18.367  0.00  0.00    -0.234 N 
HETATM   17  N   UNK N   1      35.409  13.369  19.422  0.00  0.00    -0.168 N 
HETATM   18  H   UNK N   1      35.667  15.968  17.585  0.00  0.00     0.174 HD
ATOM     19  HN  UNK N   1      35.296  15.855  19.269  1.00  0.00     0.174 HD
ATOM     20  HN  UNK N   1      35.493  13.822  20.332  1.00  0.00     0.186 HD
BRANCH  12  21
HETATM   21  O   UNK N   1      35.367  11.261  20.472  0.00  0.00    -0.344 OA
HETATM   22  H   UNK N   1      35.565  10.348  20.417  0.00  0.00     0.219 HD
ENDBRANCH  12  21
ENDBRANCH   4   6
BRANCH   2  23
HETATM   23  O   UNK N   1      37.404  10.596  13.876  0.00  0.00    -0.388 OA
HETATM   24  H   UNK N   1      37.409  10.040  13.081  0.00  0.00     0.210 HD
ENDBRANCH   2  23
BRANCH   3  25
HETATM   25  O   UNK N   1      37.669  12.922  11.997  0.00  0.00    -0.286 OA
BRANCH  25  26
HETATM   26  P   UNK N   1      37.813  12.079  10.454  0.00  0.00     0.391 P 
HETATM   27  O   UNK N   1      37.763  10.566  10.777  0.00  0.00    -0.632 OA
BRANCH  26  28
HETATM   28  O   UNK N   1      39.312  12.331   9.603  0.00  0.00    -0.307 OA
HETATM   29  H   UNK N   1      39.832  12.570   8.821  0.00  0.00     0.222 HD
ENDBRANCH  26  28
BRANCH  26  30
HETATM   30  O   UNK N   1      36.459  12.387   9.414  0.00  0.00    -0.307 OA
HETATM   31  H   UNK N   1      36.211  11.749   8.727  0.00  0.00     0.222 HD
ENDBRANCH  26  30
ENDBRANCH  25  26
ENDBRANCH   3  25
BRANCH   1  32
HETATM   32  C   UNK N   1      34.850  14.344  12.103  0.00  0.00     0.215 C 
BRANCH  32  33
HETATM   33  O   UNK N   1      35.033  15.730  12.095  0.00  0.00    -0.294 OA
BRANCH  33  34
HETATM   34  P   UNK N   1      35.704  16.021  10.516  0.00  0.00     0.401 P 
HETATM   35  O   UNK N   1      35.545  17.535  10.200  0.00  0.00    -0.631 OA
BRANCH  34  36
HETATM   36  O   UNK N   1      37.408  15.702  10.570  0.00  0.00    -0.307 OA
HETATM   37  H   UNK N   1      38.037  16.439  10.621  0.00  0.00     0.222 HD
ENDBRANCH  34  36
BRANCH  34  38
HETATM   38  O   UNK N   1      34.918  15.007   9.313  0.00  0.00    -0.195 OA
BRANCH  38  39
HETATM   39  P   UNK N   1      33.838  15.936   8.294  0.00  0.00     0.399 P 
HETATM   40  O   UNK N   1      33.012  14.997   7.375  0.00  0.00    -0.631 OA
BRANCH  39  41
HETATM   41  O   UNK N   1      34.775  16.934   7.226  0.00  0.00    -0.307 OA
HETATM   42  H   UNK N   1      35.651  17.337   7.125  0.00  0.00     0.222 HD
ENDBRANCH  39  41
BRANCH  39  43
HETATM   43  O   UNK N   1      32.737  16.921   9.206  0.00  0.00    -0.307 OA
HETATM   44  H   UNK N   1      31.919  16.551   9.573  0.00  0.00     0.222 HD
ENDBRANCH  39  43
ENDBRANCH  38  39
ENDBRANCH  34  38
ENDBRANCH  33  34
ENDBRANCH  32  33
ENDBRANCH   1  32
TORSDOF 15
ENDMDL
MODEL 6
REMARK VINA RESULT:      -7.1      4.450      7.288
REMARK  15 active torsions:
REMARK  status: ('A' for Active; 'I' for Inactive)
REMARK    1  A    between atoms: C_3  and  C_1 
REMARK    2  A    between atoms: O_29  and  C_1 
REMARK    3  A    between atoms: C_5  and  O_19 
REMARK    4  A    between atoms: C_6  and  O_31 
REMARK    5  A    between atoms: O_20  and  C_8 
REMARK    6  A    between atoms: C_9  and  N_18 
REMARK       I    between atoms: N_11  and  C_10 
REMARK    7  A    between atoms: P_33  and  O_21 
REMARK    8  A    between atoms: P_33  and  O_22 
REMARK    9  A    between atoms: P_34  and  O_24 
REMARK   10  A    between atoms: P_34  and  O_25 
REMARK   11  A    between atoms: P_35  and  O_27 
REMARK   12  A    between atoms: P_35  and  O_29 
REMARK   13  A    between atoms: P_33  and  O_31 
REMARK   14  A    between atoms: P_34  and  O_32 
REMARK   15  A    between atoms: P_35  and  O_32 
ROOT
HETATM    1  C   UNK N   1      22.586  19.066   4.354  0.00  0.00     0.180 C 
HETATM    2  C   UNK N   1      24.207  20.281   3.302  0.00  0.00     0.199 C 
HETATM    3  C   UNK N   1      22.761  19.918   3.100  0.00  0.00     0.197 C 
HETATM    4  C   UNK N   1      24.701  18.855   3.579  0.00  0.00     0.262 C 
HETATM    5  O   UNK N   1      23.760  18.271   4.472  0.00  0.00    -0.353 OA
ENDROOT
BRANCH   4   6
HETATM    6  N   UNK N   1      26.088  18.702   4.037  0.00  0.00    -0.297 N 
HETATM    7  C   UNK N   1      27.127  19.533   3.758  0.00  0.00     0.188 A 
HETATM    8  N   UNK N   1      28.217  19.241   4.526  0.00  0.00    -0.346 N 
HETATM    9  C   UNK N   1      27.820  18.207   5.289  0.00  0.00     0.130 A 
ATOM     10  HN  UNK N   1      29.127  19.704   4.523  1.00  0.00     0.167 HD
HETATM   11  C   UNK N   1      26.552  17.873   4.984  0.00  0.00     0.157 A 
HETATM   12  C   UNK N   1      28.490  17.534   6.300  0.00  0.00     0.186 A 
HETATM   13  N   UNK N   1      25.895  16.871   5.610  0.00  0.00    -0.174 N 
HETATM   14  C   UNK N   1      26.558  16.163   6.575  0.00  0.00     0.679 A 
HETATM   15  H   UNK N   1      24.963  16.656   5.377  0.00  0.00     0.186 HD
HETATM   16  N   UNK N   1      25.978  15.184   7.154  0.00  0.00    -0.234 N 
HETATM   17  N   UNK N   1      27.841  16.506   6.925  0.00  0.00    -0.168 N 
HETATM   18  H   UNK N   1      25.006  15.046   7.087  0.00  0.00     0.174 HD
ATOM     19  HN  UNK N   1      26.536  14.527   7.700  1.00  0.00     0.174 HD
ATOM     20  HN  UNK N   1      28.317  15.986   7.662  1.00  0.00     0.186 HD
BRANCH  12  21
HETATM   21  O   UNK N   1      29.731  17.888   6.675  0.00  0.00    -0.344 OA
HETATM   22  H   UNK N   1      30.001  18.782   6.616  0.00  0.00     0.219 HD
ENDBRANCH  12  21
ENDBRANCH   4   6
BRANCH   2  23
HETATM   23  O   UNK N   1      24.754  20.852   2.152  0.00  0.00    -0.388 OA
HETATM   24  H   UNK N   1      24.837  21.796   1.947  0.00  0.00     0.210 HD
ENDBRANCH   2  23
BRANCH   3  25
HETATM   25  O   UNK N   1      21.892  21.028   3.041  0.00  0.00    -0.286 OA
BRANCH  25  26
HETATM   26  P   UNK N   1      20.950  20.992   1.550  0.00  0.00     0.391 P 
HETATM   27  O   UNK N   1      21.938  20.616   0.419  0.00  0.00    -0.632 OA
BRANCH  26  28
HETATM   28  O   UNK N   1      20.246  22.513   1.075  0.00  0.00    -0.307 OA
HETATM   29  H   UNK N   1      20.254  23.359   0.602  0.00  0.00     0.222 HD
ENDBRANCH  26  28
BRANCH  26  30
HETATM   30  O   UNK N   1      19.749  19.740   1.567  0.00  0.00    -0.307 OA
HETATM   31  H   UNK N   1      18.847  19.919   1.258  0.00  0.00     0.222 HD
ENDBRANCH  26  30
ENDBRANCH  25  26
ENDBRANCH   3  25
BRANCH   1  32
HETATM   32  C   UNK N   1      21.310  18.228   4.384  0.00  0.00     0.215 C 
BRANCH  32  33
HETATM   33  O   UNK N   1      21.015  17.682   5.636  0.00  0.00    -0.294 OA
BRANCH  33  34
HETATM   34  P   UNK N   1      20.300  16.149   5.228  0.00  0.00     0.401 P 
HETATM   35  O   UNK N   1      20.048  15.371   6.550  0.00  0.00    -0.631 OA
BRANCH  34  36
HETATM   36  O   UNK N   1      18.744  16.434   4.516  0.00  0.00    -0.307 OA
HETATM   37  H   UNK N   1      18.664  17.008   3.739  0.00  0.00     0.222 HD
ENDBRANCH  34  36
BRANCH  34  38
HETATM   38  O   UNK N   1      21.337  15.257   4.121  0.00  0.00    -0.195 OA
BRANCH  38  39
HETATM   39  P   UNK N   1      22.892  14.899   4.844  0.00  0.00     0.399 P 
HETATM   40  O   UNK N   1      22.975  13.403   5.246  0.00  0.00    -0.631 OA
BRANCH  39  41
HETATM   41  O   UNK N   1      23.055  15.793   6.324  0.00  0.00    -0.307 OA
HETATM   42  H   UNK N   1      22.537  16.258   6.999  0.00  0.00     0.222 HD
ENDBRANCH  39  41
BRANCH  39  43
HETATM   43  O   UNK N   1      24.222  15.260   3.789  0.00  0.00    -0.307 OA
HETATM   44  H   UNK N   1      24.741  16.072   3.896  0.00  0.00     0.222 HD
ENDBRANCH  39  43
ENDBRANCH  38  39
ENDBRANCH  34  38
ENDBRANCH  33  34
ENDBRANCH  32  33
ENDBRANCH   1  32
TORSDOF 15
ENDMDL
MODEL 7
REMARK VINA RESULT:      -7.1      8.219     11.269
REMARK  15 active torsions:
REMARK  status: ('A' for Active; 'I' for Inactive)
REMARK    1  A    between atoms: C_3  and  C_1 
REMARK    2  A    between atoms: O_29  and  C_1 
REMARK    3  A    between atoms: C_5  and  O_19 
REMARK    4  A    between atoms: C_6  and  O_31 
REMARK    5  A    between atoms: O_20  and  C_8 
REMARK    6  A    between atoms: C_9  and  N_18 
REMARK       I    between atoms: N_11  and  C_10 
REMARK    7  A    between atoms: P_33  and  O_21 
REMARK    8  A    between atoms: P_33  and  O_22 
REMARK    9  A    between atoms: P_34  and  O_24 
REMARK   10  A    between atoms: P_34  and  O_25 
REMARK   11  A    between atoms: P_35  and  O_27 
REMARK   12  A    between atoms: P_35  and  O_29 
REMARK   13  A    between atoms: P_33  and  O_31 
REMARK   14  A    between atoms: P_34  and  O_32 
REMARK   15  A    between atoms: P_35  and  O_32 
ROOT
HETATM    1  C   UNK N   1      29.303  17.781   5.426  0.00  0.00     0.180 C 
HETATM    2  C   UNK N   1      27.899  19.225   6.501  0.00  0.00     0.199 C 
HETATM    3  C   UNK N   1      28.805  18.072   6.840  0.00  0.00     0.197 C 
HETATM    4  C   UNK N   1      27.170  18.530   5.343  0.00  0.00     0.262 C 
HETATM    5  O   UNK N   1      28.173  17.884   4.568  0.00  0.00    -0.353 OA
ENDROOT
BRANCH   4   6
HETATM    6  N   UNK N   1      26.267  19.354   4.529  0.00  0.00    -0.297 N 
HETATM    7  C   UNK N   1      26.627  20.210   3.536  0.00  0.00     0.188 A 
HETATM    8  N   UNK N   1      25.541  20.634   2.826  0.00  0.00    -0.346 N 
HETATM    9  C   UNK N   1      24.500  20.014   3.408  0.00  0.00     0.130 A 
ATOM     10  HN  UNK N   1      25.524  21.276   2.033  1.00  0.00     0.167 HD
HETATM   11  C   UNK N   1      24.931  19.261   4.438  0.00  0.00     0.157 A 
HETATM   12  C   UNK N   1      23.154  20.019   3.071  0.00  0.00     0.186 A 
HETATM   13  N   UNK N   1      24.094  18.517   5.195  0.00  0.00    -0.174 N 
HETATM   14  C   UNK N   1      22.757  18.550   4.908  0.00  0.00     0.679 A 
HETATM   15  H   UNK N   1      24.438  17.966   5.934  0.00  0.00     0.186 HD
HETATM   16  N   UNK N   1      21.937  17.891   5.631  0.00  0.00    -0.234 N 
HETATM   17  N   UNK N   1      22.297  19.285   3.842  0.00  0.00    -0.168 N 
HETATM   18  H   UNK N   1      22.242  17.196   6.256  0.00  0.00     0.174 HD
ATOM     19  HN  UNK N   1      20.939  18.090   5.559  1.00  0.00     0.174 HD
ATOM     20  HN  UNK N   1      21.301  19.283   3.623  1.00  0.00     0.186 HD
BRANCH  12  21
HETATM   21  O   UNK N   1      22.702  20.704   2.007  0.00  0.00    -0.344 OA
HETATM   22  H   UNK N   1      23.296  20.975   1.336  0.00  0.00     0.219 HD
ENDBRANCH  12  21
ENDBRANCH   4   6
BRANCH   2  23
HETATM   23  O   UNK N   1      27.068  19.550   7.574  0.00  0.00    -0.388 OA
HETATM   24  H   UNK N   1      26.308  20.152   7.567  0.00  0.00     0.210 HD
ENDBRANCH   2  23
BRANCH   3  25
HETATM   25  O   UNK N   1      29.834  18.398   7.749  0.00  0.00    -0.286 OA
BRANCH  25  26
HETATM   26  P   UNK N   1      29.433  17.813   9.364  0.00  0.00     0.391 P 
HETATM   27  O   UNK N   1      29.707  18.987  10.334  0.00  0.00    -0.632 OA
BRANCH  26  28
HETATM   28  O   UNK N   1      30.405  16.487   9.941  0.00  0.00    -0.307 OA
HETATM   29  H   UNK N   1      31.186  15.914   9.917  0.00  0.00     0.222 HD
ENDBRANCH  26  28
BRANCH  26  30
HETATM   30  O   UNK N   1      27.744  17.448   9.525  0.00  0.00    -0.307 OA
HETATM   31  H   UNK N   1      27.075  18.036   9.140  0.00  0.00     0.222 HD
ENDBRANCH  26  30
ENDBRANCH  25  26
ENDBRANCH   3  25
BRANCH   1  32
HETATM   32  C   UNK N   1      30.035  16.451   5.268  0.00  0.00     0.215 C 
BRANCH  32  33
HETATM   33  O   UNK N   1      31.416  16.577   5.091  0.00  0.00    -0.294 OA
BRANCH  33  34
HETATM   34  P   UNK N   1      32.053  15.376   6.177  0.00  0.00     0.401 P 
HETATM   35  O   UNK N   1      31.069  14.173   6.192  0.00  0.00    -0.631 OA
BRANCH  34  36
HETATM   36  O   UNK N   1      33.551  14.783   5.532  0.00  0.00    -0.307 OA
HETATM   37  H   UNK N   1      34.007  14.045   5.965  0.00  0.00     0.222 HD
ENDBRANCH  34  36
BRANCH  34  38
HETATM   38  O   UNK N   1      32.292  16.057   7.782  0.00  0.00    -0.195 OA
BRANCH  38  39
HETATM   39  P   UNK N   1      33.925  16.656   7.989  0.00  0.00     0.399 P 
HETATM   40  O   UNK N   1      34.934  15.478   8.057  0.00  0.00    -0.631 OA
BRANCH  39  41
HETATM   41  O   UNK N   1      34.048  17.467   9.519  0.00  0.00    -0.307 OA
HETATM   42  H   UNK N   1      34.351  17.340  10.432  0.00  0.00     0.222 HD
ENDBRANCH  39  41
BRANCH  39  43
HETATM   43  O   UNK N   1      34.414  17.727   6.714  0.00  0.00    -0.307 OA
HETATM   44  H   UNK N   1      34.100  18.644   6.681  0.00  0.00     0.222 HD
ENDBRANCH  39  43
ENDBRANCH  38  39
ENDBRANCH  34  38
ENDBRANCH  33  34
ENDBRANCH  32  33
ENDBRANCH   1  32
TORSDOF 15
ENDMDL
MODEL 8
REMARK VINA RESULT:      -6.9     10.447     14.341
REMARK  15 active torsions:
REMARK  status: ('A' for Active; 'I' for Inactive)
REMARK    1  A    between atoms: C_3  and  C_1 
REMARK    2  A    between atoms: O_29  and  C_1 
REMARK    3  A    between atoms: C_5  and  O_19 
REMARK    4  A    between atoms: C_6  and  O_31 
REMARK    5  A    between atoms: O_20  and  C_8 
REMARK    6  A    between atoms: C_9  and  N_18 
REMARK       I    between atoms: N_11  and  C_10 
REMARK    7  A    between atoms: P_33  and  O_21 
REMARK    8  A    between atoms: P_33  and  O_22 
REMARK    9  A    between atoms: P_34  and  O_24 
REMARK   10  A    between atoms: P_34  and  O_25 
REMARK   11  A    between atoms: P_35  and  O_27 
REMARK   12  A    between atoms: P_35  and  O_29 
REMARK   13  A    between atoms: P_33  and  O_31 
REMARK   14  A    between atoms: P_34  and  O_32 
REMARK   15  A    between atoms: P_35  and  O_32 
ROOT
HETATM    1  C   UNK N   1      33.498  14.592   7.206  0.00  0.00     0.180 C 
HETATM    2  C   UNK N   1      33.297  16.854   7.446  0.00  0.00     0.199 C 
HETATM    3  C   UNK N   1      33.856  15.685   8.211  0.00  0.00     0.197 C 
HETATM    4  C   UNK N   1      31.930  16.222   7.150  0.00  0.00     0.262 C 
HETATM    5  O   UNK N   1      32.187  14.885   6.738  0.00  0.00    -0.353 OA
ENDROOT
BRANCH   4   6
HETATM    6  N   UNK N   1      31.045  16.941   6.224  0.00  0.00    -0.297 N 
HETATM    7  C   UNK N   1      31.118  16.934   4.867  0.00  0.00     0.188 A 
HETATM    8  N   UNK N   1      30.012  17.506   4.306  0.00  0.00    -0.346 N 
HETATM    9  C   UNK N   1      29.254  17.865   5.358  0.00  0.00     0.130 A 
ATOM     10  HN  UNK N   1      29.807  17.633   3.315  1.00  0.00     0.167 HD
HETATM   11  C   UNK N   1      29.879  17.543   6.506  0.00  0.00     0.157 A 
HETATM   12  C   UNK N   1      27.989  18.434   5.394  0.00  0.00     0.186 A 
HETATM   13  N   UNK N   1      29.335  17.779   7.720  0.00  0.00    -0.174 N 
HETATM   14  C   UNK N   1      28.111  18.386   7.776  0.00  0.00     0.679 A 
HETATM   15  H   UNK N   1      29.809  17.521   8.544  0.00  0.00     0.186 HD
HETATM   16  N   UNK N   1      27.590  18.661   8.909  0.00  0.00    -0.234 N 
HETATM   17  N   UNK N   1      27.439  18.696   6.618  0.00  0.00    -0.168 N 
HETATM   18  H   UNK N   1      27.933  18.269   9.744  0.00  0.00     0.174 HD
ATOM     19  HN  UNK N   1      26.798  19.303   8.950  1.00  0.00     0.174 HD
ATOM     20  HN  UNK N   1      26.516  19.127   6.672  1.00  0.00     0.186 HD
BRANCH  12  21
HETATM   21  O   UNK N   1      27.310  18.704   4.267  0.00  0.00    -0.344 OA
HETATM   22  H   UNK N   1      26.743  19.448   4.227  0.00  0.00     0.219 HD
ENDBRANCH  12  21
ENDBRANCH   4   6
BRANCH   2  23
HETATM   23  O   UNK N   1      33.227  17.996   8.244  0.00  0.00    -0.388 OA
HETATM   24  H   UNK N   1      33.638  18.133   9.111  0.00  0.00     0.210 HD
ENDBRANCH   2  23
BRANCH   3  25
HETATM   25  O   UNK N   1      35.238  15.780   8.478  0.00  0.00    -0.286 OA
BRANCH  25  26
HETATM   26  P   UNK N   1      35.512  16.077  10.195  0.00  0.00     0.391 P 
HETATM   27  O   UNK N   1      35.410  17.608  10.395  0.00  0.00    -0.632 OA
BRANCH  26  28
HETATM   28  O   UNK N   1      37.087  15.627  10.789  0.00  0.00    -0.307 OA
HETATM   29  H   UNK N   1      38.029  15.789  10.948  0.00  0.00     0.222 HD
ENDBRANCH  26  28
BRANCH  26  30
HETATM   30  O   UNK N   1      34.264  15.385  11.183  0.00  0.00    -0.307 OA
HETATM   31  H   UNK N   1      34.402  14.532  11.623  0.00  0.00     0.222 HD
ENDBRANCH  26  30
ENDBRANCH  25  26
ENDBRANCH   3  25
BRANCH   1  32
HETATM   32  C   UNK N   1      33.621  13.168   7.740  0.00  0.00     0.215 C 
BRANCH  32  33
HETATM   33  O   UNK N   1      33.330  13.042   9.102  0.00  0.00    -0.294 OA
BRANCH  33  34
HETATM   34  P   UNK N   1      34.521  11.895   9.645  0.00  0.00     0.401 P 
HETATM   35  O   UNK N   1      33.817  10.892  10.602  0.00  0.00    -0.631 OA
BRANCH  34  36
HETATM   36  O   UNK N   1      35.068  10.974   8.279  0.00  0.00    -0.307 OA
HETATM   37  H   UNK N   1      34.487  10.854   7.512  0.00  0.00     0.222 HD
ENDBRANCH  34  36
BRANCH  34  38
HETATM   38  O   UNK N   1      35.867  12.719  10.420  0.00  0.00    -0.195 OA
BRANCH  38  39
HETATM   39  P   UNK N   1      35.885  12.436  12.149  0.00  0.00     0.399 P 
HETATM   40  O   UNK N   1      37.030  13.240  12.821  0.00  0.00    -0.631 OA
BRANCH  39  41
HETATM   41  O   UNK N   1      36.243  10.765  12.452  0.00  0.00    -0.307 OA
HETATM   42  H   UNK N   1      36.520  10.156  13.154  0.00  0.00     0.222 HD
ENDBRANCH  39  41
BRANCH  39  43
HETATM   43  O   UNK N   1      34.388  12.866  12.915  0.00  0.00    -0.307 OA
HETATM   44  H   UNK N   1      34.053  12.367  13.676  0.00  0.00     0.222 HD
ENDBRANCH  39  43
ENDBRANCH  38  39
ENDBRANCH  34  38
ENDBRANCH  33  34
ENDBRANCH  32  33
ENDBRANCH   1  32
TORSDOF 15
ENDMDL
MODEL 9
REMARK VINA RESULT:      -6.7     10.491     13.289
REMARK  15 active torsions:
REMARK  status: ('A' for Active; 'I' for Inactive)
REMARK    1  A    between atoms: C_3  and  C_1 
REMARK    2  A    between atoms: O_29  and  C_1 
REMARK    3  A    between atoms: C_5  and  O_19 
REMARK    4  A    between atoms: C_6  and  O_31 
REMARK    5  A    between atoms: O_20  and  C_8 
REMARK    6  A    between atoms: C_9  and  N_18 
REMARK       I    between atoms: N_11  and  C_10 
REMARK    7  A    between atoms: P_33  and  O_21 
REMARK    8  A    between atoms: P_33  and  O_22 
REMARK    9  A    between atoms: P_34  and  O_24 
REMARK   10  A    between atoms: P_34  and  O_25 
REMARK   11  A    between atoms: P_35  and  O_27 
REMARK   12  A    between atoms: P_35  and  O_29 
REMARK   13  A    between atoms: P_33  and  O_31 
REMARK   14  A    between atoms: P_34  and  O_32 
REMARK   15  A    between atoms: P_35  and  O_32 
ROOT
HETATM    1  C   UNK N   1      33.209  13.821   8.148  0.00  0.00     0.180 C 
HETATM    2  C   UNK N   1      32.890  14.261   5.931  0.00  0.00     0.199 C 
HETATM    3  C   UNK N   1      34.035  14.063   6.886  0.00  0.00     0.197 C 
HETATM    4  C   UNK N   1      32.124  15.272   6.794  0.00  0.00     0.262 C 
HETATM    5  O   UNK N   1      32.143  14.762   8.121  0.00  0.00    -0.353 OA
ENDROOT
BRANCH   4   6
HETATM    6  N   UNK N   1      30.776  15.649   6.350  0.00  0.00    -0.297 N 
HETATM    7  C   UNK N   1      30.080  15.095   5.322  0.00  0.00     0.188 A 
HETATM    8  N   UNK N   1      28.777  15.504   5.326  0.00  0.00    -0.346 N 
HETATM    9  C   UNK N   1      28.689  16.325   6.387  0.00  0.00     0.130 A 
ATOM     10  HN  UNK N   1      28.038  15.245   4.671  1.00  0.00     0.167 HD
HETATM   11  C   UNK N   1      29.889  16.426   6.990  0.00  0.00     0.157 A 
HETATM   12  C   UNK N   1      27.590  16.986   6.917  0.00  0.00     0.186 A 
HETATM   13  N   UNK N   1      30.085  17.180   8.095  0.00  0.00    -0.174 N 
HETATM   14  C   UNK N   1      29.024  17.878   8.601  0.00  0.00     0.679 A 
HETATM   15  H   UNK N   1      30.970  17.225   8.523  0.00  0.00     0.186 HD
HETATM   16  N   UNK N   1      29.188  18.632   9.619  0.00  0.00    -0.234 N 
HETATM   17  N   UNK N   1      27.783  17.767   8.022  0.00  0.00    -0.168 N 
HETATM   18  H   UNK N   1      29.993  18.573  10.181  0.00  0.00     0.174 HD
ATOM     19  HN  UNK N   1      28.466  19.314   9.855  1.00  0.00     0.174 HD
ATOM     20  HN  UNK N   1      26.994  18.274   8.422  1.00  0.00     0.186 HD
BRANCH  12  21
HETATM   21  O   UNK N   1      26.366  16.851   6.379  0.00  0.00    -0.344 OA
HETATM   22  H   UNK N   1      25.684  17.449   6.610  0.00  0.00     0.219 HD
ENDBRANCH  12  21
ENDBRANCH   4   6
BRANCH   2  23
HETATM   23  O   UNK N   1      33.329  14.781   4.712  0.00  0.00    -0.388 OA
HETATM   24  H   UNK N   1      34.140  15.284   4.547  0.00  0.00     0.210 HD
ENDBRANCH   2  23
BRANCH   3  25
HETATM   25  O   UNK N   1      34.886  12.989   6.549  0.00  0.00    -0.286 OA
BRANCH  25  26
HETATM   26  P   UNK N   1      36.567  13.523   6.523  0.00  0.00     0.391 P 
HETATM   27  O   UNK N   1      37.381  12.371   5.887  0.00  0.00    -0.632 OA
BRANCH  26  28
HETATM   28  O   UNK N   1      37.286  13.803   8.085  0.00  0.00    -0.307 OA
HETATM   29  H   UNK N   1      37.907  13.597   8.800  0.00  0.00     0.222 HD
ENDBRANCH  26  28
BRANCH  26  30
HETATM   30  O   UNK N   1      36.799  14.896   5.487  0.00  0.00    -0.307 OA
HETATM   31  H   UNK N   1      36.982  14.774   4.542  0.00  0.00     0.222 HD
ENDBRANCH  26  30
ENDBRANCH  25  26
ENDBRANCH   3  25
BRANCH   1  32
HETATM   32  C   UNK N   1      34.003  13.877   9.450  0.00  0.00     0.215 C 
BRANCH  32  33
HETATM   33  O   UNK N   1      33.729  14.997  10.239  0.00  0.00    -0.294 OA
BRANCH  33  34
HETATM   34  P   UNK N   1      35.232  15.872  10.201  0.00  0.00     0.401 P 
HETATM   35  O   UNK N   1      35.149  17.012  11.254  0.00  0.00    -0.631 OA
BRANCH  34  36
HETATM   36  O   UNK N   1      36.505  14.812  10.718  0.00  0.00    -0.307 OA
HETATM   37  H   UNK N   1      37.247  14.620  10.124  0.00  0.00     0.222 HD
ENDBRANCH  34  36
BRANCH  34  38
HETATM   38  O   UNK N   1      35.551  16.486   8.584  0.00  0.00    -0.195 OA
BRANCH  38  39
HETATM   39  P   UNK N   1      34.512  17.841   8.193  0.00  0.00     0.399 P 
HETATM   40  O   UNK N   1      34.288  17.933   6.661  0.00  0.00    -0.631 OA
BRANCH  39  41
HETATM   41  O   UNK N   1      35.304  19.319   8.642  0.00  0.00    -0.307 OA
HETATM   42  H   UNK N   1      35.841  20.041   8.280  0.00  0.00     0.222 HD
ENDBRANCH  39  41
BRANCH  39  43
HETATM   43  O   UNK N   1      32.963  17.744   8.970  0.00  0.00    -0.307 OA
HETATM   44  H   UNK N   1      32.191  18.208   8.609  0.00  0.00     0.222 HD
ENDBRANCH  39  43
ENDBRANCH  38  39
ENDBRANCH  34  38
ENDBRANCH  33  34
ENDBRANCH  32  33
ENDBRANCH   1  32
TORSDOF 15
ENDMDL
