MODEL 1
REMARK VINA RESULT:      -7.7      0.000      0.000
REMARK  11 active torsions:
REMARK  status: ('A' for Active; 'I' for Inactive)
REMARK    1  A    between atoms: C_2  and  C_3 
REMARK    2  A    between atoms: C_3  and  C_5 
REMARK    3  A    between atoms: C_6  and  O_7 
REMARK    4  A    between atoms: C_9  and  O_10 
REMARK    5  A    between atoms: C_14  and  C_18 
REMARK    6  A    between atoms: C_18  and  O_19 
REMARK    7  A    between atoms: C_18  and  C_21 
REMARK    8  A    between atoms: C_21  and  C_23 
REMARK    9  A    between atoms: C_23  and  O_24 
REMARK   10  A    between atoms: C_23  and  C_25 
REMARK   11  A    between atoms: C_25  and  O_27 
ROOT
HETATM    1  C   UNK N   1      27.515  18.904   4.786  0.00  0.00    -0.020 A 
HETATM    2  C   UNK N   1      28.612  18.019   4.587  0.00  0.00     0.086 A 
HETATM    3  C   UNK N   1      29.391  17.589   5.696  0.00  0.00     0.042 A 
HETATM    4  C   UNK N   1      30.435  16.636   5.566  0.00  0.00     0.093 A 
HETATM    5  C   UNK N   1      31.113  16.165   6.714  0.00  0.00     0.050 A 
HETATM    6  C   UNK N   1      30.789  16.691   7.984  0.00  0.00    -0.040 A 
HETATM    7  C   UNK N   1      31.480  16.227   9.244  0.00  0.00     0.047 C 
HETATM    8  C   UNK N   1      32.723  15.344   9.032  0.00  0.00     0.033 C 
HETATM    9  C   UNK N   1      32.499  14.356   7.893  0.00  0.00     0.092 C 
HETATM   10  C   UNK N   1      32.123  15.079   6.638  0.00  0.00     0.163 C 
HETATM   11  O   UNK N   1      32.590  14.712   5.570  0.00  0.00    -0.292 OA
HETATM   12  C   UNK N   1      29.786  17.649   8.102  0.00  0.00     0.020 A 
HETATM   13  C   UNK N   1      29.080  18.086   6.985  0.00  0.00    -0.020 A 
HETATM   14  C   UNK N   1      28.033  18.982   7.162  0.00  0.00     0.013 A 
HETATM   15  C   UNK N   1      27.251  19.371   6.080  0.00  0.00     0.011 A 
ENDROOT
BRANCH   8  16
HETATM   16  C   UNK N   1      34.013  16.167   8.825  0.00  0.00     0.197 C 
BRANCH  16  17
HETATM   17  O   UNK N   1      33.915  17.542   9.161  0.00  0.00    -0.383 OA
HETATM   18  C   UNK N   1      34.332  18.341   8.082  0.00  0.00     0.202 C 
ENDBRANCH  16  17
BRANCH  16  19
HETATM   19  C   UNK N   1      35.243  15.492   9.391  0.00  0.00     0.186 C 
HETATM   20  O   UNK N   1      35.860  14.717   8.675  0.00  0.00    -0.292 OA
BRANCH  19  21
HETATM   21  C   UNK N   1      35.657  15.686  10.834  0.00  0.00     0.218 C 
BRANCH  21  22
HETATM   22  O   UNK N   1      36.983  16.122  10.883  0.00  0.00    -0.385 OA
HETATM   23  H   UNK N   1      37.326  16.852  10.344  0.00  0.00     0.210 HD
ENDBRANCH  21  22
BRANCH  21  24
HETATM   24  C   UNK N   1      35.502  14.421  11.686  0.00  0.00     0.150 C 
HETATM   25  C   UNK N   1      36.154  14.609  13.044  0.00  0.00     0.042 C 
BRANCH  24  26
HETATM   26  O   UNK N   1      34.148  14.140  11.877  0.00  0.00    -0.393 OA
HETATM   27  H   UNK N   1      33.435  14.796  11.830  0.00  0.00     0.210 HD
ENDBRANCH  24  26
ENDBRANCH  21  24
ENDBRANCH  19  21
ENDBRANCH  16  19
ENDBRANCH   8  16
BRANCH   4  28
HETATM   28  O   UNK N   1      30.748  16.131   4.356  0.00  0.00    -0.359 OA
HETATM   29  H   UNK N   1      31.623  15.877   4.135  0.00  0.00     0.217 HD
ENDBRANCH   4  28
BRANCH   2  30
HETATM   30  O   UNK N   1      28.883  17.544   3.357  0.00  0.00    -0.359 OA
HETATM   31  H   UNK N   1      28.517  16.741   3.043  0.00  0.00     0.217 HD
ENDBRANCH   2  30
BRANCH   1  32
HETATM   32  C   UNK N   1      26.543  19.319   3.681  0.00  0.00     0.017 C 
HETATM   33  C   UNK N   1      26.610  20.756   3.190  0.00  0.00     0.015 C 
BRANCH  32  34
HETATM   34  C   UNK N   1      25.096  18.942   3.949  0.00  0.00     0.004 C 
HETATM   35  C   UNK N   1      24.184  19.991   3.338  0.00  0.00     0.006 C 
ENDBRANCH  32  34
ENDBRANCH   1  32
TORSDOF 11
ENDMDL
MODEL 2
REMARK VINA RESULT:      -7.3      3.892     10.400
REMARK  11 active torsions:
REMARK  status: ('A' for Active; 'I' for Inactive)
REMARK    1  A    between atoms: C_2  and  C_3 
REMARK    2  A    between atoms: C_3  and  C_5 
REMARK    3  A    between atoms: C_6  and  O_7 
REMARK    4  A    between atoms: C_9  and  O_10 
REMARK    5  A    between atoms: C_14  and  C_18 
REMARK    6  A    between atoms: C_18  and  O_19 
REMARK    7  A    between atoms: C_18  and  C_21 
REMARK    8  A    between atoms: C_21  and  C_23 
REMARK    9  A    between atoms: C_23  and  O_24 
REMARK   10  A    between atoms: C_23  and  C_25 
REMARK   11  A    between atoms: C_25  and  O_27 
ROOT
HETATM    1  C   UNK N   1      35.342  12.737  15.797  0.00  0.00    -0.020 A 
HETATM    2  C   UNK N   1      34.797  12.223  14.587  0.00  0.00     0.086 A 
HETATM    3  C   UNK N   1      35.230  12.739  13.335  0.00  0.00     0.042 A 
HETATM    4  C   UNK N   1      34.788  12.198  12.098  0.00  0.00     0.093 A 
HETATM    5  C   UNK N   1      35.326  12.678  10.881  0.00  0.00     0.050 A 
HETATM    6  C   UNK N   1      36.258  13.739  10.898  0.00  0.00    -0.040 A 
HETATM    7  C   UNK N   1      36.864  14.293   9.630  0.00  0.00     0.047 C 
HETATM    8  C   UNK N   1      36.217  13.811   8.320  0.00  0.00     0.033 C 
HETATM    9  C   UNK N   1      35.871  12.327   8.399  0.00  0.00     0.092 C 
HETATM   10  C   UNK N   1      34.986  12.058   9.576  0.00  0.00     0.163 C 
HETATM   11  O   UNK N   1      34.056  11.275   9.461  0.00  0.00    -0.292 OA
HETATM   12  C   UNK N   1      36.664  14.287  12.111  0.00  0.00     0.020 A 
HETATM   13  C   UNK N   1      36.178  13.790  13.318  0.00  0.00    -0.020 A 
HETATM   14  C   UNK N   1      36.672  14.313  14.506  0.00  0.00     0.013 A 
HETATM   15  C   UNK N   1      36.274  13.781  15.727  0.00  0.00     0.011 A 
ENDROOT
BRANCH   8  16
HETATM   16  C   UNK N   1      34.993  14.658   7.910  0.00  0.00     0.197 C 
BRANCH  16  17
HETATM   17  O   UNK N   1      34.628  15.677   8.826  0.00  0.00    -0.383 OA
HETATM   18  C   UNK N   1      33.351  15.426   9.355  0.00  0.00     0.202 C 
ENDBRANCH  16  17
BRANCH  16  19
HETATM   19  C   UNK N   1      35.055  15.129   6.473  0.00  0.00     0.186 C 
HETATM   20  O   UNK N   1      36.153  15.262   5.953  0.00  0.00    -0.292 OA
BRANCH  19  21
HETATM   21  C   UNK N   1      33.804  15.523   5.716  0.00  0.00     0.218 C 
BRANCH  21  22
HETATM   22  O   UNK N   1      33.906  15.091   4.392  0.00  0.00    -0.385 OA
HETATM   23  H   UNK N   1      34.082  14.170   4.143  0.00  0.00     0.210 HD
ENDBRANCH  21  22
BRANCH  21  24
HETATM   24  C   UNK N   1      33.526  17.030   5.743  0.00  0.00     0.150 C 
HETATM   25  C   UNK N   1      32.177  17.313   6.377  0.00  0.00     0.042 C 
BRANCH  24  26
HETATM   26  O   UNK N   1      34.513  17.682   6.484  0.00  0.00    -0.393 OA
HETATM   27  H   UNK N   1      34.721  17.495   7.413  0.00  0.00     0.210 HD
ENDBRANCH  24  26
ENDBRANCH  21  24
ENDBRANCH  19  21
ENDBRANCH  16  19
ENDBRANCH   8  16
BRANCH   4  28
HETATM   28  O   UNK N   1      33.898  11.185  12.077  0.00  0.00    -0.359 OA
HETATM   29  H   UNK N   1      34.006  10.419  12.605  0.00  0.00     0.217 HD
ENDBRANCH   4  28
BRANCH   2  30
HETATM   30  O   UNK N   1      33.910  11.212  14.621  0.00  0.00    -0.359 OA
HETATM   31  H   UNK N   1      33.599  10.796  13.841  0.00  0.00     0.217 HD
ENDBRANCH   2  30
BRANCH   1  32
HETATM   32  C   UNK N   1      35.038  12.163  17.181  0.00  0.00     0.017 C 
HETATM   33  C   UNK N   1      35.142  13.103  18.370  0.00  0.00     0.015 C 
BRANCH  32  34
HETATM   34  C   UNK N   1      35.771  10.868  17.494  0.00  0.00     0.004 C 
HETATM   35  C   UNK N   1      34.760   9.742  17.626  0.00  0.00     0.006 C 
ENDBRANCH  32  34
ENDBRANCH   1  32
TORSDOF 11
ENDMDL
MODEL 3
REMARK VINA RESULT:      -7.3      1.983      3.182
REMARK  11 active torsions:
REMARK  status: ('A' for Active; 'I' for Inactive)
REMARK    1  A    between atoms: C_2  and  C_3 
REMARK    2  A    between atoms: C_3  and  C_5 
REMARK    3  A    between atoms: C_6  and  O_7 
REMARK    4  A    between atoms: C_9  and  O_10 
REMARK    5  A    between atoms: C_14  and  C_18 
REMARK    6  A    between atoms: C_18  and  O_19 
REMARK    7  A    between atoms: C_18  and  C_21 
REMARK    8  A    between atoms: C_21  and  C_23 
REMARK    9  A    between atoms: C_23  and  O_24 
REMARK   10  A    between atoms: C_23  and  C_25 
REMARK   11  A    between atoms: C_25  and  O_27 
ROOT
HETATM    1  C   UNK N   1      27.093  16.413   4.075  0.00  0.00    -0.020 A 
HETATM    2  C   UNK N   1      27.587  16.676   5.384  0.00  0.00     0.086 A 
HETATM    3  C   UNK N   1      28.985  16.804   5.606  0.00  0.00     0.042 A 
HETATM    4  C   UNK N   1      29.522  17.158   6.872  0.00  0.00     0.093 A 
HETATM    5  C   UNK N   1      30.913  17.372   7.018  0.00  0.00     0.050 A 
HETATM    6  C   UNK N   1      31.771  17.172   5.915  0.00  0.00    -0.040 A 
HETATM    7  C   UNK N   1      33.264  17.385   6.012  0.00  0.00     0.047 C 
HETATM    8  C   UNK N   1      33.815  17.578   7.436  0.00  0.00     0.033 C 
HETATM    9  C   UNK N   1      32.878  18.449   8.267  0.00  0.00     0.092 C 
HETATM   10  C   UNK N   1      31.501  17.863   8.290  0.00  0.00     0.163 C 
HETATM   11  O   UNK N   1      30.860  17.875   9.330  0.00  0.00    -0.292 OA
HETATM   12  C   UNK N   1      31.243  16.795   4.684  0.00  0.00     0.020 A 
HETATM   13  C   UNK N   1      29.871  16.627   4.516  0.00  0.00    -0.020 A 
HETATM   14  C   UNK N   1      29.381  16.329   3.251  0.00  0.00     0.013 A 
HETATM   15  C   UNK N   1      28.011  16.242   3.031  0.00  0.00     0.011 A 
ENDROOT
BRANCH   8  16
HETATM   16  C   UNK N   1      34.125  16.242   8.143  0.00  0.00     0.197 C 
BRANCH  16  17
HETATM   17  O   UNK N   1      34.822  15.288   7.358  0.00  0.00    -0.383 OA
HETATM   18  C   UNK N   1      34.052  14.123   7.205  0.00  0.00     0.202 C 
ENDBRANCH  16  17
BRANCH  16  19
HETATM   19  C   UNK N   1      34.706  16.427   9.528  0.00  0.00     0.186 C 
HETATM   20  O   UNK N   1      35.218  17.501   9.803  0.00  0.00    -0.292 OA
BRANCH  19  21
HETATM   21  C   UNK N   1      34.745  15.289  10.528  0.00  0.00     0.218 C 
BRANCH  21  22
HETATM   22  O   UNK N   1      33.485  15.137  11.109  0.00  0.00    -0.385 OA
HETATM   23  H   UNK N   1      32.845  15.861  11.195  0.00  0.00     0.210 HD
ENDBRANCH  21  22
BRANCH  21  24
HETATM   24  C   UNK N   1      35.796  15.482  11.626  0.00  0.00     0.150 C 
HETATM   25  C   UNK N   1      36.000  14.193  12.402  0.00  0.00     0.042 C 
BRANCH  24  26
HETATM   26  O   UNK N   1      37.014  15.859  11.058  0.00  0.00    -0.393 OA
HETATM   27  H   UNK N   1      37.394  15.468  10.256  0.00  0.00     0.210 HD
ENDBRANCH  24  26
ENDBRANCH  21  24
ENDBRANCH  19  21
ENDBRANCH  16  19
ENDBRANCH   8  16
BRANCH   4  28
HETATM   28  O   UNK N   1      28.707  17.349   7.929  0.00  0.00    -0.359 OA
HETATM   29  H   UNK N   1      28.956  17.882   8.658  0.00  0.00     0.217 HD
ENDBRANCH   4  28
BRANCH   2  30
HETATM   30  O   UNK N   1      26.729  16.857   6.406  0.00  0.00    -0.359 OA
HETATM   31  H   UNK N   1      26.974  17.318   7.184  0.00  0.00     0.217 HD
ENDBRANCH   2  30
BRANCH   1  32
HETATM   32  C   UNK N   1      25.608  16.387   3.712  0.00  0.00     0.017 C 
HETATM   33  C   UNK N   1      25.172  15.440   2.606  0.00  0.00     0.015 C 
BRANCH  32  34
HETATM   34  C   UNK N   1      25.000  17.759   3.474  0.00  0.00     0.004 C 
HETATM   35  C   UNK N   1      23.971  18.043   4.554  0.00  0.00     0.006 C 
ENDBRANCH  32  34
ENDBRANCH   1  32
TORSDOF 11
ENDMDL
MODEL 4
REMARK VINA RESULT:      -7.1      4.658     11.567
REMARK  11 active torsions:
REMARK  status: ('A' for Active; 'I' for Inactive)
REMARK    1  A    between atoms: C_2  and  C_3 
REMARK    2  A    between atoms: C_3  and  C_5 
REMARK    3  A    between atoms: C_6  and  O_7 
REMARK    4  A    between atoms: C_9  and  O_10 
REMARK    5  A    between atoms: C_14  and  C_18 
REMARK    6  A    between atoms: C_18  and  O_19 
REMARK    7  A    between atoms: C_18  and  C_21 
REMARK    8  A    between atoms: C_21  and  C_23 
REMARK    9  A    between atoms: C_23  and  O_24 
REMARK   10  A    between atoms: C_23  and  C_25 
REMARK   11  A    between atoms: C_25  and  O_27 
ROOT
HETATM    1  C   UNK N   1      35.776  10.957  16.974  0.00  0.00    -0.020 A 
HETATM    2  C   UNK N   1      36.229  10.682  15.653  0.00  0.00     0.086 A 
HETATM    3  C   UNK N   1      36.238  11.713  14.673  0.00  0.00     0.042 A 
HETATM    4  C   UNK N   1      36.766  11.516  13.370  0.00  0.00     0.093 A 
HETATM    5  C   UNK N   1      36.845  12.600  12.465  0.00  0.00     0.050 A 
HETATM    6  C   UNK N   1      36.340  13.864  12.841  0.00  0.00    -0.040 A 
HETATM    7  C   UNK N   1      36.396  15.057  11.916  0.00  0.00     0.047 C 
HETATM    8  C   UNK N   1      36.797  14.750  10.462  0.00  0.00     0.033 C 
HETATM    9  C   UNK N   1      37.912  13.711  10.414  0.00  0.00     0.092 C 
HETATM   10  C   UNK N   1      37.502  12.469  11.140  0.00  0.00     0.163 C 
HETATM   11  O   UNK N   1      37.787  11.377  10.671  0.00  0.00    -0.292 OA
HETATM   12  C   UNK N   1      35.794  14.044  14.109  0.00  0.00     0.020 A 
HETATM   13  C   UNK N   1      35.754  12.996  15.025  0.00  0.00    -0.020 A 
HETATM   14  C   UNK N   1      35.276  13.243  16.306  0.00  0.00     0.013 A 
HETATM   15  C   UNK N   1      35.304  12.242  17.271  0.00  0.00     0.011 A 
ENDROOT
BRANCH   8  16
HETATM   16  C   UNK N   1      35.595  14.335   9.586  0.00  0.00     0.197 C 
BRANCH  16  17
HETATM   17  O   UNK N   1      34.514  13.738  10.284  0.00  0.00    -0.383 OA
HETATM   18  C   UNK N   1      34.143  12.530   9.670  0.00  0.00     0.202 C 
ENDBRANCH  16  17
BRANCH  16  19
HETATM   19  C   UNK N   1      35.167  15.417   8.619  0.00  0.00     0.186 C 
HETATM   20  O   UNK N   1      35.280  15.202   7.422  0.00  0.00    -0.292 OA
BRANCH  19  21
HETATM   21  C   UNK N   1      34.698  16.773   9.106  0.00  0.00     0.218 C 
BRANCH  21  22
HETATM   22  O   UNK N   1      33.508  16.624   9.820  0.00  0.00    -0.385 OA
HETATM   23  H   UNK N   1      33.439  16.760  10.778  0.00  0.00     0.210 HD
ENDBRANCH  21  22
BRANCH  21  24
HETATM   24  C   UNK N   1      34.494  17.787   7.975  0.00  0.00     0.150 C 
HETATM   25  C   UNK N   1      33.015  17.966   7.679  0.00  0.00     0.042 C 
BRANCH  24  26
HETATM   26  O   UNK N   1      35.028  19.023   8.342  0.00  0.00    -0.393 OA
HETATM   27  H   UNK N   1      35.292  19.265   9.243  0.00  0.00     0.210 HD
ENDBRANCH  24  26
ENDBRANCH  21  24
ENDBRANCH  19  21
ENDBRANCH  16  19
ENDBRANCH   8  16
BRANCH   4  28
HETATM   28  O   UNK N   1      37.249  10.311  13.006  0.00  0.00    -0.359 OA
HETATM   29  H   UNK N   1      38.168  10.152  12.914  0.00  0.00     0.217 HD
ENDBRANCH   4  28
BRANCH   2  30
HETATM   30  O   UNK N   1      36.701   9.461  15.341  0.00  0.00    -0.359 OA
HETATM   31  H   UNK N   1      37.101   8.904  15.980  0.00  0.00     0.217 HD
ENDBRANCH   2  30
BRANCH   1  32
HETATM   32  C   UNK N   1      35.850   9.956  18.127  0.00  0.00     0.017 C 
HETATM   33  C   UNK N   1      34.683   8.998  18.299  0.00  0.00     0.015 C 
BRANCH  32  34
HETATM   34  C   UNK N   1      36.200  10.575  19.469  0.00  0.00     0.004 C 
HETATM   35  C   UNK N   1      35.035  10.389  20.425  0.00  0.00     0.006 C 
ENDBRANCH  32  34
ENDBRANCH   1  32
TORSDOF 11
ENDMDL
MODEL 5
REMARK VINA RESULT:      -6.9      3.194      9.638
REMARK  11 active torsions:
REMARK  status: ('A' for Active; 'I' for Inactive)
REMARK    1  A    between atoms: C_2  and  C_3 
REMARK    2  A    between atoms: C_3  and  C_5 
REMARK    3  A    between atoms: C_6  and  O_7 
REMARK    4  A    between atoms: C_9  and  O_10 
REMARK    5  A    between atoms: C_14  and  C_18 
REMARK    6  A    between atoms: C_18  and  O_19 
REMARK    7  A    between atoms: C_18  and  C_21 
REMARK    8  A    between atoms: C_21  and  C_23 
REMARK    9  A    between atoms: C_23  and  O_24 
REMARK   10  A    between atoms: C_23  and  C_25 
REMARK   11  A    between atoms: C_25  and  O_27 
ROOT
HETATM    1  C   UNK N   1      36.140  13.083  13.129  0.00  0.00    -0.020 A 
HETATM    2  C   UNK N   1      35.964  14.331  12.469  0.00  0.00     0.086 A 
HETATM    3  C   UNK N   1      35.216  14.399  11.261  0.00  0.00     0.042 A 
HETATM    4  C   UNK N   1      34.931  15.630  10.614  0.00  0.00     0.093 A 
HETATM    5  C   UNK N   1      34.097  15.655   9.472  0.00  0.00     0.050 A 
HETATM    6  C   UNK N   1      33.600  14.445   8.942  0.00  0.00    -0.040 A 
HETATM    7  C   UNK N   1      32.707  14.410   7.724  0.00  0.00     0.047 C 
HETATM    8  C   UNK N   1      32.586  15.736   6.952  0.00  0.00     0.033 C 
HETATM    9  C   UNK N   1      32.497  16.917   7.914  0.00  0.00     0.092 C 
HETATM   10  C   UNK N   1      33.674  16.930   8.838  0.00  0.00     0.163 C 
HETATM   11  O   UNK N   1      34.209  17.992   9.116  0.00  0.00    -0.292 OA
HETATM   12  C   UNK N   1      33.908  13.237   9.562  0.00  0.00     0.020 A 
HETATM   13  C   UNK N   1      34.688  13.204  10.715  0.00  0.00    -0.020 A 
HETATM   14  C   UNK N   1      34.902  11.985  11.346  0.00  0.00     0.013 A 
HETATM   15  C   UNK N   1      35.602  11.929  12.545  0.00  0.00     0.011 A 
ENDROOT
BRANCH   8  16
HETATM   16  C   UNK N   1      33.714  15.930   5.917  0.00  0.00     0.197 C 
BRANCH  16  17
HETATM   17  O   UNK N   1      34.407  14.749   5.548  0.00  0.00    -0.383 OA
HETATM   18  C   UNK N   1      35.776  14.874   5.837  0.00  0.00     0.202 C 
ENDBRANCH  16  17
BRANCH  16  19
HETATM   19  C   UNK N   1      33.293  16.779   4.737  0.00  0.00     0.186 C 
HETATM   20  O   UNK N   1      33.537  17.975   4.767  0.00  0.00    -0.292 OA
BRANCH  19  21
HETATM   21  C   UNK N   1      32.505  16.194   3.583  0.00  0.00     0.218 C 
BRANCH  21  22
HETATM   22  O   UNK N   1      33.112  16.548   2.377  0.00  0.00    -0.385 OA
HETATM   23  H   UNK N   1      33.786  17.242   2.302  0.00  0.00     0.210 HD
ENDBRANCH  21  22
BRANCH  21  24
HETATM   24  C   UNK N   1      31.037  16.634   3.566  0.00  0.00     0.150 C 
HETATM   25  C   UNK N   1      30.160  15.594   4.239  0.00  0.00     0.042 C 
BRANCH  24  26
HETATM   26  O   UNK N   1      30.895  17.845   4.246  0.00  0.00    -0.393 OA
HETATM   27  H   UNK N   1      30.701  18.696   3.824  0.00  0.00     0.210 HD
ENDBRANCH  24  26
ENDBRANCH  21  24
ENDBRANCH  19  21
ENDBRANCH  16  19
ENDBRANCH   8  16
BRANCH   4  28
HETATM   28  O   UNK N   1      35.405  16.789  11.115  0.00  0.00    -0.359 OA
HETATM   29  H   UNK N   1      35.082  17.151  11.917  0.00  0.00     0.217 HD
ENDBRANCH   4  28
BRANCH   2  30
HETATM   30  O   UNK N   1      36.458  15.459  13.012  0.00  0.00    -0.359 OA
HETATM   31  H   UNK N   1      36.392  15.639  13.929  0.00  0.00     0.217 HD
ENDBRANCH   2  30
BRANCH   1  32
HETATM   32  C   UNK N   1      36.814  12.927  14.493  0.00  0.00     0.017 C 
HETATM   33  C   UNK N   1      37.237  11.529  14.912  0.00  0.00     0.015 C 
BRANCH  32  34
HETATM   34  C   UNK N   1      36.069  13.595  15.636  0.00  0.00     0.004 C 
HETATM   35  C   UNK N   1      34.815  12.797  15.950  0.00  0.00     0.006 C 
ENDBRANCH  32  34
ENDBRANCH   1  32
TORSDOF 11
ENDMDL
MODEL 6
REMARK VINA RESULT:      -6.8      4.061     10.585
REMARK  11 active torsions:
REMARK  status: ('A' for Active; 'I' for Inactive)
REMARK    1  A    between atoms: C_2  and  C_3 
REMARK    2  A    between atoms: C_3  and  C_5 
REMARK    3  A    between atoms: C_6  and  O_7 
REMARK    4  A    between atoms: C_9  and  O_10 
REMARK    5  A    between atoms: C_14  and  C_18 
REMARK    6  A    between atoms: C_18  and  O_19 
REMARK    7  A    between atoms: C_18  and  C_21 
REMARK    8  A    between atoms: C_21  and  C_23 
REMARK    9  A    between atoms: C_23  and  O_24 
REMARK   10  A    between atoms: C_23  and  C_25 
REMARK   11  A    between atoms: C_25  and  O_27 
ROOT
HETATM    1  C   UNK N   1      35.916  11.524  15.239  0.00  0.00    -0.020 A 
HETATM    2  C   UNK N   1      36.291  12.711  14.549  0.00  0.00     0.086 A 
HETATM    3  C   UNK N   1      35.780  12.971  13.248  0.00  0.00     0.042 A 
HETATM    4  C   UNK N   1      36.047  14.181  12.556  0.00  0.00     0.093 A 
HETATM    5  C   UNK N   1      35.432  14.435  11.307  0.00  0.00     0.050 A 
HETATM    6  C   UNK N   1      34.601  13.454  10.724  0.00  0.00    -0.040 A 
HETATM    7  C   UNK N   1      33.919  13.670   9.393  0.00  0.00     0.047 C 
HETATM    8  C   UNK N   1      34.388  14.903   8.600  0.00  0.00     0.033 C 
HETATM    9  C   UNK N   1      34.612  16.092   9.529  0.00  0.00     0.092 C 
HETATM   10  C   UNK N   1      35.585  15.737  10.609  0.00  0.00     0.163 C 
HETATM   11  O   UNK N   1      36.428  16.552  10.950  0.00  0.00    -0.292 OA
HETATM   12  C   UNK N   1      34.367  12.256  11.392  0.00  0.00     0.020 A 
HETATM   13  C   UNK N   1      34.929  12.014  12.643  0.00  0.00    -0.020 A 
HETATM   14  C   UNK N   1      34.603  10.839  13.309  0.00  0.00     0.013 A 
HETATM   15  C   UNK N   1      35.075  10.607  14.596  0.00  0.00     0.011 A 
ENDROOT
BRANCH   8  16
HETATM   16  C   UNK N   1      35.631  14.618   7.731  0.00  0.00     0.197 C 
BRANCH  16  17
HETATM   17  O   UNK N   1      36.211  13.335   7.905  0.00  0.00    -0.383 OA
HETATM   18  C   UNK N   1      37.527  13.452   8.381  0.00  0.00     0.202 C 
ENDBRANCH  16  17
BRANCH  16  19
HETATM   19  C   UNK N   1      35.441  15.005   6.281  0.00  0.00     0.186 C 
HETATM   20  O   UNK N   1      36.434  15.174   5.591  0.00  0.00    -0.292 OA
BRANCH  19  21
HETATM   21  C   UNK N   1      34.064  15.273   5.709  0.00  0.00     0.218 C 
BRANCH  21  22
HETATM   22  O   UNK N   1      33.805  14.370   4.677  0.00  0.00    -0.385 OA
HETATM   23  H   UNK N   1      34.397  13.636   4.448  0.00  0.00     0.210 HD
ENDBRANCH  21  22
BRANCH  21  24
HETATM   24  C   UNK N   1      33.890  16.705   5.192  0.00  0.00     0.150 C 
HETATM   25  C   UNK N   1      32.440  16.971   4.831  0.00  0.00     0.042 C 
BRANCH  24  26
HETATM   26  O   UNK N   1      34.279  17.617   6.175  0.00  0.00    -0.393 OA
HETATM   27  H   UNK N   1      35.145  17.623   6.612  0.00  0.00     0.210 HD
ENDBRANCH  24  26
ENDBRANCH  21  24
ENDBRANCH  19  21
ENDBRANCH  16  19
ENDBRANCH   8  16
BRANCH   4  28
HETATM   28  O   UNK N   1      36.841  15.121  13.108  0.00  0.00    -0.359 OA
HETATM   29  H   UNK N   1      36.498  15.797  13.659  0.00  0.00     0.217 HD
ENDBRANCH   4  28
BRANCH   2  30
HETATM   30  O   UNK N   1      37.088  13.617  15.146  0.00  0.00    -0.359 OA
HETATM   31  H   UNK N   1      36.746  14.392  15.547  0.00  0.00     0.217 HD
ENDBRANCH   2  30
BRANCH   1  32
HETATM   32  C   UNK N   1      36.308  11.218  16.685  0.00  0.00     0.017 C 
HETATM   33  C   UNK N   1      36.881   9.843  16.981  0.00  0.00     0.015 C 
BRANCH  32  34
HETATM   34  C   UNK N   1      35.232  11.549  17.706  0.00  0.00     0.004 C 
HETATM   35  C   UNK N   1      35.043  13.055  17.762  0.00  0.00     0.006 C 
ENDBRANCH  32  34
ENDBRANCH   1  32
TORSDOF 11
ENDMDL
MODEL 7
REMARK VINA RESULT:      -6.5      1.904      9.288
REMARK  11 active torsions:
REMARK  status: ('A' for Active; 'I' for Inactive)
REMARK    1  A    between atoms: C_2  and  C_3 
REMARK    2  A    between atoms: C_3  and  C_5 
REMARK    3  A    between atoms: C_6  and  O_7 
REMARK    4  A    between atoms: C_9  and  O_10 
REMARK    5  A    between atoms: C_14  and  C_18 
REMARK    6  A    between atoms: C_18  and  O_19 
REMARK    7  A    between atoms: C_18  and  C_21 
REMARK    8  A    between atoms: C_21  and  C_23 
REMARK    9  A    between atoms: C_23  and  O_24 
REMARK   10  A    between atoms: C_23  and  C_25 
REMARK   11  A    between atoms: C_25  and  O_27 
ROOT
HETATM    1  C   UNK N   1      35.664  14.076  11.972  0.00  0.00    -0.020 A 
HETATM    2  C   UNK N   1      34.750  13.648  10.968  0.00  0.00     0.086 A 
HETATM    3  C   UNK N   1      34.205  14.589  10.052  0.00  0.00     0.042 A 
HETATM    4  C   UNK N   1      33.364  14.200   8.976  0.00  0.00     0.093 A 
HETATM    5  C   UNK N   1      32.931  15.160   8.032  0.00  0.00     0.050 A 
HETATM    6  C   UNK N   1      33.287  16.516   8.198  0.00  0.00    -0.040 A 
HETATM    7  C   UNK N   1      32.852  17.585   7.223  0.00  0.00     0.047 C 
HETATM    8  C   UNK N   1      31.794  17.151   6.193  0.00  0.00     0.033 C 
HETATM    9  C   UNK N   1      32.079  15.742   5.683  0.00  0.00     0.092 C 
HETATM   10  C   UNK N   1      32.155  14.777   6.825  0.00  0.00     0.163 C 
HETATM   11  O   UNK N   1      31.651  13.671   6.711  0.00  0.00    -0.292 OA
HETATM   12  C   UNK N   1      34.086  16.897   9.273  0.00  0.00     0.020 A 
HETATM   13  C   UNK N   1      34.558  15.954  10.182  0.00  0.00    -0.020 A 
HETATM   14  C   UNK N   1      35.418  16.367  11.191  0.00  0.00     0.013 A 
HETATM   15  C   UNK N   1      35.977  15.438  12.062  0.00  0.00     0.011 A 
ENDROOT
BRANCH   8  16
HETATM   16  C   UNK N   1      30.351  17.282   6.726  0.00  0.00     0.197 C 
BRANCH  16  17
HETATM   17  O   UNK N   1      30.220  17.978   7.954  0.00  0.00    -0.383 OA
HETATM   18  C   UNK N   1      29.755  17.114   8.960  0.00  0.00     0.202 C 
ENDBRANCH  16  17
BRANCH  16  19
HETATM   19  C   UNK N   1      29.369  17.732   5.667  0.00  0.00     0.186 C 
HETATM   20  O   UNK N   1      29.586  17.424   4.505  0.00  0.00    -0.292 OA
BRANCH  19  21
HETATM   21  C   UNK N   1      28.192  18.623   6.008  0.00  0.00     0.218 C 
BRANCH  21  22
HETATM   22  O   UNK N   1      27.233  17.883   6.701  0.00  0.00    -0.385 OA
HETATM   23  H   UNK N   1      26.283  18.076   6.669  0.00  0.00     0.210 HD
ENDBRANCH  21  22
BRANCH  21  24
HETATM   24  C   UNK N   1      27.547  19.274   4.780  0.00  0.00     0.150 C 
HETATM   25  C   UNK N   1      26.469  20.257   5.200  0.00  0.00     0.042 C 
BRANCH  24  26
HETATM   26  O   UNK N   1      28.514  19.962   4.043  0.00  0.00    -0.393 OA
HETATM   27  H   UNK N   1      29.442  20.061   4.307  0.00  0.00     0.210 HD
ENDBRANCH  24  26
ENDBRANCH  21  24
ENDBRANCH  19  21
ENDBRANCH  16  19
ENDBRANCH   8  16
BRANCH   4  28
HETATM   28  O   UNK N   1      33.021  12.907   8.813  0.00  0.00    -0.359 OA
HETATM   29  H   UNK N   1      32.402  12.636   8.164  0.00  0.00     0.217 HD
ENDBRANCH   4  28
BRANCH   2  30
HETATM   30  O   UNK N   1      34.439  12.344  10.849  0.00  0.00    -0.359 OA
HETATM   31  H   UNK N   1      34.457  11.902  10.023  0.00  0.00     0.217 HD
ENDBRANCH   2  30
BRANCH   1  32
HETATM   32  C   UNK N   1      36.400  13.126  12.917  0.00  0.00     0.017 C 
HETATM   33  C   UNK N   1      37.286  12.062  12.292  0.00  0.00     0.015 C 
BRANCH  32  34
HETATM   34  C   UNK N   1      35.514  12.490  13.976  0.00  0.00     0.004 C 
HETATM   35  C   UNK N   1      35.662  10.980  13.910  0.00  0.00     0.006 C 
ENDBRANCH  32  34
ENDBRANCH   1  32
TORSDOF 11
ENDMDL
MODEL 8
REMARK VINA RESULT:      -6.4      3.045      9.454
REMARK  11 active torsions:
REMARK  status: ('A' for Active; 'I' for Inactive)
REMARK    1  A    between atoms: C_2  and  C_3 
REMARK    2  A    between atoms: C_3  and  C_5 
REMARK    3  A    between atoms: C_6  and  O_7 
REMARK    4  A    between atoms: C_9  and  O_10 
REMARK    5  A    between atoms: C_14  and  C_18 
REMARK    6  A    between atoms: C_18  and  O_19 
REMARK    7  A    between atoms: C_18  and  C_21 
REMARK    8  A    between atoms: C_21  and  C_23 
REMARK    9  A    between atoms: C_23  and  O_24 
REMARK   10  A    between atoms: C_23  and  C_25 
REMARK   11  A    between atoms: C_25  and  O_27 
ROOT
HETATM    1  C   UNK N   1      35.632  13.737  12.713  0.00  0.00    -0.020 A 
HETATM    2  C   UNK N   1      34.817  13.273  11.641  0.00  0.00     0.086 A 
HETATM    3  C   UNK N   1      34.564  14.113  10.523  0.00  0.00     0.042 A 
HETATM    4  C   UNK N   1      33.838  13.667   9.387  0.00  0.00     0.093 A 
HETATM    5  C   UNK N   1      33.701  14.506   8.258  0.00  0.00     0.050 A 
HETATM    6  C   UNK N   1      34.236  15.813   8.287  0.00  0.00    -0.040 A 
HETATM    7  C   UNK N   1      34.119  16.753   7.111  0.00  0.00     0.047 C 
HETATM    8  C   UNK N   1      33.167  16.299   5.990  0.00  0.00     0.033 C 
HETATM    9  C   UNK N   1      33.299  14.800   5.741  0.00  0.00     0.092 C 
HETATM   10  C   UNK N   1      33.058  14.035   7.005  0.00  0.00     0.163 C 
HETATM   11  O   UNK N   1      32.409  13.001   6.967  0.00  0.00    -0.292 OA
HETATM   12  C   UNK N   1      34.920  16.257   9.415  0.00  0.00     0.020 A 
HETATM   13  C   UNK N   1      35.103  15.423  10.514  0.00  0.00    -0.020 A 
HETATM   14  C   UNK N   1      35.862  15.880  11.584  0.00  0.00     0.013 A 
HETATM   15  C   UNK N   1      36.137  15.042  12.659  0.00  0.00     0.011 A 
ENDROOT
BRANCH   8  16
HETATM   16  C   UNK N   1      31.700  16.705   6.251  0.00  0.00     0.197 C 
BRANCH  16  17
HETATM   17  O   UNK N   1      31.498  17.569   7.357  0.00  0.00    -0.383 OA
HETATM   18  C   UNK N   1      30.694  16.944   8.326  0.00  0.00     0.202 C 
ENDBRANCH  16  17
BRANCH  16  19
HETATM   19  C   UNK N   1      30.978  17.147   4.997  0.00  0.00     0.186 C 
HETATM   20  O   UNK N   1      30.073  17.960   5.106  0.00  0.00    -0.292 OA
BRANCH  19  21
HETATM   21  C   UNK N   1      31.292  16.538   3.646  0.00  0.00     0.218 C 
BRANCH  21  22
HETATM   22  O   UNK N   1      31.850  17.511   2.815  0.00  0.00    -0.385 OA
HETATM   23  H   UNK N   1      32.122  17.340   1.899  0.00  0.00     0.210 HD
ENDBRANCH  21  22
BRANCH  21  24
HETATM   24  C   UNK N   1      30.070  15.918   2.961  0.00  0.00     0.150 C 
HETATM   25  C   UNK N   1      29.535  14.754   3.775  0.00  0.00     0.042 C 
BRANCH  24  26
HETATM   26  O   UNK N   1      29.061  16.874   2.832  0.00  0.00    -0.393 OA
HETATM   27  H   UNK N   1      28.268  16.919   3.389  0.00  0.00     0.210 HD
ENDBRANCH  24  26
ENDBRANCH  21  24
ENDBRANCH  19  21
ENDBRANCH  16  19
ENDBRANCH   8  16
BRANCH   4  28
HETATM   28  O   UNK N   1      33.324  12.421   9.355  0.00  0.00    -0.359 OA
HETATM   29  H   UNK N   1      32.464  12.247   9.025  0.00  0.00     0.217 HD
ENDBRANCH   4  28
BRANCH   2  30
HETATM   30  O   UNK N   1      34.327  12.019  11.659  0.00  0.00    -0.359 OA
HETATM   31  H   UNK N   1      34.023  11.616  12.448  0.00  0.00     0.217 HD
ENDBRANCH   2  30
BRANCH   1  32
HETATM   32  C   UNK N   1      36.066  12.867  13.893  0.00  0.00     0.017 C 
HETATM   33  C   UNK N   1      36.434  13.572  15.187  0.00  0.00     0.015 C 
BRANCH  32  34
HETATM   34  C   UNK N   1      37.134  11.842  13.552  0.00  0.00     0.004 C 
HETATM   35  C   UNK N   1      37.531  11.095  14.814  0.00  0.00     0.006 C 
ENDBRANCH  32  34
ENDBRANCH   1  32
TORSDOF 11
ENDMDL
MODEL 9
REMARK VINA RESULT:      -6.4     13.781     16.725
REMARK  11 active torsions:
REMARK  status: ('A' for Active; 'I' for Inactive)
REMARK    1  A    between atoms: C_2  and  C_3 
REMARK    2  A    between atoms: C_3  and  C_5 
REMARK    3  A    between atoms: C_6  and  O_7 
REMARK    4  A    between atoms: C_9  and  O_10 
REMARK    5  A    between atoms: C_14  and  C_18 
REMARK    6  A    between atoms: C_18  and  O_19 
REMARK    7  A    between atoms: C_18  and  C_21 
REMARK    8  A    between atoms: C_21  and  C_23 
REMARK    9  A    between atoms: C_23  and  O_24 
REMARK   10  A    between atoms: C_23  and  C_25 
REMARK   11  A    between atoms: C_25  and  O_27 
ROOT
HETATM    1  C   UNK N   1      30.106  20.079  -8.173  0.00  0.00    -0.020 A 
HETATM    2  C   UNK N   1      30.342  20.843  -6.995  0.00  0.00     0.086 A 
HETATM    3  C   UNK N   1      29.362  21.763  -6.535  0.00  0.00     0.042 A 
HETATM    4  C   UNK N   1      29.507  22.480  -5.317  0.00  0.00     0.093 A 
HETATM    5  C   UNK N   1      28.458  23.306  -4.851  0.00  0.00     0.050 A 
HETATM    6  C   UNK N   1      27.292  23.465  -5.632  0.00  0.00    -0.040 A 
HETATM    7  C   UNK N   1      26.142  24.336  -5.186  0.00  0.00     0.047 C 
HETATM    8  C   UNK N   1      26.422  25.233  -3.967  0.00  0.00     0.033 C 
HETATM    9  C   UNK N   1      27.247  24.487  -2.923  0.00  0.00     0.092 C 
HETATM   10  C   UNK N   1      28.517  23.974  -3.526  0.00  0.00     0.163 C 
HETATM   11  O   UNK N   1      29.555  24.040  -2.887  0.00  0.00    -0.292 OA
HETATM   12  C   UNK N   1      27.169  22.785  -6.840  0.00  0.00     0.020 A 
HETATM   13  C   UNK N   1      28.174  21.932  -7.286  0.00  0.00    -0.020 A 
HETATM   14  C   UNK N   1      27.972  21.212  -8.457  0.00  0.00     0.013 A 
HETATM   15  C   UNK N   1      28.917  20.285  -8.884  0.00  0.00     0.011 A 
ENDROOT
BRANCH   8  16
HETATM   16  C   UNK N   1      27.075  26.578  -4.352  0.00  0.00     0.197 C 
BRANCH  16  17
HETATM   17  O   UNK N   1      26.983  26.925  -5.724  0.00  0.00    -0.383 OA
HETATM   18  C   UNK N   1      28.265  27.057  -6.284  0.00  0.00     0.202 C 
ENDBRANCH  16  17
BRANCH  16  19
HETATM   19  C   UNK N   1      26.702  27.706  -3.415  0.00  0.00     0.186 C 
HETATM   20  O   UNK N   1      25.538  27.802  -3.058  0.00  0.00    -0.292 OA
BRANCH  19  21
HETATM   21  C   UNK N   1      27.713  28.753  -2.996  0.00  0.00     0.218 C 
BRANCH  21  22
HETATM   22  O   UNK N   1      27.523  29.072  -1.651  0.00  0.00    -0.385 OA
HETATM   23  H   UNK N   1      27.959  28.601  -0.923  0.00  0.00     0.210 HD
ENDBRANCH  21  22
BRANCH  21  24
HETATM   24  C   UNK N   1      27.649  30.030  -3.840  0.00  0.00     0.150 C 
HETATM   25  C   UNK N   1      29.012  30.352  -4.428  0.00  0.00     0.042 C 
BRANCH  24  26
HETATM   26  O   UNK N   1      26.740  29.864  -4.887  0.00  0.00    -0.393 OA
HETATM   27  H   UNK N   1      26.919  30.084  -5.814  0.00  0.00     0.210 HD
ENDBRANCH  24  26
ENDBRANCH  21  24
ENDBRANCH  19  21
ENDBRANCH  16  19
ENDBRANCH   8  16
BRANCH   4  28
HETATM   28  O   UNK N   1      30.619  22.332  -4.569  0.00  0.00    -0.359 OA
HETATM   29  H   UNK N   1      31.389  21.916  -4.902  0.00  0.00     0.217 HD
ENDBRANCH   4  28
BRANCH   2  30
HETATM   30  O   UNK N   1      31.470  20.658  -6.285  0.00  0.00    -0.359 OA
HETATM   31  H   UNK N   1      31.521  20.860  -5.371  0.00  0.00     0.217 HD
ENDBRANCH   2  30
BRANCH   1  32
HETATM   32  C   UNK N   1      31.038  18.975  -8.675  0.00  0.00     0.017 C 
HETATM   33  C   UNK N   1      32.098  19.361  -9.693  0.00  0.00     0.015 C 
BRANCH  32  34
HETATM   34  C   UNK N   1      30.322  17.719  -9.141  0.00  0.00     0.004 C 
HETATM   35  C   UNK N   1      30.671  17.454 -10.595  0.00  0.00     0.006 C 
ENDBRANCH  32  34
ENDBRANCH   1  32
TORSDOF 11
ENDMDL
