MODEL 1
REMARK VINA RESULT:      -5.9      0.000      0.000
REMARK  20 active torsions:
REMARK  status: ('A' for Active; 'I' for Inactive)
REMARK    1  A    between atoms: C_2  and  C_1 
REMARK    2  A    between atoms: C_3  and  C_1 
REMARK    3  A    between atoms: C_4  and  C_2 
REMARK    4  A    between atoms: C_5  and  C_3 
REMARK    5  A    between atoms: C_8  and  C_4 
REMARK    6  A    between atoms: P_29  and  C_5 
REMARK    7  A    between atoms: C_9  and  C_6 
REMARK    8  A    between atoms: N_15  and  C_6 
REMARK    9  A    between atoms: C_10  and  C_7 
REMARK   10  A    between atoms: O_20  and  C_7 
REMARK   11  A    between atoms: C_11  and  C_9 
REMARK   12  A    between atoms: C_9  and  O_21 
REMARK   13  A    between atoms: C_11  and  C_10 
REMARK   14  A    between atoms: C_10  and  O_22 
REMARK   15  A    between atoms: C_11  and  O_23 
REMARK   16  A    between atoms: N_15  and  C_12 
REMARK   17  A    between atoms: O_24  and  C_13 
REMARK   18  A    between atoms: O_25  and  C_14 
REMARK   19  A    between atoms: P_29  and  O_26 
REMARK   20  A    between atoms: P_29  and  O_27 
ROOT
HETATM    1  C   UNK N   1      21.071  15.285   7.148  0.00  0.00     0.037 A 
HETATM    2  C   UNK N   1      21.159  16.619   6.680  0.00  0.00     0.114 A 
HETATM    3  C   UNK N   1      20.343  15.042   8.326  0.00  0.00     0.153 A 
HETATM    4  C   UNK N   1      19.815  17.339   8.497  0.00  0.00     0.224 A 
HETATM    5  N   UNK N   1      20.519  17.602   7.370  0.00  0.00    -0.308 N 
ATOM      6  HN  UNK N   1      20.569  18.561   7.028  1.00  0.00     0.171 HD
HETATM    7  N   UNK N   1      19.735  16.072   8.973  0.00  0.00    -0.302 N 
ATOM      8  HN  UNK N   1      19.211  15.888   9.829  1.00  0.00     0.171 HD
ENDROOT
BRANCH   2   9
HETATM    9  N   UNK N   1      21.887  16.994   5.514  0.00  0.00    -0.373 N 
HETATM   10  H   UNK N   1      21.866  16.371   4.753  0.00  0.00     0.161 HD
BRANCH   9  11
HETATM   11  C   UNK N   1      22.655  18.208   5.353  0.00  0.00     0.155 C 
BRANCH  11  12
HETATM   12  C   UNK N   1      22.722  18.660   3.895  0.00  0.00     0.167 C 
BRANCH  12  13
HETATM   13  C   UNK N   1      21.472  19.466   3.474  0.00  0.00     0.179 C 
BRANCH  13  14
HETATM   14  C   UNK N   1      21.780  20.451   2.329  0.00  0.00     0.173 C 
BRANCH  14  15
HETATM   15  C   UNK N   1      20.565  20.659   1.428  0.00  0.00     0.198 C 
BRANCH  15  16
HETATM   16  O   UNK N   1      20.757  20.061   0.181  0.00  0.00    -0.398 OA
HETATM   17  H   UNK N   1      20.469  19.625  -0.636  0.00  0.00     0.209 HD
ENDBRANCH  15  16
ENDBRANCH  14  15
BRANCH  14  18
HETATM   18  O   UNK N   1      22.191  21.688   2.831  0.00  0.00    -0.391 OA
HETATM   19  H   UNK N   1      21.608  22.460   2.756  0.00  0.00     0.210 HD
ENDBRANCH  14  18
ENDBRANCH  13  14
BRANCH  13  20
HETATM   20  O   UNK N   1      20.474  18.587   3.040  0.00  0.00    -0.390 OA
HETATM   21  H   UNK N   1      20.589  17.630   3.152  0.00  0.00     0.210 HD
ENDBRANCH  13  20
ENDBRANCH  12  13
BRANCH  12  22
HETATM   22  O   UNK N   1      23.871  19.439   3.750  0.00  0.00    -0.391 OA
HETATM   23  H   UNK N   1      24.745  19.017   3.735  0.00  0.00     0.210 HD
ENDBRANCH  12  22
ENDBRANCH  11  12
ENDBRANCH   9  11
ENDBRANCH   2   9
BRANCH   1  24
HETATM   24  C   UNK N   1      21.703  14.144   6.395  0.00  0.00     0.047 C 
BRANCH  24  25
HETATM   25  C   UNK N   1      23.139  13.868   6.804  0.00  0.00     0.005 C 
BRANCH  25  26
HETATM   26  C   UNK N   1      23.492  12.394   6.652  0.00  0.00     0.001 C 
BRANCH  26  27
HETATM   27  C   UNK N   1      23.062  11.621   7.883  0.00  0.00     0.012 C 
BRANCH  27  28
HETATM   28  C   UNK N   1      23.897  12.047   9.078  0.00  0.00     0.125 C 
BRANCH  28  29
HETATM   29  P   UNK N   1      22.946  11.732  10.642  0.00  0.00     0.235 P 
HETATM   30  O   UNK N   1      23.746  12.071  11.926  0.00  0.00    -0.653 OA
BRANCH  29  31
HETATM   31  O   UNK N   1      21.262  11.935  11.014  0.00  0.00    -0.329 OA
HETATM   32  H   UNK N   1      20.446  11.454  11.224  0.00  0.00     0.220 HD
ENDBRANCH  29  31
BRANCH  29  33
HETATM   33  O   UNK N   1      22.813  13.432  10.355  0.00  0.00    -0.329 OA
HETATM   34  H   UNK N   1      23.359  13.992   9.781  0.00  0.00     0.220 HD
ENDBRANCH  29  33
ENDBRANCH  28  29
ENDBRANCH  27  28
ENDBRANCH  26  27
ENDBRANCH  25  26
ENDBRANCH  24  25
ENDBRANCH   1  24
BRANCH   3  35
HETATM   35  O   UNK N   1      20.228  13.796   8.818  0.00  0.00    -0.346 OA
HETATM   36  H   UNK N   1      19.520  13.320   9.204  0.00  0.00     0.219 HD
ENDBRANCH   3  35
BRANCH   4  37
HETATM   37  O   UNK N   1      19.193  18.340   9.144  0.00  0.00    -0.332 OA
HETATM   38  H   UNK N   1      19.034  19.174   8.751  0.00  0.00     0.221 HD
ENDBRANCH   4  37
TORSDOF 20
ENDMDL
MODEL 2
REMARK VINA RESULT:      -5.9      7.163     10.435
REMARK  20 active torsions:
REMARK  status: ('A' for Active; 'I' for Inactive)
REMARK    1  A    between atoms: C_2  and  C_1 
REMARK    2  A    between atoms: C_3  and  C_1 
REMARK    3  A    between atoms: C_4  and  C_2 
REMARK    4  A    between atoms: C_5  and  C_3 
REMARK    5  A    between atoms: C_8  and  C_4 
REMARK    6  A    between atoms: P_29  and  C_5 
REMARK    7  A    between atoms: C_9  and  C_6 
REMARK    8  A    between atoms: N_15  and  C_6 
REMARK    9  A    between atoms: C_10  and  C_7 
REMARK   10  A    between atoms: O_20  and  C_7 
REMARK   11  A    between atoms: C_11  and  C_9 
REMARK   12  A    between atoms: C_9  and  O_21 
REMARK   13  A    between atoms: C_11  and  C_10 
REMARK   14  A    between atoms: C_10  and  O_22 
REMARK   15  A    between atoms: C_11  and  O_23 
REMARK   16  A    between atoms: N_15  and  C_12 
REMARK   17  A    between atoms: O_24  and  C_13 
REMARK   18  A    between atoms: O_25  and  C_14 
REMARK   19  A    between atoms: P_29  and  O_26 
REMARK   20  A    between atoms: P_29  and  O_27 
ROOT
HETATM    1  C   UNK N   1      27.687  19.498   5.719  0.00  0.00     0.037 A 
HETATM    2  C   UNK N   1      28.717  18.526   5.745  0.00  0.00     0.114 A 
HETATM    3  C   UNK N   1      27.094  19.868   6.940  0.00  0.00     0.153 A 
HETATM    4  C   UNK N   1      28.525  18.394   8.106  0.00  0.00     0.224 A 
HETATM    5  N   UNK N   1      29.107  18.011   6.944  0.00  0.00    -0.308 N 
ATOM      6  HN  UNK N   1      29.857  17.321   6.966  1.00  0.00     0.171 HD
HETATM    7  N   UNK N   1      27.524  19.308   8.101  0.00  0.00    -0.302 N 
ATOM      8  HN  UNK N   1      27.087  19.580   8.982  1.00  0.00     0.171 HD
ENDROOT
BRANCH   2   9
HETATM    9  N   UNK N   1      29.376  18.052   4.575  0.00  0.00    -0.373 N 
HETATM   10  H   UNK N   1      29.247  18.568   3.747  0.00  0.00     0.161 HD
BRANCH   9  11
HETATM   11  C   UNK N   1      30.216  16.878   4.497  0.00  0.00     0.155 C 
BRANCH  11  12
HETATM   12  C   UNK N   1      31.699  17.218   4.636  0.00  0.00     0.167 C 
BRANCH  12  13
HETATM   13  C   UNK N   1      32.330  16.583   5.896  0.00  0.00     0.179 C 
BRANCH  13  14
HETATM   14  C   UNK N   1      32.989  17.639   6.805  0.00  0.00     0.173 C 
BRANCH  14  15
HETATM   15  C   UNK N   1      32.940  17.222   8.273  0.00  0.00     0.198 C 
BRANCH  15  16
HETATM   16  O   UNK N   1      31.806  17.738   8.903  0.00  0.00    -0.398 OA
HETATM   17  H   UNK N   1      30.853  17.809   9.073  0.00  0.00     0.209 HD
ENDBRANCH  15  16
ENDBRANCH  14  15
BRANCH  14  18
HETATM   18  O   UNK N   1      34.320  17.853   6.437  0.00  0.00    -0.391 OA
HETATM   19  H   UNK N   1      34.539  18.538   5.785  0.00  0.00     0.210 HD
ENDBRANCH  14  18
ENDBRANCH  13  14
BRANCH  13  20
HETATM   20  O   UNK N   1      31.338  15.926   6.634  0.00  0.00    -0.390 OA
HETATM   21  H   UNK N   1      31.267  16.076   7.589  0.00  0.00     0.210 HD
ENDBRANCH  13  20
ENDBRANCH  12  13
BRANCH  12  22
HETATM   22  O   UNK N   1      32.345  16.756   3.487  0.00  0.00    -0.391 OA
HETATM   23  H   UNK N   1      33.192  16.289   3.562  0.00  0.00     0.210 HD
ENDBRANCH  12  22
ENDBRANCH  11  12
ENDBRANCH   9  11
ENDBRANCH   2   9
BRANCH   1  24
HETATM   24  C   UNK N   1      27.254  20.151   4.434  0.00  0.00     0.047 C 
BRANCH  24  25
HETATM   25  C   UNK N   1      26.041  19.496   3.797  0.00  0.00     0.005 C 
BRANCH  25  26
HETATM   26  C   UNK N   1      24.969  20.521   3.449  0.00  0.00     0.001 C 
BRANCH  26  27
HETATM   27  C   UNK N   1      23.643  19.830   3.202  0.00  0.00     0.012 C 
BRANCH  27  28
HETATM   28  C   UNK N   1      22.595  20.852   2.798  0.00  0.00     0.125 C 
BRANCH  28  29
HETATM   29  P   UNK N   1      21.229  20.006   1.866  0.00  0.00     0.235 P 
HETATM   30  O   UNK N   1      19.931  19.839   2.696  0.00  0.00    -0.653 OA
BRANCH  29  31
HETATM   31  O   UNK N   1      20.767  20.090   0.194  0.00  0.00    -0.329 OA
HETATM   32  H   UNK N   1      20.718  19.578  -0.629  0.00  0.00     0.220 HD
ENDBRANCH  29  31
BRANCH  29  33
HETATM   33  O   UNK N   1      20.875  21.695   1.773  0.00  0.00    -0.329 OA
HETATM   34  H   UNK N   1      20.785  22.335   2.496  0.00  0.00     0.220 HD
ENDBRANCH  29  33
ENDBRANCH  28  29
ENDBRANCH  27  28
ENDBRANCH  26  27
ENDBRANCH  25  26
ENDBRANCH  24  25
ENDBRANCH   1  24
BRANCH   3  35
HETATM   35  O   UNK N   1      26.111  20.784   6.975  0.00  0.00    -0.346 OA
HETATM   36  H   UNK N   1      25.199  20.758   6.761  0.00  0.00     0.219 HD
ENDBRANCH   3  35
BRANCH   4  37
HETATM   37  O   UNK N   1      28.945  17.864   9.268  0.00  0.00    -0.332 OA
HETATM   38  H   UNK N   1      28.951  16.942   9.430  0.00  0.00     0.221 HD
ENDBRANCH   4  37
TORSDOF 20
ENDMDL
MODEL 3
REMARK VINA RESULT:      -5.9      2.775      4.773
REMARK  20 active torsions:
REMARK  status: ('A' for Active; 'I' for Inactive)
REMARK    1  A    between atoms: C_2  and  C_1 
REMARK    2  A    between atoms: C_3  and  C_1 
REMARK    3  A    between atoms: C_4  and  C_2 
REMARK    4  A    between atoms: C_5  and  C_3 
REMARK    5  A    between atoms: C_8  and  C_4 
REMARK    6  A    between atoms: P_29  and  C_5 
REMARK    7  A    between atoms: C_9  and  C_6 
REMARK    8  A    between atoms: N_15  and  C_6 
REMARK    9  A    between atoms: C_10  and  C_7 
REMARK   10  A    between atoms: O_20  and  C_7 
REMARK   11  A    between atoms: C_11  and  C_9 
REMARK   12  A    between atoms: C_9  and  O_21 
REMARK   13  A    between atoms: C_11  and  C_10 
REMARK   14  A    between atoms: C_10  and  O_22 
REMARK   15  A    between atoms: C_11  and  O_23 
REMARK   16  A    between atoms: N_15  and  C_12 
REMARK   17  A    between atoms: O_24  and  C_13 
REMARK   18  A    between atoms: O_25  and  C_14 
REMARK   19  A    between atoms: P_29  and  O_26 
REMARK   20  A    between atoms: P_29  and  O_27 
ROOT
HETATM    1  C   UNK N   1      20.795  15.501   7.675  0.00  0.00     0.037 A 
HETATM    2  C   UNK N   1      20.774  16.850   7.244  0.00  0.00     0.114 A 
HETATM    3  C   UNK N   1      19.987  15.141   8.768  0.00  0.00     0.153 A 
HETATM    4  C   UNK N   1      19.185  17.358   8.931  0.00  0.00     0.224 A 
HETATM    5  N   UNK N   1      19.961  17.733   7.885  0.00  0.00    -0.308 N 
ATOM      6  HN  UNK N   1      19.936  18.702   7.569  1.00  0.00     0.171 HD
HETATM    7  N   UNK N   1      19.205  16.076   9.371  0.00  0.00    -0.302 N 
ATOM      8  HN  UNK N   1      18.624  15.808  10.166  1.00  0.00     0.171 HD
ENDROOT
BRANCH   2   9
HETATM    9  N   UNK N   1      21.565  17.340   6.166  0.00  0.00    -0.373 N 
HETATM   10  H   UNK N   1      22.223  16.721   5.775  0.00  0.00     0.161 HD
BRANCH   9  11
HETATM   11  C   UNK N   1      21.487  18.667   5.597  0.00  0.00     0.155 C 
BRANCH  11  12
HETATM   12  C   UNK N   1      21.611  18.651   4.074  0.00  0.00     0.167 C 
BRANCH  12  13
HETATM   13  C   UNK N   1      20.740  19.738   3.405  0.00  0.00     0.179 C 
BRANCH  13  14
HETATM   14  C   UNK N   1      21.514  20.506   2.315  0.00  0.00     0.173 C 
BRANCH  14  15
HETATM   15  C   UNK N   1      20.602  20.906   1.158  0.00  0.00     0.198 C 
BRANCH  15  16
HETATM   16  O   UNK N   1      20.693  19.990   0.108  0.00  0.00    -0.398 OA
HETATM   17  H   UNK N   1      20.606  19.702  -0.814  0.00  0.00     0.209 HD
ENDBRANCH  15  16
ENDBRANCH  14  15
BRANCH  14  18
HETATM   18  O   UNK N   1      22.111  21.655   2.842  0.00  0.00    -0.391 OA
HETATM   19  H   UNK N   1      21.819  22.004   3.699  0.00  0.00     0.210 HD
ENDBRANCH  14  18
ENDBRANCH  13  14
BRANCH  13  20
HETATM   20  O   UNK N   1      19.623  19.141   2.811  0.00  0.00    -0.390 OA
HETATM   21  H   UNK N   1      19.429  18.205   2.975  0.00  0.00     0.210 HD
ENDBRANCH  13  20
ENDBRANCH  12  13
BRANCH  12  22
HETATM   22  O   UNK N   1      22.957  18.848   3.760  0.00  0.00    -0.391 OA
HETATM   23  H   UNK N   1      23.208  19.172   2.880  0.00  0.00     0.210 HD
ENDBRANCH  12  22
ENDBRANCH  11  12
ENDBRANCH   9  11
ENDBRANCH   2   9
BRANCH   1  24
HETATM   24  C   UNK N   1      21.623  14.461   6.967  0.00  0.00     0.047 C 
BRANCH  24  25
HETATM   25  C   UNK N   1      20.952  13.886   5.732  0.00  0.00     0.005 C 
BRANCH  25  26
HETATM   26  C   UNK N   1      21.766  14.158   4.473  0.00  0.00     0.001 C 
BRANCH  26  27
HETATM   27  C   UNK N   1      20.845  14.413   3.297  0.00  0.00     0.012 C 
BRANCH  27  28
HETATM   28  C   UNK N   1      21.499  15.384   2.331  0.00  0.00     0.125 C 
BRANCH  28  29
HETATM   29  P   UNK N   1      20.281  15.862   1.012  0.00  0.00     0.235 P 
HETATM   30  O   UNK N   1      19.186  14.792   0.770  0.00  0.00    -0.653 OA
BRANCH  29  31
HETATM   31  O   UNK N   1      19.599  17.402   0.593  0.00  0.00    -0.329 OA
HETATM   32  H   UNK N   1      18.943  17.837   0.025  0.00  0.00     0.220 HD
ENDBRANCH  29  31
BRANCH  29  33
HETATM   33  O   UNK N   1      19.503  16.225   2.513  0.00  0.00    -0.329 OA
HETATM   34  H   UNK N   1      19.662  16.972   3.111  0.00  0.00     0.220 HD
ENDBRANCH  29  33
ENDBRANCH  28  29
ENDBRANCH  27  28
ENDBRANCH  26  27
ENDBRANCH  25  26
ENDBRANCH  24  25
ENDBRANCH   1  24
BRANCH   3  35
HETATM   35  O   UNK N   1      19.968  13.876   9.221  0.00  0.00    -0.346 OA
HETATM   36  H   UNK N   1      19.625  13.074   8.877  0.00  0.00     0.219 HD
ENDBRANCH   3  35
BRANCH   4  37
HETATM   37  O   UNK N   1      18.393  18.263   9.532  0.00  0.00    -0.332 OA
HETATM   38  H   UNK N   1      18.289  18.305  10.461  0.00  0.00     0.221 HD
ENDBRANCH   4  37
TORSDOF 20
ENDMDL
MODEL 4
REMARK VINA RESULT:      -5.8     14.722     17.131
REMARK  20 active torsions:
REMARK  status: ('A' for Active; 'I' for Inactive)
REMARK    1  A    between atoms: C_2  and  C_1 
REMARK    2  A    between atoms: C_3  and  C_1 
REMARK    3  A    between atoms: C_4  and  C_2 
REMARK    4  A    between atoms: C_5  and  C_3 
REMARK    5  A    between atoms: C_8  and  C_4 
REMARK    6  A    between atoms: P_29  and  C_5 
REMARK    7  A    between atoms: C_9  and  C_6 
REMARK    8  A    between atoms: N_15  and  C_6 
REMARK    9  A    between atoms: C_10  and  C_7 
REMARK   10  A    between atoms: O_20  and  C_7 
REMARK   11  A    between atoms: C_11  and  C_9 
REMARK   12  A    between atoms: C_9  and  O_21 
REMARK   13  A    between atoms: C_11  and  C_10 
REMARK   14  A    between atoms: C_10  and  O_22 
REMARK   15  A    between atoms: C_11  and  O_23 
REMARK   16  A    between atoms: N_15  and  C_12 
REMARK   17  A    between atoms: O_24  and  C_13 
REMARK   18  A    between atoms: O_25  and  C_14 
REMARK   19  A    between atoms: P_29  and  O_26 
REMARK   20  A    between atoms: P_29  and  O_27 
ROOT
HETATM    1  C   UNK N   1      35.701  13.483  16.712  0.00  0.00     0.037 A 
HETATM    2  C   UNK N   1      36.340  13.638  15.458  0.00  0.00     0.114 A 
HETATM    3  C   UNK N   1      35.890  14.486  17.680  0.00  0.00     0.153 A 
HETATM    4  C   UNK N   1      37.244  15.709  16.179  0.00  0.00     0.224 A 
HETATM    5  N   UNK N   1      37.086  14.753  15.232  0.00  0.00    -0.308 N 
ATOM      6  HN  UNK N   1      37.536  14.873  14.325  1.00  0.00     0.171 HD
HETATM    7  N   UNK N   1      36.656  15.572  17.393  0.00  0.00    -0.302 N 
ATOM      8  HN  UNK N   1      36.791  16.293  18.101  1.00  0.00     0.171 HD
ENDROOT
BRANCH   2   9
HETATM    9  N   UNK N   1      36.244  12.680  14.408  0.00  0.00    -0.373 N 
HETATM   10  H   UNK N   1      36.881  11.930  14.425  0.00  0.00     0.161 HD
BRANCH   9  11
HETATM   11  C   UNK N   1      35.296  12.715  13.318  0.00  0.00     0.155 C 
BRANCH  11  12
HETATM   12  C   UNK N   1      35.886  13.348  12.058  0.00  0.00     0.167 C 
BRANCH  12  13
HETATM   13  C   UNK N   1      35.270  14.733  11.755  0.00  0.00     0.179 C 
BRANCH  13  14
HETATM   14  C   UNK N   1      35.933  15.404  10.536  0.00  0.00     0.173 C 
BRANCH  14  15
HETATM   15  C   UNK N   1      35.000  16.421   9.881  0.00  0.00     0.198 C 
BRANCH  15  16
HETATM   16  O   UNK N   1      35.445  17.725  10.105  0.00  0.00    -0.398 OA
HETATM   17  H   UNK N   1      36.105  18.435  10.122  0.00  0.00     0.209 HD
ENDBRANCH  15  16
ENDBRANCH  14  15
BRANCH  14  18
HETATM   18  O   UNK N   1      37.120  16.045  10.902  0.00  0.00    -0.391 OA
HETATM   19  H   UNK N   1      37.898  15.520  11.150  0.00  0.00     0.210 HD
ENDBRANCH  14  18
ENDBRANCH  13  14
BRANCH  13  20
HETATM   20  O   UNK N   1      33.904  14.588  11.487  0.00  0.00    -0.390 OA
HETATM   21  H   UNK N   1      33.249  14.905  12.128  0.00  0.00     0.210 HD
ENDBRANCH  13  20
ENDBRANCH  12  13
BRANCH  12  22
HETATM   22  O   UNK N   1      37.264  13.464  12.252  0.00  0.00    -0.391 OA
HETATM   23  H   UNK N   1      37.779  12.694  12.540  0.00  0.00     0.210 HD
ENDBRANCH  12  22
ENDBRANCH  11  12
ENDBRANCH   9  11
ENDBRANCH   2   9
BRANCH   1  24
HETATM   24  C   UNK N   1      34.810  12.304  17.002  0.00  0.00     0.047 C 
BRANCH  24  25
HETATM   25  C   UNK N   1      35.477  11.233  17.848  0.00  0.00     0.005 C 
BRANCH  25  26
HETATM   26  C   UNK N   1      36.259  10.247  16.989  0.00  0.00     0.001 C 
BRANCH  26  27
HETATM   27  C   UNK N   1      35.358   9.641  15.932  0.00  0.00     0.012 C 
BRANCH  27  28
HETATM   28  C   UNK N   1      36.088   8.521  15.212  0.00  0.00     0.125 C 
BRANCH  28  29
HETATM   29  P   UNK N   1      37.803   9.081  14.770  0.00  0.00     0.235 P 
HETATM   30  O   UNK N   1      38.631   7.999  14.031  0.00  0.00    -0.653 OA
BRANCH  29  31
HETATM   31  O   UNK N   1      38.401  10.628  14.257  0.00  0.00    -0.329 OA
HETATM   32  H   UNK N   1      38.169  11.428  13.759  0.00  0.00     0.220 HD
ENDBRANCH  29  31
BRANCH  29  33
HETATM   33  O   UNK N   1      36.871   9.260  13.325  0.00  0.00    -0.329 OA
HETATM   34  H   UNK N   1      36.620  10.076  12.865  0.00  0.00     0.220 HD
ENDBRANCH  29  33
ENDBRANCH  28  29
ENDBRANCH  27  28
ENDBRANCH  26  27
ENDBRANCH  25  26
ENDBRANCH  24  25
ENDBRANCH   1  24
BRANCH   3  35
HETATM   35  O   UNK N   1      35.309  14.392  18.889  0.00  0.00    -0.346 OA
HETATM   36  H   UNK N   1      35.539  13.946  19.681  0.00  0.00     0.219 HD
ENDBRANCH   3  35
BRANCH   4  37
HETATM   37  O   UNK N   1      37.985  16.798  15.911  0.00  0.00    -0.332 OA
HETATM   38  H   UNK N   1      37.646  17.539  15.449  0.00  0.00     0.221 HD
ENDBRANCH   4  37
TORSDOF 20
ENDMDL
MODEL 5
REMARK VINA RESULT:      -5.7     12.743     15.183
REMARK  20 active torsions:
REMARK  status: ('A' for Active; 'I' for Inactive)
REMARK    1  A    between atoms: C_2  and  C_1 
REMARK    2  A    between atoms: C_3  and  C_1 
REMARK    3  A    between atoms: C_4  and  C_2 
REMARK    4  A    between atoms: C_5  and  C_3 
REMARK    5  A    between atoms: C_8  and  C_4 
REMARK    6  A    between atoms: P_29  and  C_5 
REMARK    7  A    between atoms: C_9  and  C_6 
REMARK    8  A    between atoms: N_15  and  C_6 
REMARK    9  A    between atoms: C_10  and  C_7 
REMARK   10  A    between atoms: O_20  and  C_7 
REMARK   11  A    between atoms: C_11  and  C_9 
REMARK   12  A    between atoms: C_9  and  O_21 
REMARK   13  A    between atoms: C_11  and  C_10 
REMARK   14  A    between atoms: C_10  and  O_22 
REMARK   15  A    between atoms: C_11  and  O_23 
REMARK   16  A    between atoms: N_15  and  C_12 
REMARK   17  A    between atoms: O_24  and  C_13 
REMARK   18  A    between atoms: O_25  and  C_14 
REMARK   19  A    between atoms: P_29  and  O_26 
REMARK   20  A    between atoms: P_29  and  O_27 
ROOT
HETATM    1  C   UNK N   1      35.291  12.479  14.320  0.00  0.00     0.037 A 
HETATM    2  C   UNK N   1      36.026  13.287  13.418  0.00  0.00     0.114 A 
HETATM    3  C   UNK N   1      35.432  12.726  15.697  0.00  0.00     0.153 A 
HETATM    4  C   UNK N   1      36.923  14.503  15.247  0.00  0.00     0.224 A 
HETATM    5  N   UNK N   1      36.814  14.280  13.915  0.00  0.00    -0.308 N 
ATOM      6  HN  UNK N   1      37.334  14.871  13.267  1.00  0.00     0.171 HD
HETATM    7  N   UNK N   1      36.243  13.728  16.128  0.00  0.00    -0.302 N 
ATOM      8  HN  UNK N   1      36.342  13.899  17.129  1.00  0.00     0.171 HD
ENDROOT
BRANCH   2   9
HETATM    9  N   UNK N   1      35.986  13.118  12.005  0.00  0.00    -0.373 N 
HETATM   10  H   UNK N   1      35.207  12.648  11.630  0.00  0.00     0.161 HD
BRANCH   9  11
HETATM   11  C   UNK N   1      36.992  13.575  11.072  0.00  0.00     0.155 C 
BRANCH  11  12
HETATM   12  C   UNK N   1      36.548  14.823  10.309  0.00  0.00     0.167 C 
BRANCH  12  13
HETATM   13  C   UNK N   1      35.013  14.894  10.146  0.00  0.00     0.179 C 
BRANCH  13  14
HETATM   14  C   UNK N   1      34.575  16.141   9.352  0.00  0.00     0.173 C 
BRANCH  14  15
HETATM   15  C   UNK N   1      33.169  15.974   8.780  0.00  0.00     0.198 C 
BRANCH  15  16
HETATM   16  O   UNK N   1      32.266  15.587   9.772  0.00  0.00    -0.398 OA
HETATM   17  H   UNK N   1      31.925  15.004  10.468  0.00  0.00     0.209 HD
ENDBRANCH  15  16
ENDBRANCH  14  15
BRANCH  14  18
HETATM   18  O   UNK N   1      34.605  17.282  10.158  0.00  0.00    -0.391 OA
HETATM   19  H   UNK N   1      34.294  18.132   9.808  0.00  0.00     0.210 HD
ENDBRANCH  14  18
ENDBRANCH  13  14
BRANCH  13  20
HETATM   20  O   UNK N   1      34.563  13.759   9.462  0.00  0.00    -0.390 OA
HETATM   21  H   UNK N   1      33.683  13.757   9.053  0.00  0.00     0.210 HD
ENDBRANCH  13  20
ENDBRANCH  12  13
BRANCH  12  22
HETATM   22  O   UNK N   1      37.011  15.934  11.016  0.00  0.00    -0.391 OA
HETATM   23  H   UNK N   1      37.015  15.925  11.986  0.00  0.00     0.210 HD
ENDBRANCH  12  22
ENDBRANCH  11  12
ENDBRANCH   9  11
ENDBRANCH   2   9
BRANCH   1  24
HETATM   24  C   UNK N   1      34.353  11.407  13.831  0.00  0.00     0.047 C 
BRANCH  24  25
HETATM   25  C   UNK N   1      35.000  10.037  13.724  0.00  0.00     0.005 C 
BRANCH  25  26
HETATM   26  C   UNK N   1      34.494   9.273  12.507  0.00  0.00     0.001 C 
BRANCH  26  27
HETATM   27  C   UNK N   1      34.040  10.238  11.431  0.00  0.00     0.012 C 
BRANCH  27  28
HETATM   28  C   UNK N   1      34.375   9.679  10.060  0.00  0.00     0.125 C 
BRANCH  28  29
HETATM   29  P   UNK N   1      33.132  10.286   8.821  0.00  0.00     0.235 P 
HETATM   30  O   UNK N   1      31.681   9.840   9.137  0.00  0.00    -0.653 OA
BRANCH  29  31
HETATM   31  O   UNK N   1      33.033  11.781   7.944  0.00  0.00    -0.329 OA
HETATM   32  H   UNK N   1      33.315  12.229   7.130  0.00  0.00     0.220 HD
ENDBRANCH  29  31
BRANCH  29  33
HETATM   33  O   UNK N   1      33.019  11.373  10.161  0.00  0.00    -0.329 OA
HETATM   34  H   UNK N   1      33.522  12.187  10.323  0.00  0.00     0.220 HD
ENDBRANCH  29  33
ENDBRANCH  28  29
ENDBRANCH  27  28
ENDBRANCH  26  27
ENDBRANCH  25  26
ENDBRANCH  24  25
ENDBRANCH   1  24
BRANCH   3  35
HETATM   35  O   UNK N   1      34.760  11.990  16.599  0.00  0.00    -0.346 OA
HETATM   36  H   UNK N   1      34.980  11.232  17.103  0.00  0.00     0.219 HD
ENDBRANCH   3  35
BRANCH   4  37
HETATM   37  O   UNK N   1      37.709  15.498  15.694  0.00  0.00    -0.332 OA
HETATM   38  H   UNK N   1      37.892  16.263  15.188  0.00  0.00     0.221 HD
ENDBRANCH   4  37
TORSDOF 20
ENDMDL
MODEL 6
REMARK VINA RESULT:      -5.7      2.911      8.399
REMARK  20 active torsions:
REMARK  status: ('A' for Active; 'I' for Inactive)
REMARK    1  A    between atoms: C_2  and  C_1 
REMARK    2  A    between atoms: C_3  and  C_1 
REMARK    3  A    between atoms: C_4  and  C_2 
REMARK    4  A    between atoms: C_5  and  C_3 
REMARK    5  A    between atoms: C_8  and  C_4 
REMARK    6  A    between atoms: P_29  and  C_5 
REMARK    7  A    between atoms: C_9  and  C_6 
REMARK    8  A    between atoms: N_15  and  C_6 
REMARK    9  A    between atoms: C_10  and  C_7 
REMARK   10  A    between atoms: O_20  and  C_7 
REMARK   11  A    between atoms: C_11  and  C_9 
REMARK   12  A    between atoms: C_9  and  O_21 
REMARK   13  A    between atoms: C_11  and  C_10 
REMARK   14  A    between atoms: C_10  and  O_22 
REMARK   15  A    between atoms: C_11  and  O_23 
REMARK   16  A    between atoms: N_15  and  C_12 
REMARK   17  A    between atoms: O_24  and  C_13 
REMARK   18  A    between atoms: O_25  and  C_14 
REMARK   19  A    between atoms: P_29  and  O_26 
REMARK   20  A    between atoms: P_29  and  O_27 
ROOT
HETATM    1  C   UNK N   1      21.596  15.741   7.110  0.00  0.00     0.037 A 
HETATM    2  C   UNK N   1      21.700  14.339   7.280  0.00  0.00     0.114 A 
HETATM    3  C   UNK N   1      20.745  16.451   7.976  0.00  0.00     0.153 A 
HETATM    4  C   UNK N   1      20.193  14.452   9.108  0.00  0.00     0.224 A 
HETATM    5  N   UNK N   1      20.999  13.742   8.282  0.00  0.00    -0.308 N 
ATOM      6  HN  UNK N   1      21.082  12.735   8.414  1.00  0.00     0.171 HD
HETATM    7  N   UNK N   1      20.064  15.793   8.951  0.00  0.00    -0.302 N 
ATOM      8  HN  UNK N   1      19.446  16.315   9.573  1.00  0.00     0.171 HD
ENDROOT
BRANCH   2   9
HETATM    9  N   UNK N   1      22.509  13.508   6.452  0.00  0.00    -0.373 N 
HETATM   10  H   UNK N   1      22.099  13.164   5.625  0.00  0.00     0.161 HD
BRANCH   9  11
HETATM   11  C   UNK N   1      23.876  13.124   6.720  0.00  0.00     0.155 C 
BRANCH  11  12
HETATM   12  C   UNK N   1      24.295  13.444   8.154  0.00  0.00     0.167 C 
BRANCH  12  13
HETATM   13  C   UNK N   1      24.235  12.203   9.073  0.00  0.00     0.179 C 
BRANCH  13  14
HETATM   14  C   UNK N   1      23.944  12.584  10.538  0.00  0.00     0.173 C 
BRANCH  14  15
HETATM   15  C   UNK N   1      22.998  11.584  11.198  0.00  0.00     0.198 C 
BRANCH  15  16
HETATM   16  O   UNK N   1      21.667  11.880  10.899  0.00  0.00    -0.398 OA
HETATM   17  H   UNK N   1      20.952  12.411  10.514  0.00  0.00     0.209 HD
ENDBRANCH  15  16
ENDBRANCH  14  15
BRANCH  14  18
HETATM   18  O   UNK N   1      25.126  12.651  11.281  0.00  0.00    -0.391 OA
HETATM   19  H   UNK N   1      25.317  11.975  11.951  0.00  0.00     0.210 HD
ENDBRANCH  14  18
ENDBRANCH  13  14
BRANCH  13  20
HETATM   20  O   UNK N   1      23.221  11.345   8.633  0.00  0.00    -0.390 OA
HETATM   21  H   UNK N   1      23.301  10.389   8.771  0.00  0.00     0.210 HD
ENDBRANCH  13  20
ENDBRANCH  12  13
BRANCH  12  22
HETATM   22  O   UNK N   1      25.596  13.949   8.109  0.00  0.00    -0.391 OA
HETATM   23  H   UNK N   1      25.844  14.703   8.668  0.00  0.00     0.210 HD
ENDBRANCH  12  22
ENDBRANCH  11  12
ENDBRANCH   9  11
ENDBRANCH   2   9
BRANCH   1  24
HETATM   24  C   UNK N   1      22.395  16.469   6.062  0.00  0.00     0.047 C 
BRANCH  24  25
HETATM   25  C   UNK N   1      21.678  16.593   4.729  0.00  0.00     0.005 C 
BRANCH  25  26
HETATM   26  C   UNK N   1      22.405  17.546   3.788  0.00  0.00     0.001 C 
BRANCH  26  27
HETATM   27  C   UNK N   1      22.129  18.983   4.180  0.00  0.00     0.012 C 
BRANCH  27  28
HETATM   28  C   UNK N   1      22.352  19.895   2.987  0.00  0.00     0.125 C 
BRANCH  28  29
HETATM   29  P   UNK N   1      20.792  19.997   1.983  0.00  0.00     0.235 P 
HETATM   30  O   UNK N   1      19.526  19.571   2.770  0.00  0.00    -0.653 OA
BRANCH  29  31
HETATM   31  O   UNK N   1      20.289  21.132   0.770  0.00  0.00    -0.329 OA
HETATM   32  H   UNK N   1      19.898  22.010   0.637  0.00  0.00     0.220 HD
ENDBRANCH  29  31
BRANCH  29  33
HETATM   33  O   UNK N   1      20.822  21.437   2.938  0.00  0.00    -0.329 OA
HETATM   34  H   UNK N   1      20.141  22.123   3.019  0.00  0.00     0.220 HD
ENDBRANCH  29  33
ENDBRANCH  28  29
ENDBRANCH  27  28
ENDBRANCH  26  27
ENDBRANCH  25  26
ENDBRANCH  24  25
ENDBRANCH   1  24
BRANCH   3  35
HETATM   35  O   UNK N   1      20.605  17.783   7.860  0.00  0.00    -0.346 OA
HETATM   36  H   UNK N   1      20.552  18.482   8.482  0.00  0.00     0.219 HD
ENDBRANCH   3  35
BRANCH   4  37
HETATM   37  O   UNK N   1      19.523  13.823  10.089  0.00  0.00    -0.332 OA
HETATM   38  H   UNK N   1      18.646  13.512   9.982  0.00  0.00     0.221 HD
ENDBRANCH   4  37
TORSDOF 20
ENDMDL
MODEL 7
REMARK VINA RESULT:      -5.7     11.133     14.173
REMARK  20 active torsions:
REMARK  status: ('A' for Active; 'I' for Inactive)
REMARK    1  A    between atoms: C_2  and  C_1 
REMARK    2  A    between atoms: C_3  and  C_1 
REMARK    3  A    between atoms: C_4  and  C_2 
REMARK    4  A    between atoms: C_5  and  C_3 
REMARK    5  A    between atoms: C_8  and  C_4 
REMARK    6  A    between atoms: P_29  and  C_5 
REMARK    7  A    between atoms: C_9  and  C_6 
REMARK    8  A    between atoms: N_15  and  C_6 
REMARK    9  A    between atoms: C_10  and  C_7 
REMARK   10  A    between atoms: O_20  and  C_7 
REMARK   11  A    between atoms: C_11  and  C_9 
REMARK   12  A    between atoms: C_9  and  O_21 
REMARK   13  A    between atoms: C_11  and  C_10 
REMARK   14  A    between atoms: C_10  and  O_22 
REMARK   15  A    between atoms: C_11  and  O_23 
REMARK   16  A    between atoms: N_15  and  C_12 
REMARK   17  A    between atoms: O_24  and  C_13 
REMARK   18  A    between atoms: O_25  and  C_14 
REMARK   19  A    between atoms: P_29  and  O_26 
REMARK   20  A    between atoms: P_29  and  O_27 
ROOT
HETATM    1  C   UNK N   1      33.757  16.237   6.504  0.00  0.00     0.037 A 
HETATM    2  C   UNK N   1      34.496  15.737   7.604  0.00  0.00     0.114 A 
HETATM    3  C   UNK N   1      34.172  15.878   5.209  0.00  0.00     0.153 A 
HETATM    4  C   UNK N   1      35.926  14.576   6.109  0.00  0.00     0.224 A 
HETATM    5  N   UNK N   1      35.554  14.915   7.367  0.00  0.00    -0.308 N 
ATOM      6  HN  UNK N   1      36.080  14.543   8.158  1.00  0.00     0.171 HD
HETATM    7  N   UNK N   1      35.245  15.060   5.041  0.00  0.00    -0.302 N 
ATOM      8  HN  UNK N   1      35.541  14.807   4.099  1.00  0.00     0.171 HD
ENDROOT
BRANCH   2   9
HETATM    9  N   UNK N   1      34.190  16.049   8.959  0.00  0.00    -0.373 N 
HETATM   10  H   UNK N   1      33.400  15.613   9.353  0.00  0.00     0.161 HD
BRANCH   9  11
HETATM   11  C   UNK N   1      34.937  16.950   9.807  0.00  0.00     0.155 C 
BRANCH  11  12
HETATM   12  C   UNK N   1      35.574  16.231  10.996  0.00  0.00     0.167 C 
BRANCH  12  13
HETATM   13  C   UNK N   1      34.983  14.820  11.211  0.00  0.00     0.179 C 
BRANCH  13  14
HETATM   14  C   UNK N   1      35.640  14.096  12.403  0.00  0.00     0.173 C 
BRANCH  14  15
HETATM   15  C   UNK N   1      36.524  12.940  11.937  0.00  0.00     0.198 C 
BRANCH  15  16
HETATM   16  O   UNK N   1      37.824  13.377  11.676  0.00  0.00    -0.398 OA
HETATM   17  H   UNK N   1      38.724  13.647  11.919  0.00  0.00     0.209 HD
ENDBRANCH  15  16
ENDBRANCH  14  15
BRANCH  14  18
HETATM   18  O   UNK N   1      36.411  14.980  13.162  0.00  0.00    -0.391 OA
HETATM   19  H   UNK N   1      36.148  15.911  13.236  0.00  0.00     0.210 HD
ENDBRANCH  14  18
ENDBRANCH  13  14
BRANCH  13  20
HETATM   20  O   UNK N   1      33.610  14.921  11.462  0.00  0.00    -0.390 OA
HETATM   21  H   UNK N   1      33.178  15.788  11.444  0.00  0.00     0.210 HD
ENDBRANCH  13  20
ENDBRANCH  12  13
BRANCH  12  22
HETATM   22  O   UNK N   1      36.946  16.150  10.752  0.00  0.00    -0.391 OA
HETATM   23  H   UNK N   1      37.340  15.308  10.472  0.00  0.00     0.210 HD
ENDBRANCH  12  22
ENDBRANCH  11  12
ENDBRANCH   9  11
ENDBRANCH   2   9
BRANCH   1  24
HETATM   24  C   UNK N   1      32.538  17.099   6.701  0.00  0.00     0.047 C 
BRANCH  24  25
HETATM   25  C   UNK N   1      31.231  16.370   6.444  0.00  0.00     0.005 C 
BRANCH  25  26
HETATM   26  C   UNK N   1      30.253  17.234   5.658  0.00  0.00     0.001 C 
BRANCH  26  27
HETATM   27  C   UNK N   1      28.888  17.215   6.317  0.00  0.00     0.012 C 
BRANCH  27  28
HETATM   28  C   UNK N   1      28.767  18.379   7.285  0.00  0.00     0.125 C 
BRANCH  28  29
HETATM   29  P   UNK N   1      28.799  17.740   9.029  0.00  0.00     0.235 P 
HETATM   30  O   UNK N   1      29.442  18.730  10.033  0.00  0.00    -0.653 OA
BRANCH  29  31
HETATM   31  O   UNK N   1      27.655  16.778   9.912  0.00  0.00    -0.329 OA
HETATM   32  H   UNK N   1      27.170  15.938   9.903  0.00  0.00     0.220 HD
ENDBRANCH  29  31
BRANCH  29  33
HETATM   33  O   UNK N   1      27.439  18.806   8.951  0.00  0.00    -0.329 OA
HETATM   34  H   UNK N   1      27.218  19.455   8.265  0.00  0.00     0.220 HD
ENDBRANCH  29  33
ENDBRANCH  28  29
ENDBRANCH  27  28
ENDBRANCH  26  27
ENDBRANCH  25  26
ENDBRANCH  24  25
ENDBRANCH   1  24
BRANCH   3  35
HETATM   35  O   UNK N   1      33.509  16.325   4.128  0.00  0.00    -0.346 OA
HETATM   36  H   UNK N   1      33.455  17.159   3.705  0.00  0.00     0.219 HD
ENDBRANCH   3  35
BRANCH   4  37
HETATM   37  O   UNK N   1      36.975  13.757   5.921  0.00  0.00    -0.332 OA
HETATM   38  H   UNK N   1      37.117  12.990   6.439  0.00  0.00     0.221 HD
ENDBRANCH   4  37
TORSDOF 20
ENDMDL
MODEL 8
REMARK VINA RESULT:      -5.6      3.579      5.670
REMARK  20 active torsions:
REMARK  status: ('A' for Active; 'I' for Inactive)
REMARK    1  A    between atoms: C_2  and  C_1 
REMARK    2  A    between atoms: C_3  and  C_1 
REMARK    3  A    between atoms: C_4  and  C_2 
REMARK    4  A    between atoms: C_5  and  C_3 
REMARK    5  A    between atoms: C_8  and  C_4 
REMARK    6  A    between atoms: P_29  and  C_5 
REMARK    7  A    between atoms: C_9  and  C_6 
REMARK    8  A    between atoms: N_15  and  C_6 
REMARK    9  A    between atoms: C_10  and  C_7 
REMARK   10  A    between atoms: O_20  and  C_7 
REMARK   11  A    between atoms: C_11  and  C_9 
REMARK   12  A    between atoms: C_9  and  O_21 
REMARK   13  A    between atoms: C_11  and  C_10 
REMARK   14  A    between atoms: C_10  and  O_22 
REMARK   15  A    between atoms: C_11  and  O_23 
REMARK   16  A    between atoms: N_15  and  C_12 
REMARK   17  A    between atoms: O_24  and  C_13 
REMARK   18  A    between atoms: O_25  and  C_14 
REMARK   19  A    between atoms: P_29  and  O_26 
REMARK   20  A    between atoms: P_29  and  O_27 
ROOT
HETATM    1  C   UNK N   1      20.839  17.786   3.296  0.00  0.00     0.037 A 
HETATM    2  C   UNK N   1      22.162  18.152   3.641  0.00  0.00     0.114 A 
HETATM    3  C   UNK N   1      19.992  18.778   2.770  0.00  0.00     0.153 A 
HETATM    4  C   UNK N   1      21.734  20.368   2.911  0.00  0.00     0.224 A 
HETATM    5  N   UNK N   1      22.568  19.434   3.429  0.00  0.00    -0.308 N 
ATOM      6  HN  UNK N   1      23.524  19.697   3.664  1.00  0.00     0.171 HD
HETATM    7  N   UNK N   1      20.457  20.043   2.592  0.00  0.00    -0.302 N 
ATOM      8  HN  UNK N   1      19.836  20.758   2.212  1.00  0.00     0.171 HD
ENDROOT
BRANCH   2   9
HETATM    9  N   UNK N   1      23.105  17.245   4.204  0.00  0.00    -0.373 N 
HETATM   10  H   UNK N   1      22.827  16.752   5.010  0.00  0.00     0.161 HD
BRANCH   9  11
HETATM   11  C   UNK N   1      24.433  16.985   3.697  0.00  0.00     0.155 C 
BRANCH  11  12
HETATM   12  C   UNK N   1      25.500  17.095   4.785  0.00  0.00     0.167 C 
BRANCH  12  13
HETATM   13  C   UNK N   1      25.994  18.547   4.975  0.00  0.00     0.179 C 
BRANCH  13  14
HETATM   14  C   UNK N   1      26.592  19.126   3.677  0.00  0.00     0.173 C 
BRANCH  14  15
HETATM   15  C   UNK N   1      26.053  20.525   3.389  0.00  0.00     0.198 C 
BRANCH  15  16
HETATM   16  O   UNK N   1      25.144  20.504   2.329  0.00  0.00    -0.398 OA
HETATM   17  H   UNK N   1      24.277  20.356   1.921  0.00  0.00     0.209 HD
ENDBRANCH  15  16
ENDBRANCH  14  15
BRANCH  14  18
HETATM   18  O   UNK N   1      27.987  19.182   3.751  0.00  0.00    -0.391 OA
HETATM   19  H   UNK N   1      28.428  19.168   4.616  0.00  0.00     0.210 HD
ENDBRANCH  14  18
ENDBRANCH  13  14
BRANCH  13  20
HETATM   20  O   UNK N   1      24.923  19.358   5.364  0.00  0.00    -0.390 OA
HETATM   21  H   UNK N   1      24.070  19.285   4.909  0.00  0.00     0.210 HD
ENDBRANCH  13  20
ENDBRANCH  12  13
BRANCH  12  22
HETATM   22  O   UNK N   1      24.940  16.616   5.972  0.00  0.00    -0.391 OA
HETATM   23  H   UNK N   1      24.016  16.320   5.987  0.00  0.00     0.210 HD
ENDBRANCH  12  22
ENDBRANCH  11  12
ENDBRANCH   9  11
ENDBRANCH   2   9
BRANCH   1  24
HETATM   24  C   UNK N   1      20.349  16.370   3.447  0.00  0.00     0.047 C 
BRANCH  24  25
HETATM   25  C   UNK N   1      19.501  16.149   4.686  0.00  0.00     0.005 C 
BRANCH  25  26
HETATM   26  C   UNK N   1      20.247  16.544   5.955  0.00  0.00     0.001 C 
BRANCH  26  27
HETATM   27  C   UNK N   1      20.006  15.521   7.046  0.00  0.00     0.012 C 
BRANCH  27  28
HETATM   28  C   UNK N   1      20.046  16.197   8.405  0.00  0.00     0.125 C 
BRANCH  28  29
HETATM   29  P   UNK N   1      18.445  17.093   8.700  0.00  0.00     0.235 P 
HETATM   30  O   UNK N   1      17.289  16.599   7.792  0.00  0.00    -0.653 OA
BRANCH  29  31
HETATM   31  O   UNK N   1      17.731  17.701  10.161  0.00  0.00    -0.329 OA
HETATM   32  H   UNK N   1      17.371  18.499  10.580  0.00  0.00     0.220 HD
ENDBRANCH  29  31
BRANCH  29  33
HETATM   33  O   UNK N   1      18.310  15.604   9.569  0.00  0.00    -0.329 OA
HETATM   34  H   UNK N   1      17.580  15.295  10.128  0.00  0.00     0.220 HD
ENDBRANCH  29  33
ENDBRANCH  28  29
ENDBRANCH  27  28
ENDBRANCH  26  27
ENDBRANCH  25  26
ENDBRANCH  24  25
ENDBRANCH   1  24
BRANCH   3  35
HETATM   35  O   UNK N   1      18.725  18.488   2.426  0.00  0.00    -0.346 OA
HETATM   36  H   UNK N   1      18.303  18.322   1.607  0.00  0.00     0.219 HD
ENDBRANCH   3  35
BRANCH   4  37
HETATM   37  O   UNK N   1      22.178  21.621   2.712  0.00  0.00    -0.332 OA
HETATM   38  H   UNK N   1      22.472  22.170   3.411  0.00  0.00     0.221 HD
ENDBRANCH   4  37
TORSDOF 20
ENDMDL
MODEL 9
REMARK VINA RESULT:      -5.6      9.468     11.797
REMARK  20 active torsions:
REMARK  status: ('A' for Active; 'I' for Inactive)
REMARK    1  A    between atoms: C_2  and  C_1 
REMARK    2  A    between atoms: C_3  and  C_1 
REMARK    3  A    between atoms: C_4  and  C_2 
REMARK    4  A    between atoms: C_5  and  C_3 
REMARK    5  A    between atoms: C_8  and  C_4 
REMARK    6  A    between atoms: P_29  and  C_5 
REMARK    7  A    between atoms: C_9  and  C_6 
REMARK    8  A    between atoms: N_15  and  C_6 
REMARK    9  A    between atoms: C_10  and  C_7 
REMARK   10  A    between atoms: O_20  and  C_7 
REMARK   11  A    between atoms: C_11  and  C_9 
REMARK   12  A    between atoms: C_9  and  O_21 
REMARK   13  A    between atoms: C_11  and  C_10 
REMARK   14  A    between atoms: C_10  and  O_22 
REMARK   15  A    between atoms: C_11  and  O_23 
REMARK   16  A    between atoms: N_15  and  C_12 
REMARK   17  A    between atoms: O_24  and  C_13 
REMARK   18  A    between atoms: O_25  and  C_14 
REMARK   19  A    between atoms: P_29  and  O_26 
REMARK   20  A    between atoms: P_29  and  O_27 
ROOT
HETATM    1  C   UNK N   1      29.700  17.607   6.033  0.00  0.00     0.037 A 
HETATM    2  C   UNK N   1      30.176  17.084   7.261  0.00  0.00     0.114 A 
HETATM    3  C   UNK N   1      28.448  18.249   6.027  0.00  0.00     0.153 A 
HETATM    4  C   UNK N   1      28.223  17.876   8.350  0.00  0.00     0.224 A 
HETATM    5  N   UNK N   1      29.421  17.244   8.382  0.00  0.00    -0.308 N 
ATOM      6  HN  UNK N   1      29.767  16.880   9.269  1.00  0.00     0.171 HD
HETATM    7  N   UNK N   1      27.739  18.366   7.182  0.00  0.00    -0.302 N 
ATOM      8  HN  UNK N   1      26.831  18.831   7.169  1.00  0.00     0.171 HD
ENDROOT
BRANCH   2   9
HETATM    9  N   UNK N   1      31.414  16.393   7.389  0.00  0.00    -0.373 N 
HETATM   10  H   UNK N   1      31.701  15.840   6.627  0.00  0.00     0.161 HD
BRANCH   9  11
HETATM   11  C   UNK N   1      32.285  16.430   8.542  0.00  0.00     0.155 C 
BRANCH  11  12
HETATM   12  C   UNK N   1      32.199  15.150   9.373  0.00  0.00     0.167 C 
BRANCH  12  13
HETATM   13  C   UNK N   1      33.576  14.713   9.921  0.00  0.00     0.179 C 
BRANCH  13  14
HETATM   14  C   UNK N   1      34.726  15.541   9.315  0.00  0.00     0.173 C 
BRANCH  14  15
HETATM   15  C   UNK N   1      35.632  16.119  10.400  0.00  0.00     0.198 C 
BRANCH  15  16
HETATM   16  O   UNK N   1      35.062  17.256  10.975  0.00  0.00    -0.398 OA
HETATM   17  H   UNK N   1      35.014  18.202  11.187  0.00  0.00     0.209 HD
ENDBRANCH  15  16
ENDBRANCH  14  15
BRANCH  14  18
HETATM   18  O   UNK N   1      35.497  14.763   8.446  0.00  0.00    -0.391 OA
HETATM   19  H   UNK N   1      36.453  14.679   8.589  0.00  0.00     0.210 HD
ENDBRANCH  14  18
ENDBRANCH  13  14
BRANCH  13  20
HETATM   20  O   UNK N   1      33.600  14.881  11.310  0.00  0.00    -0.390 OA
HETATM   21  H   UNK N   1      33.244  14.188  11.888  0.00  0.00     0.210 HD
ENDBRANCH  13  20
ENDBRANCH  12  13
BRANCH  12  22
HETATM   22  O   UNK N   1      31.314  15.393  10.426  0.00  0.00    -0.391 OA
HETATM   23  H   UNK N   1      31.294  14.795  11.191  0.00  0.00     0.210 HD
ENDBRANCH  12  22
ENDBRANCH  11  12
ENDBRANCH   9  11
ENDBRANCH   2   9
BRANCH   1  24
HETATM   24  C   UNK N   1      30.516  17.519   4.771  0.00  0.00     0.047 C 
BRANCH  24  25
HETATM   25  C   UNK N   1      30.110  16.371   3.864  0.00  0.00     0.005 C 
BRANCH  25  26
HETATM   26  C   UNK N   1      31.325  15.679   3.258  0.00  0.00     0.001 C 
BRANCH  26  27
HETATM   27  C   UNK N   1      32.602  16.269   3.822  0.00  0.00     0.012 C 
BRANCH  27  28
HETATM   28  C   UNK N   1      33.626  15.170   4.042  0.00  0.00     0.125 C 
BRANCH  28  29
HETATM   29  P   UNK N   1      32.812  13.720   4.870  0.00  0.00     0.235 P 
HETATM   30  O   UNK N   1      33.758  12.506   5.055  0.00  0.00    -0.653 OA
BRANCH  29  31
HETATM   31  O   UNK N   1      31.627  13.648   6.138  0.00  0.00    -0.329 OA
HETATM   32  H   UNK N   1      31.291  13.096   6.862  0.00  0.00     0.220 HD
ENDBRANCH  29  31
BRANCH  29  33
HETATM   33  O   UNK N   1      33.705  14.522   6.114  0.00  0.00    -0.329 OA
HETATM   34  H   UNK N   1      34.417  14.170   6.671  0.00  0.00     0.220 HD
ENDBRANCH  29  33
ENDBRANCH  28  29
ENDBRANCH  27  28
ENDBRANCH  26  27
ENDBRANCH  25  26
ENDBRANCH  24  25
ENDBRANCH   1  24
BRANCH   3  35
HETATM   35  O   UNK N   1      27.946  18.763   4.891  0.00  0.00    -0.346 OA
HETATM   36  H   UNK N   1      27.097  19.074   4.646  0.00  0.00     0.219 HD
ENDBRANCH   3  35
BRANCH   4  37
HETATM   37  O   UNK N   1      27.512  18.016   9.482  0.00  0.00    -0.332 OA
HETATM   38  H   UNK N   1      27.818  17.710  10.312  0.00  0.00     0.221 HD
ENDBRANCH   4  37
TORSDOF 20
ENDMDL
