REMARK  7 active torsions:
REMARK  status: ('A' for Active; 'I' for Inactive)
REMARK    1  A    between atoms: C_2  and  C_1 
REMARK    2  A    between atoms: O_7  and  C_1 
REMARK    3  A    between atoms: C_3  and  C_2 
REMARK    4  A    between atoms: C_2  and  O_6 
REMARK    5  A    between atoms: C_3  and  C_11 
REMARK    6  A    between atoms: C_4  and  C_3 
REMARK    7  A    between atoms: O_9  and  C_4 
ROOT
HETATM    1  C   UNK N   1      -0.863   0.554  -0.223  0.00  0.00     0.126 C 
ENDROOT
BRANCH   1   2
HETATM    2  C   UNK N   1       0.372  -0.241   0.299  0.00  0.00     0.230 C 
BRANCH   2   3
HETATM    3  C   UNK N   1       1.702   0.338  -0.113  0.00  0.00     0.170 C 
HETATM    4  O   UNK N   1       1.770   1.243  -0.932  0.00  0.00    -0.648 OA
BRANCH   3   5
HETATM    5  O   UNK N   1       2.835  -0.183   0.394  0.00  0.00    -0.774 OA
HETATM    6  H   UNK N   1       2.915  -1.047   0.747  0.00  0.00     0.167 HD
ENDBRANCH   3   5
ENDBRANCH   2   3
BRANCH   2   7
HETATM    7  O   UNK N   1       0.351  -1.561  -0.163  0.00  0.00    -0.384 OA
HETATM    8  H   UNK N   1      -0.449  -2.006  -0.484  0.00  0.00     0.210 HD
ENDBRANCH   2   7
ENDBRANCH   1   2
BRANCH   1   9
HETATM    9  C   UNK N   1      -1.088   1.902   0.516  0.00  0.00    -0.006 C 
HETATM   10  C   UNK N   1       0.157   2.697   0.867  0.00  0.00     0.010 C 
HETATM   11  C   UNK N   1      -1.992   2.812  -0.300  0.00  0.00     0.010 C 
ENDBRANCH   1   9
BRANCH   1  12
HETATM   12  C   UNK N   1      -2.161  -0.242  -0.127  0.00  0.00     0.147 C 
HETATM   13  O   UNK N   1      -2.187  -1.348   0.392  0.00  0.00    -0.650 OA
BRANCH  12  14
HETATM   14  O   UNK N   1      -3.305   0.278  -0.610  0.00  0.00    -0.776 OA
HETATM   15  H   UNK N   1      -3.390   1.149  -0.945  0.00  0.00     0.167 HD
ENDBRANCH  12  14
ENDBRANCH   1  12
TORSDOF 7
