MODEL 1
REMARK VINA RESULT:      -5.1      0.000      0.000
REMARK  6 active torsions:
REMARK  status: ('A' for Active; 'I' for Inactive)
REMARK       I    between atoms: N_1  and  C_2 
REMARK       I    between atoms: C_2  and  N_4 
REMARK    1  A    between atoms: C_5  and  N_4 
REMARK    2  A    between atoms: C_5  and  C_6 
REMARK    3  A    between atoms: C_5  and  C_10 
REMARK    4  A    between atoms: C_6  and  C_7 
REMARK    5  A    between atoms: C_7  and  O_8 
REMARK    6  A    between atoms: C_10  and  O_11 
ROOT
HETATM    1  C   UNK N   1      20.371  18.879   1.964  0.00  0.00     0.194 C 
ENDROOT
BRANCH   1   2
HETATM    2  N   UNK N   1      19.380  18.002   1.346  0.00  0.00    -0.328 N 
HETATM    3  C   UNK N   1      19.474  17.002   0.431  0.00  0.00     0.314 C 
HETATM    4  N   UNK N   1      18.351  16.363   0.050  0.00  0.00    -0.352 N 
HETATM    5  O   UNK N   1      20.535  16.667  -0.052  0.00  0.00    -0.248 OA
HETATM    6  H   UNK N   1      17.482  16.623   0.433  0.00  0.00     0.160 HD
HETATM    7  H   UNK N   1      18.398  15.635  -0.611  0.00  0.00     0.160 HD
HETATM    8  H   UNK N   1      18.460  18.169   1.654  0.00  0.00     0.165 HD
ENDBRANCH   1   2
BRANCH   1   9
HETATM    9  C   UNK N   1      20.795  18.275   3.321  0.00  0.00     0.146 C 
BRANCH   9  10
HETATM   10  C   UNK N   1      20.226  17.028   3.941  0.00  0.00     0.141 C 
HETATM   11  O   UNK N   1      20.930  16.155   4.407  0.00  0.00    -0.650 OA
BRANCH  10  12
HETATM   12  O   UNK N   1      18.891  16.880   3.978  0.00  0.00    -0.776 OA
HETATM   13  H   UNK N   1      18.502  16.283   4.587  0.00  0.00     0.167 HD
ENDBRANCH  10  12
ENDBRANCH   9  10
ENDBRANCH   1   9
BRANCH   1  14
HETATM   14  C   UNK N   1      20.880  20.184   1.327  0.00  0.00     0.164 C 
HETATM   15  O   UNK N   1      21.517  20.984   1.983  0.00  0.00    -0.648 OA
BRANCH  14  16
HETATM   16  O   UNK N   1      20.646  20.485   0.042  0.00  0.00    -0.775 OA
HETATM   17  H   UNK N   1      21.268  20.246  -0.617  0.00  0.00     0.167 HD
ENDBRANCH  14  16
ENDBRANCH   1  14
TORSDOF 6
ENDMDL
MODEL 2
REMARK VINA RESULT:      -5.0     14.242     15.192
REMARK  6 active torsions:
REMARK  status: ('A' for Active; 'I' for Inactive)
REMARK       I    between atoms: N_1  and  C_2 
REMARK       I    between atoms: C_2  and  N_4 
REMARK    1  A    between atoms: C_5  and  N_4 
REMARK    2  A    between atoms: C_5  and  C_6 
REMARK    3  A    between atoms: C_5  and  C_10 
REMARK    4  A    between atoms: C_6  and  C_7 
REMARK    5  A    between atoms: C_7  and  O_8 
REMARK    6  A    between atoms: C_10  and  O_11 
ROOT
HETATM    1  C   UNK N   1      34.032  17.109   8.937  0.00  0.00     0.194 C 
ENDROOT
BRANCH   1   2
HETATM    2  N   UNK N   1      32.620  16.994   9.295  0.00  0.00    -0.328 N 
HETATM    3  C   UNK N   1      31.472  17.140   8.584  0.00  0.00     0.314 C 
HETATM    4  N   UNK N   1      30.293  16.965   9.210  0.00  0.00    -0.352 N 
HETATM    5  O   UNK N   1      31.475  17.423   7.404  0.00  0.00    -0.248 OA
HETATM    6  H   UNK N   1      30.274  16.735  10.168  0.00  0.00     0.160 HD
HETATM    7  H   UNK N   1      29.450  17.067   8.713  0.00  0.00     0.160 HD
HETATM    8  H   UNK N   1      32.471  16.764  10.240  0.00  0.00     0.165 HD
ENDBRANCH   1   2
BRANCH   1   9
HETATM    9  C   UNK N   1      34.821  15.989   9.650  0.00  0.00     0.146 C 
BRANCH   9  10
HETATM   10  C   UNK N   1      34.221  14.774  10.304  0.00  0.00     0.141 C 
HETATM   11  O   UNK N   1      34.601  13.648  10.056  0.00  0.00    -0.650 OA
BRANCH  10  12
HETATM   12  O   UNK N   1      33.228  14.948  11.194  0.00  0.00    -0.776 OA
HETATM   13  H   UNK N   1      32.533  15.550  11.009  0.00  0.00     0.167 HD
ENDBRANCH  10  12
ENDBRANCH   9  10
ENDBRANCH   1   9
BRANCH   1  14
HETATM   14  C   UNK N   1      34.594  18.189   7.997  0.00  0.00     0.164 C 
HETATM   15  O   UNK N   1      35.231  19.124   8.441  0.00  0.00    -0.648 OA
BRANCH  14  16
HETATM   16  O   UNK N   1      34.407  18.144   6.670  0.00  0.00    -0.775 OA
HETATM   17  H   UNK N   1      34.200  18.927   6.199  0.00  0.00     0.167 HD
ENDBRANCH  14  16
ENDBRANCH   1  14
TORSDOF 6
ENDMDL
MODEL 3
REMARK VINA RESULT:      -5.0     14.365     15.473
REMARK  6 active torsions:
REMARK  status: ('A' for Active; 'I' for Inactive)
REMARK       I    between atoms: N_1  and  C_2 
REMARK       I    between atoms: C_2  and  N_4 
REMARK    1  A    between atoms: C_5  and  N_4 
REMARK    2  A    between atoms: C_5  and  C_6 
REMARK    3  A    between atoms: C_5  and  C_10 
REMARK    4  A    between atoms: C_6  and  C_7 
REMARK    5  A    between atoms: C_7  and  O_8 
REMARK    6  A    between atoms: C_10  and  O_11 
ROOT
HETATM    1  C   UNK N   1      33.489  17.411   8.741  0.00  0.00     0.194 C 
ENDROOT
BRANCH   1   2
HETATM    2  N   UNK N   1      33.924  16.475   9.776  0.00  0.00    -0.328 N 
HETATM    3  C   UNK N   1      35.012  16.438  10.589  0.00  0.00     0.314 C 
HETATM    4  N   UNK N   1      35.135  15.420  11.462  0.00  0.00    -0.352 N 
HETATM    5  O   UNK N   1      35.873  17.291  10.553  0.00  0.00    -0.248 OA
HETATM    6  H   UNK N   1      34.444  14.719  11.502  0.00  0.00     0.160 HD
HETATM    7  H   UNK N   1      35.915  15.375  12.059  0.00  0.00     0.160 HD
HETATM    8  H   UNK N   1      33.306  15.721   9.910  0.00  0.00     0.165 HD
ENDBRANCH   1   2
BRANCH   1   9
HETATM    9  C   UNK N   1      31.945  17.393   8.670  0.00  0.00     0.146 C 
BRANCH   9  10
HETATM   10  C   UNK N   1      31.128  17.157   7.430  0.00  0.00     0.141 C 
HETATM   11  O   UNK N   1      29.913  17.147   7.444  0.00  0.00    -0.650 OA
BRANCH  10  12
HETATM   12  O   UNK N   1      31.770  16.949   6.267  0.00  0.00    -0.776 OA
HETATM   13  H   UNK N   1      32.491  17.498   6.026  0.00  0.00     0.167 HD
ENDBRANCH  10  12
ENDBRANCH   9  10
ENDBRANCH   1   9
BRANCH   1  14
HETATM   14  C   UNK N   1      34.450  18.255   7.887  0.00  0.00     0.164 C 
HETATM   15  O   UNK N   1      34.515  18.090   6.685  0.00  0.00    -0.648 OA
BRANCH  14  16
HETATM   16  O   UNK N   1      35.242  19.192   8.426  0.00  0.00    -0.775 OA
HETATM   17  H   UNK N   1      36.139  18.996   8.613  0.00  0.00     0.167 HD
ENDBRANCH  14  16
ENDBRANCH   1  14
TORSDOF 6
ENDMDL
MODEL 4
REMARK VINA RESULT:      -4.9      1.112      3.504
REMARK  6 active torsions:
REMARK  status: ('A' for Active; 'I' for Inactive)
REMARK       I    between atoms: N_1  and  C_2 
REMARK       I    between atoms: C_2  and  N_4 
REMARK    1  A    between atoms: C_5  and  N_4 
REMARK    2  A    between atoms: C_5  and  C_6 
REMARK    3  A    between atoms: C_5  and  C_10 
REMARK    4  A    between atoms: C_6  and  C_7 
REMARK    5  A    between atoms: C_7  and  O_8 
REMARK    6  A    between atoms: C_10  and  O_11 
ROOT
HETATM    1  C   UNK N   1      20.219  18.206   2.544  0.00  0.00     0.194 C 
ENDROOT
BRANCH   1   2
HETATM    2  N   UNK N   1      19.300  17.624   1.568  0.00  0.00    -0.328 N 
HETATM    3  C   UNK N   1      19.483  16.790   0.512  0.00  0.00     0.314 C 
HETATM    4  N   UNK N   1      18.412  16.421  -0.217  0.00  0.00    -0.352 N 
HETATM    5  O   UNK N   1      20.577  16.367   0.204  0.00  0.00    -0.248 OA
HETATM    6  H   UNK N   1      17.516  16.756   0.020  0.00  0.00     0.160 HD
HETATM    7  H   UNK N   1      18.523  15.818  -0.986  0.00  0.00     0.160 HD
HETATM    8  H   UNK N   1      18.362  17.889   1.704  0.00  0.00     0.165 HD
ENDBRANCH   1   2
BRANCH   1   9
HETATM    9  C   UNK N   1      20.096  19.745   2.488  0.00  0.00     0.146 C 
BRANCH   9  10
HETATM   10  C   UNK N   1      21.087  20.682   1.853  0.00  0.00     0.141 C 
HETATM   11  O   UNK N   1      21.354  20.640   0.669  0.00  0.00    -0.650 OA
BRANCH  10  12
HETATM   12  O   UNK N   1      21.696  21.595   2.630  0.00  0.00    -0.776 OA
HETATM   13  H   UNK N   1      22.579  21.852   2.446  0.00  0.00     0.167 HD
ENDBRANCH  10  12
ENDBRANCH   9  10
ENDBRANCH   1   9
BRANCH   1  14
HETATM   14  C   UNK N   1      21.141  17.379   3.457  0.00  0.00     0.164 C 
HETATM   15  O   UNK N   1      21.261  17.662   4.632  0.00  0.00    -0.648 OA
BRANCH  14  16
HETATM   16  O   UNK N   1      21.838  16.330   2.999  0.00  0.00    -0.775 OA
HETATM   17  H   UNK N   1      22.630  16.467   2.519  0.00  0.00     0.167 HD
ENDBRANCH  14  16
ENDBRANCH   1  14
TORSDOF 6
ENDMDL
MODEL 5
REMARK VINA RESULT:      -4.8      1.591      3.939
REMARK  6 active torsions:
REMARK  status: ('A' for Active; 'I' for Inactive)
REMARK       I    between atoms: N_1  and  C_2 
REMARK       I    between atoms: C_2  and  N_4 
REMARK    1  A    between atoms: C_5  and  N_4 
REMARK    2  A    between atoms: C_5  and  C_6 
REMARK    3  A    between atoms: C_5  and  C_10 
REMARK    4  A    between atoms: C_6  and  C_7 
REMARK    5  A    between atoms: C_7  and  O_8 
REMARK    6  A    between atoms: C_10  and  O_11 
ROOT
HETATM    1  C   UNK N   1      19.890  18.071   2.114  0.00  0.00     0.194 C 
ENDROOT
BRANCH   1   2
HETATM    2  N   UNK N   1      19.254  17.375   3.231  0.00  0.00    -0.328 N 
HETATM    3  C   UNK N   1      19.729  16.531   4.183  0.00  0.00     0.314 C 
HETATM    4  N   UNK N   1      18.874  16.041   5.101  0.00  0.00    -0.352 N 
HETATM    5  O   UNK N   1      20.896  16.205   4.233  0.00  0.00    -0.248 OA
HETATM    6  H   UNK N   1      17.923  16.296   5.074  0.00  0.00     0.160 HD
HETATM    7  H   UNK N   1      19.197  15.428   5.799  0.00  0.00     0.160 HD
HETATM    8  H   UNK N   1      18.290  17.554   3.308  0.00  0.00     0.165 HD
ENDBRANCH   1   2
BRANCH   1   9
HETATM    9  C   UNK N   1      20.032  19.567   2.475  0.00  0.00     0.146 C 
BRANCH   9  10
HETATM   10  C   UNK N   1      21.022  20.525   1.871  0.00  0.00     0.141 C 
HETATM   11  O   UNK N   1      21.267  20.541   0.682  0.00  0.00    -0.650 OA
BRANCH  10  12
HETATM   12  O   UNK N   1      21.655  21.390   2.681  0.00  0.00    -0.776 OA
HETATM   13  H   UNK N   1      22.591  21.442   2.672  0.00  0.00     0.167 HD
ENDBRANCH  10  12
ENDBRANCH   9  10
ENDBRANCH   1   9
BRANCH   1  14
HETATM   14  C   UNK N   1      20.331  17.382   0.811  0.00  0.00     0.164 C 
HETATM   15  O   UNK N   1      20.710  16.228   0.821  0.00  0.00    -0.648 OA
BRANCH  14  16
HETATM   16  O   UNK N   1      20.314  18.018  -0.369  0.00  0.00    -0.775 OA
HETATM   17  H   UNK N   1      19.583  18.557  -0.600  0.00  0.00     0.167 HD
ENDBRANCH  14  16
ENDBRANCH   1  14
TORSDOF 6
ENDMDL
MODEL 6
REMARK VINA RESULT:      -4.8     13.731     14.778
REMARK  6 active torsions:
REMARK  status: ('A' for Active; 'I' for Inactive)
REMARK       I    between atoms: N_1  and  C_2 
REMARK       I    between atoms: C_2  and  N_4 
REMARK    1  A    between atoms: C_5  and  N_4 
REMARK    2  A    between atoms: C_5  and  C_6 
REMARK    3  A    between atoms: C_5  and  C_10 
REMARK    4  A    between atoms: C_6  and  C_7 
REMARK    5  A    between atoms: C_7  and  O_8 
REMARK    6  A    between atoms: C_10  and  O_11 
ROOT
HETATM    1  C   UNK N   1      33.076  17.542   8.439  0.00  0.00     0.194 C 
ENDROOT
BRANCH   1   2
HETATM    2  N   UNK N   1      33.187  16.606   9.556  0.00  0.00    -0.328 N 
HETATM    3  C   UNK N   1      33.668  15.339   9.655  0.00  0.00     0.314 C 
HETATM    4  N   UNK N   1      33.633  14.724  10.852  0.00  0.00    -0.352 N 
HETATM    5  O   UNK N   1      34.127  14.747   8.702  0.00  0.00    -0.248 OA
HETATM    6  H   UNK N   1      33.264  15.191  11.636  0.00  0.00     0.160 HD
HETATM    7  H   UNK N   1      33.977  13.806  10.945  0.00  0.00     0.160 HD
HETATM    8  H   UNK N   1      32.846  16.965  10.406  0.00  0.00     0.165 HD
ENDBRANCH   1   2
BRANCH   1   9
HETATM    9  C   UNK N   1      31.582  17.737   8.099  0.00  0.00     0.146 C 
BRANCH   9  10
HETATM   10  C   UNK N   1      30.467  17.879   9.099  0.00  0.00     0.141 C 
HETATM   11  O   UNK N   1      29.819  18.900   9.210  0.00  0.00    -0.650 OA
BRANCH  10  12
HETATM   12  O   UNK N   1      30.181  16.833   9.895  0.00  0.00    -0.776 OA
HETATM   13  H   UNK N   1      30.657  16.031   9.803  0.00  0.00     0.167 HD
ENDBRANCH  10  12
ENDBRANCH   9  10
ENDBRANCH   1   9
BRANCH   1  14
HETATM   14  C   UNK N   1      34.282  18.200   7.746  0.00  0.00     0.164 C 
HETATM   15  O   UNK N   1      34.572  17.907   6.603  0.00  0.00    -0.648 OA
BRANCH  14  16
HETATM   16  O   UNK N   1      35.048  19.108   8.365  0.00  0.00    -0.775 OA
HETATM   17  H   UNK N   1      35.462  18.896   9.179  0.00  0.00     0.167 HD
ENDBRANCH  14  16
ENDBRANCH   1  14
TORSDOF 6
ENDMDL
MODEL 7
REMARK VINA RESULT:      -4.8      9.277     10.963
REMARK  6 active torsions:
REMARK  status: ('A' for Active; 'I' for Inactive)
REMARK       I    between atoms: N_1  and  C_2 
REMARK       I    between atoms: C_2  and  N_4 
REMARK    1  A    between atoms: C_5  and  N_4 
REMARK    2  A    between atoms: C_5  and  C_6 
REMARK    3  A    between atoms: C_5  and  C_10 
REMARK    4  A    between atoms: C_6  and  C_7 
REMARK    5  A    between atoms: C_7  and  O_8 
REMARK    6  A    between atoms: C_10  and  O_11 
ROOT
HETATM    1  C   UNK N   1      22.615  11.978  10.919  0.00  0.00     0.194 C 
ENDROOT
BRANCH   1   2
HETATM    2  N   UNK N   1      22.942  11.378   9.627  0.00  0.00    -0.328 N 
HETATM    3  C   UNK N   1      23.792  11.739   8.630  0.00  0.00     0.314 C 
HETATM    4  N   UNK N   1      23.874  10.960   7.534  0.00  0.00    -0.352 N 
HETATM    5  O   UNK N   1      24.477  12.737   8.696  0.00  0.00    -0.248 OA
HETATM    6  H   UNK N   1      23.324  10.147   7.466  0.00  0.00     0.160 HD
HETATM    7  H   UNK N   1      24.483  11.204   6.801  0.00  0.00     0.160 HD
HETATM    8  H   UNK N   1      22.448  10.547   9.442  0.00  0.00     0.165 HD
ENDBRANCH   1   2
BRANCH   1   9
HETATM    9  C   UNK N   1      21.175  12.535  10.860  0.00  0.00     0.146 C 
BRANCH   9  10
HETATM   10  C   UNK N   1      20.702  13.651   9.969  0.00  0.00     0.141 C 
HETATM   11  O   UNK N   1      19.532  13.960   9.880  0.00  0.00    -0.650 OA
BRANCH  10  12
HETATM   12  O   UNK N   1      21.614  14.326   9.247  0.00  0.00    -0.776 OA
HETATM   13  H   UNK N   1      21.623  14.247   8.313  0.00  0.00     0.167 HD
ENDBRANCH  10  12
ENDBRANCH   9  10
ENDBRANCH   1   9
BRANCH   1  14
HETATM   14  C   UNK N   1      23.582  12.024  12.114  0.00  0.00     0.164 C 
HETATM   15  O   UNK N   1      23.172  11.861  13.246  0.00  0.00    -0.648 OA
BRANCH  14  16
HETATM   16  O   UNK N   1      24.895  12.242  11.958  0.00  0.00    -0.775 OA
HETATM   17  H   UNK N   1      25.272  13.053  12.235  0.00  0.00     0.167 HD
ENDBRANCH  14  16
ENDBRANCH   1  14
TORSDOF 6
ENDMDL
MODEL 8
REMARK VINA RESULT:      -4.8     14.999     15.904
REMARK  6 active torsions:
REMARK  status: ('A' for Active; 'I' for Inactive)
REMARK       I    between atoms: N_1  and  C_2 
REMARK       I    between atoms: C_2  and  N_4 
REMARK    1  A    between atoms: C_5  and  N_4 
REMARK    2  A    between atoms: C_5  and  C_6 
REMARK    3  A    between atoms: C_5  and  C_10 
REMARK    4  A    between atoms: C_6  and  C_7 
REMARK    5  A    between atoms: C_7  and  O_8 
REMARK    6  A    between atoms: C_10  and  O_11 
ROOT
HETATM    1  C   UNK N   1      34.366  16.952   8.976  0.00  0.00     0.194 C 
ENDROOT
BRANCH   1   2
HETATM    2  N   UNK N   1      33.357  15.946   8.651  0.00  0.00    -0.328 N 
HETATM    3  C   UNK N   1      33.329  14.920   7.761  0.00  0.00     0.314 C 
HETATM    4  N   UNK N   1      32.228  14.149   7.694  0.00  0.00    -0.352 N 
HETATM    5  O   UNK N   1      34.263  14.677   7.027  0.00  0.00    -0.248 OA
HETATM    6  H   UNK N   1      31.461  14.333   8.283  0.00  0.00     0.160 HD
HETATM    7  H   UNK N   1      32.188  13.401   7.056  0.00  0.00     0.160 HD
HETATM    8  H   UNK N   1      32.533  16.029   9.182  0.00  0.00     0.165 HD
ENDBRANCH   1   2
BRANCH   1   9
HETATM    9  C   UNK N   1      35.041  16.567  10.312  0.00  0.00     0.146 C 
BRANCH   9  10
HETATM   10  C   UNK N   1      34.739  15.338  11.124  0.00  0.00     0.141 C 
HETATM   11  O   UNK N   1      35.611  14.671  11.644  0.00  0.00    -0.650 OA
BRANCH  10  12
HETATM   12  O   UNK N   1      33.455  14.969  11.278  0.00  0.00    -0.776 OA
HETATM   13  H   UNK N   1      32.778  15.430  10.821  0.00  0.00     0.167 HD
ENDBRANCH  10  12
ENDBRANCH   9  10
ENDBRANCH   1   9
BRANCH   1  14
HETATM   14  C   UNK N   1      34.671  18.178   8.099  0.00  0.00     0.164 C 
HETATM   15  O   UNK N   1      34.354  18.193   6.926  0.00  0.00    -0.648 OA
BRANCH  14  16
HETATM   16  O   UNK N   1      35.289  19.263   8.586  0.00  0.00    -0.775 OA
HETATM   17  H   UNK N   1      36.225  19.291   8.628  0.00  0.00     0.167 HD
ENDBRANCH  14  16
ENDBRANCH   1  14
TORSDOF 6
ENDMDL
MODEL 9
REMARK VINA RESULT:      -4.8     14.328     15.272
REMARK  6 active torsions:
REMARK  status: ('A' for Active; 'I' for Inactive)
REMARK       I    between atoms: N_1  and  C_2 
REMARK       I    between atoms: C_2  and  N_4 
REMARK    1  A    between atoms: C_5  and  N_4 
REMARK    2  A    between atoms: C_5  and  C_6 
REMARK    3  A    between atoms: C_5  and  C_10 
REMARK    4  A    between atoms: C_6  and  C_7 
REMARK    5  A    between atoms: C_7  and  O_8 
REMARK    6  A    between atoms: C_10  and  O_11 
ROOT
HETATM    1  C   UNK N   1      33.580  17.212   8.762  0.00  0.00     0.194 C 
ENDROOT
BRANCH   1   2
HETATM    2  N   UNK N   1      32.131  17.236   8.947  0.00  0.00    -0.328 N 
HETATM    3  C   UNK N   1      31.089  17.261   8.075  0.00  0.00     0.314 C 
HETATM    4  N   UNK N   1      29.835  17.280   8.563  0.00  0.00    -0.352 N 
HETATM    5  O   UNK N   1      31.254  17.268   6.874  0.00  0.00    -0.248 OA
HETATM    6  H   UNK N   1      29.685  17.274   9.537  0.00  0.00     0.160 HD
HETATM    7  H   UNK N   1      29.066  17.298   7.949  0.00  0.00     0.160 HD
HETATM    8  H   UNK N   1      31.854  17.233   9.891  0.00  0.00     0.165 HD
ENDBRANCH   1   2
BRANCH   1   9
HETATM    9  C   UNK N   1      34.172  16.062   9.609  0.00  0.00     0.146 C 
BRANCH   9  10
HETATM   10  C   UNK N   1      35.437  16.132  10.419  0.00  0.00     0.141 C 
HETATM   11  O   UNK N   1      35.968  15.142  10.881  0.00  0.00    -0.650 OA
BRANCH  10  12
HETATM   12  O   UNK N   1      35.997  17.335  10.634  0.00  0.00    -0.776 OA
HETATM   13  H   UNK N   1      36.097  17.939   9.924  0.00  0.00     0.167 HD
ENDBRANCH  10  12
ENDBRANCH   9  10
ENDBRANCH   1   9
BRANCH   1  14
HETATM   14  C   UNK N   1      34.348  18.193   7.860  0.00  0.00     0.164 C 
HETATM   15  O   UNK N   1      35.024  19.078   8.345  0.00  0.00    -0.648 OA
BRANCH  14  16
HETATM   16  O   UNK N   1      34.302  18.112   6.523  0.00  0.00    -0.775 OA
HETATM   17  H   UNK N   1      33.987  17.333   6.111  0.00  0.00     0.167 HD
ENDBRANCH  14  16
ENDBRANCH   1  14
TORSDOF 6
ENDMDL
