MODEL 1
REMARK VINA RESULT:      -5.4      0.000      0.000
REMARK  4 active torsions:
REMARK  status: ('A' for Active; 'I' for Inactive)
REMARK    1  A    between atoms: C_3  and  N_4 
REMARK    2  A    between atoms: C_9  and  C_10 
REMARK    3  A    between atoms: C_10  and  O_11 
REMARK    4  A    between atoms: C_12  and  N_13 
ROOT
HETATM    1  C   UNK N   1      32.697  17.188   3.360  0.00  0.00     0.054 C 
HETATM    2  C   UNK N   1      32.098  17.172   4.736  0.00  0.00     0.015 A 
HETATM    3  C   UNK N   1      30.785  16.908   4.906  0.00  0.00     0.072 A 
HETATM    4  C   UNK N   1      30.213  16.911   6.292  0.00  0.00     0.204 A 
HETATM    5  O   UNK N   1      29.030  16.670   6.474  0.00  0.00    -0.286 OA
HETATM    6  C   UNK N   1      31.084  17.207   7.463  0.00  0.00     0.042 A 
HETATM    7  C   UNK N   1      32.406  17.458   7.286  0.00  0.00     0.074 A 
HETATM    8  C   UNK N   1      32.974  17.439   5.905  0.00  0.00     0.201 A 
HETATM    9  O   UNK N   1      34.164  17.642   5.729  0.00  0.00    -0.286 OA
ENDROOT
BRANCH   3  10
HETATM   10  N   UNK N   1      29.977  16.636   3.755  0.00  0.00    -0.277 NA
HETATM   11  C   UNK N   1      28.578  16.742   3.725  0.00  0.00     0.110 A 
HETATM   12  C   UNK N   1      29.409  15.370   3.553  0.00  0.00     0.110 A 
ENDBRANCH   3  10
BRANCH   6  13
HETATM   13  C   UNK N   1      30.453  17.232   8.832  0.00  0.00     0.208 C 
BRANCH  13  14
HETATM   14  O   UNK N   1      30.600  18.486   9.424  0.00  0.00    -0.396 OA
HETATM   15  H   UNK N   1      30.521  19.453   9.414  0.00  0.00     0.209 HD
ENDBRANCH  13  14
ENDBRANCH   6  13
BRANCH   7  16
HETATM   16  N   UNK N   1      33.260  17.703   8.410  0.00  0.00    -0.277 NA
HETATM   17  C   UNK N   1      34.516  18.306   8.328  0.00  0.00     0.110 A 
HETATM   18  C   UNK N   1      34.215  16.806   8.893  0.00  0.00     0.110 A 
ENDBRANCH   7  16
TORSDOF 4
ENDMDL
MODEL 2
REMARK VINA RESULT:      -5.1      0.931      5.555
REMARK  4 active torsions:
REMARK  status: ('A' for Active; 'I' for Inactive)
REMARK    1  A    between atoms: C_3  and  N_4 
REMARK    2  A    between atoms: C_9  and  C_10 
REMARK    3  A    between atoms: C_10  and  O_11 
REMARK    4  A    between atoms: C_12  and  N_13 
ROOT
HETATM    1  C   UNK N   1      30.522  17.434   8.737  0.00  0.00     0.054 C 
HETATM    2  C   UNK N   1      31.130  17.330   7.368  0.00  0.00     0.015 A 
HETATM    3  C   UNK N   1      32.455  17.518   7.195  0.00  0.00     0.072 A 
HETATM    4  C   UNK N   1      33.031  17.421   5.814  0.00  0.00     0.204 A 
HETATM    5  O   UNK N   1      34.228  17.582   5.630  0.00  0.00    -0.286 OA
HETATM    6  C   UNK N   1      32.150  17.124   4.652  0.00  0.00     0.042 A 
HETATM    7  C   UNK N   1      30.820  16.922   4.835  0.00  0.00     0.074 A 
HETATM    8  C   UNK N   1      30.253  17.006   6.215  0.00  0.00     0.201 A 
HETATM    9  O   UNK N   1      29.064  16.807   6.402  0.00  0.00    -0.286 OA
ENDROOT
BRANCH   3  10
HETATM   10  N   UNK N   1      33.270  17.810   8.336  0.00  0.00    -0.277 NA
HETATM   11  C   UNK N   1      34.558  18.362   8.270  0.00  0.00     0.110 A 
HETATM   12  C   UNK N   1      34.209  16.883   8.810  0.00  0.00     0.110 A 
ENDBRANCH   3  10
BRANCH   6  13
HETATM   13  C   UNK N   1      32.773  17.071   3.280  0.00  0.00     0.208 C 
BRANCH  13  14
HETATM   14  O   UNK N   1      32.715  15.779   2.758  0.00  0.00    -0.396 OA
HETATM   15  H   UNK N   1      32.873  15.132   2.052  0.00  0.00     0.209 HD
ENDBRANCH  13  14
ENDBRANCH   6  13
BRANCH   7  16
HETATM   16  N   UNK N   1      29.971  16.596   3.729  0.00  0.00    -0.277 NA
HETATM   17  C   UNK N   1      28.616  16.923   3.653  0.00  0.00     0.110 A 
HETATM   18  C   UNK N   1      29.235  15.415   3.613  0.00  0.00     0.110 A 
ENDBRANCH   7  16
TORSDOF 4
ENDMDL
MODEL 3
REMARK VINA RESULT:      -5.1      9.230     11.643
REMARK  4 active torsions:
REMARK  status: ('A' for Active; 'I' for Inactive)
REMARK    1  A    between atoms: C_3  and  N_4 
REMARK    2  A    between atoms: C_9  and  C_10 
REMARK    3  A    between atoms: C_10  and  O_11 
REMARK    4  A    between atoms: C_12  and  N_13 
ROOT
HETATM    1  C   UNK N   1      21.185  12.718   9.785  0.00  0.00     0.054 C 
HETATM    2  C   UNK N   1      21.199  13.948   8.925  0.00  0.00     0.015 A 
HETATM    3  C   UNK N   1      22.193  14.146   8.033  0.00  0.00     0.072 A 
HETATM    4  C   UNK N   1      22.187  15.390   7.196  0.00  0.00     0.204 A 
HETATM    5  O   UNK N   1      23.071  15.590   6.378  0.00  0.00    -0.286 OA
HETATM    6  C   UNK N   1      21.099  16.395   7.353  0.00  0.00     0.042 A 
HETATM    7  C   UNK N   1      20.096  16.184   8.243  0.00  0.00     0.074 A 
HETATM    8  C   UNK N   1      20.099  14.936   9.063  0.00  0.00     0.201 A 
HETATM    9  O   UNK N   1      19.194  14.719   9.852  0.00  0.00    -0.286 OA
ENDROOT
BRANCH   3  10
HETATM   10  N   UNK N   1      23.226  13.161   7.916  0.00  0.00    -0.277 NA
HETATM   11  C   UNK N   1      24.600  13.442   7.967  0.00  0.00     0.110 A 
HETATM   12  C   UNK N   1      23.817  12.876   6.676  0.00  0.00     0.110 A 
ENDBRANCH   3  10
BRANCH   6  13
HETATM   13  C   UNK N   1      21.158  17.645   6.513  0.00  0.00     0.208 C 
BRANCH  13  14
HETATM   14  O   UNK N   1      20.964  18.782   7.298  0.00  0.00    -0.396 OA
HETATM   15  H   UNK N   1      21.175  19.341   8.062  0.00  0.00     0.209 HD
ENDBRANCH  13  14
ENDBRANCH   6  13
BRANCH   7  16
HETATM   16  N   UNK N   1      19.024  17.125   8.371  0.00  0.00    -0.277 NA
HETATM   17  C   UNK N   1      18.725  17.822   9.543  0.00  0.00     0.110 A 
HETATM   18  C   UNK N   1      17.723  16.800   8.762  0.00  0.00     0.110 A 
ENDBRANCH   7  16
TORSDOF 4
ENDMDL
MODEL 4
REMARK VINA RESULT:      -5.1      2.859      4.640
REMARK  4 active torsions:
REMARK  status: ('A' for Active; 'I' for Inactive)
REMARK    1  A    between atoms: C_3  and  N_4 
REMARK    2  A    between atoms: C_9  and  C_10 
REMARK    3  A    between atoms: C_10  and  O_11 
REMARK    4  A    between atoms: C_12  and  N_13 
ROOT
HETATM    1  C   UNK N   1      29.610  16.681   3.317  0.00  0.00     0.054 C 
HETATM    2  C   UNK N   1      29.415  17.174   4.722  0.00  0.00     0.015 A 
HETATM    3  C   UNK N   1      30.145  16.658   5.733  0.00  0.00     0.072 A 
HETATM    4  C   UNK N   1      29.919  17.161   7.127  0.00  0.00     0.204 A 
HETATM    5  O   UNK N   1      30.570  16.715   8.059  0.00  0.00    -0.286 OA
HETATM    6  C   UNK N   1      28.899  18.213   7.389  0.00  0.00     0.042 A 
HETATM    7  C   UNK N   1      28.177  18.737   6.366  0.00  0.00     0.074 A 
HETATM    8  C   UNK N   1      28.416  18.243   4.977  0.00  0.00     0.201 A 
HETATM    9  O   UNK N   1      27.793  18.717   4.041  0.00  0.00    -0.286 OA
ENDROOT
BRANCH   3  10
HETATM   10  N   UNK N   1      31.112  15.642   5.443  0.00  0.00    -0.277 NA
HETATM   11  C   UNK N   1      31.570  14.695   6.371  0.00  0.00     0.110 A 
HETATM   12  C   UNK N   1      32.475  15.847   5.698  0.00  0.00     0.110 A 
ENDBRANCH   3  10
BRANCH   6  13
HETATM   13  C   UNK N   1      28.686  18.660   8.813  0.00  0.00     0.208 C 
BRANCH  13  14
HETATM   14  O   UNK N   1      27.445  18.235   9.288  0.00  0.00    -0.396 OA
HETATM   15  H   UNK N   1      26.647  18.355   9.825  0.00  0.00     0.209 HD
ENDBRANCH  13  14
ENDBRANCH   6  13
BRANCH   7  16
HETATM   16  N   UNK N   1      27.223  19.778   6.603  0.00  0.00    -0.277 NA
HETATM   17  C   UNK N   1      26.247  20.176   5.686  0.00  0.00     0.110 A 
HETATM   18  C   UNK N   1      27.424  21.126   6.297  0.00  0.00     0.110 A 
ENDBRANCH   7  16
TORSDOF 4
ENDMDL
MODEL 5
REMARK VINA RESULT:      -5.0      2.162      2.620
REMARK  4 active torsions:
REMARK  status: ('A' for Active; 'I' for Inactive)
REMARK    1  A    between atoms: C_3  and  N_4 
REMARK    2  A    between atoms: C_9  and  C_10 
REMARK    3  A    between atoms: C_10  and  O_11 
REMARK    4  A    between atoms: C_12  and  N_13 
ROOT
HETATM    1  C   UNK N   1      30.156  16.666   3.580  0.00  0.00     0.054 C 
HETATM    2  C   UNK N   1      29.790  17.158   4.950  0.00  0.00     0.015 A 
HETATM    3  C   UNK N   1      28.691  17.920   5.130  0.00  0.00     0.072 A 
HETATM    4  C   UNK N   1      28.358  18.408   6.508  0.00  0.00     0.204 A 
HETATM    5  O   UNK N   1      27.366  19.094   6.700  0.00  0.00    -0.286 OA
HETATM    6  C   UNK N   1      29.234  18.058   7.660  0.00  0.00     0.042 A 
HETATM    7  C   UNK N   1      30.331  17.280   7.475  0.00  0.00     0.074 A 
HETATM    8  C   UNK N   1      30.650  16.784   6.102  0.00  0.00     0.201 A 
HETATM    9  O   UNK N   1      31.619  16.067   5.920  0.00  0.00    -0.286 OA
ENDROOT
BRANCH   3  10
HETATM   10  N   UNK N   1      27.877  18.243   3.997  0.00  0.00    -0.277 NA
HETATM   11  C   UNK N   1      27.018  19.351   3.927  0.00  0.00     0.110 A 
HETATM   12  C   UNK N   1      26.546  17.809   3.914  0.00  0.00     0.110 A 
ENDBRANCH   3  10
BRANCH   6  13
HETATM   13  C   UNK N   1      28.874  18.602   9.020  0.00  0.00     0.208 C 
BRANCH  13  14
HETATM   14  O   UNK N   1      27.585  18.214   9.385  0.00  0.00    -0.396 OA
HETATM   15  H   UNK N   1      26.959  17.783   9.987  0.00  0.00     0.209 HD
ENDBRANCH  13  14
ENDBRANCH   6  13
BRANCH   7  16
HETATM   16  N   UNK N   1      31.156  16.904   8.583  0.00  0.00    -0.277 NA
HETATM   17  C   UNK N   1      32.510  17.225   8.702  0.00  0.00     0.110 A 
HETATM   18  C   UNK N   1      31.888  15.717   8.663  0.00  0.00     0.110 A 
ENDBRANCH   7  16
TORSDOF 4
ENDMDL
MODEL 6
REMARK VINA RESULT:      -4.9      2.216      4.963
REMARK  4 active torsions:
REMARK  status: ('A' for Active; 'I' for Inactive)
REMARK    1  A    between atoms: C_3  and  N_4 
REMARK    2  A    between atoms: C_9  and  C_10 
REMARK    3  A    between atoms: C_10  and  O_11 
REMARK    4  A    between atoms: C_12  and  N_13 
ROOT
HETATM    1  C   UNK N   1      31.875  14.918   5.693  0.00  0.00     0.054 C 
HETATM    2  C   UNK N   1      30.999  15.894   6.423  0.00  0.00     0.015 A 
HETATM    3  C   UNK N   1      31.527  16.731   7.341  0.00  0.00     0.072 A 
HETATM    4  C   UNK N   1      30.625  17.686   8.063  0.00  0.00     0.204 A 
HETATM    5  O   UNK N   1      31.078  18.458   8.894  0.00  0.00    -0.286 OA
HETATM    6  C   UNK N   1      29.165  17.705   7.772  0.00  0.00     0.042 A 
HETATM    7  C   UNK N   1      28.642  16.870   6.838  0.00  0.00     0.074 A 
HETATM    8  C   UNK N   1      29.548  15.930   6.111  0.00  0.00     0.201 A 
HETATM    9  O   UNK N   1      29.099  15.188   5.253  0.00  0.00    -0.286 OA
ENDROOT
BRANCH   3  10
HETATM   10  N   UNK N   1      32.935  16.677   7.600  0.00  0.00    -0.277 NA
HETATM   11  C   UNK N   1      33.563  17.287   8.697  0.00  0.00     0.110 A 
HETATM   12  C   UNK N   1      33.791  17.694   7.153  0.00  0.00     0.110 A 
ENDBRANCH   3  10
BRANCH   6  13
HETATM   13  C   UNK N   1      28.296  18.660   8.549  0.00  0.00     0.208 C 
BRANCH  13  14
HETATM   14  O   UNK N   1      27.438  17.968   9.405  0.00  0.00    -0.396 OA
HETATM   15  H   UNK N   1      26.566  17.807   9.797  0.00  0.00     0.209 HD
ENDBRANCH  13  14
ENDBRANCH   6  13
BRANCH   7  16
HETATM   16  N   UNK N   1      27.245  16.910   6.521  0.00  0.00    -0.277 NA
HETATM   17  C   UNK N   1      26.414  15.789   6.485  0.00  0.00     0.110 A 
HETATM   18  C   UNK N   1      26.718  16.790   5.234  0.00  0.00     0.110 A 
ENDBRANCH   7  16
TORSDOF 4
ENDMDL
MODEL 7
REMARK VINA RESULT:      -4.9      2.861      6.096
REMARK  4 active torsions:
REMARK  status: ('A' for Active; 'I' for Inactive)
REMARK    1  A    between atoms: C_3  and  N_4 
REMARK    2  A    between atoms: C_9  and  C_10 
REMARK    3  A    between atoms: C_10  and  O_11 
REMARK    4  A    between atoms: C_12  and  N_13 
ROOT
HETATM    1  C   UNK N   1      33.470  12.875   9.224  0.00  0.00     0.054 C 
HETATM    2  C   UNK N   1      33.633  14.349   8.994  0.00  0.00     0.015 A 
HETATM    3  C   UNK N   1      34.478  15.070   9.761  0.00  0.00     0.072 A 
HETATM    4  C   UNK N   1      34.611  16.543   9.515  0.00  0.00     0.204 A 
HETATM    5  O   UNK N   1      35.372  17.217  10.191  0.00  0.00    -0.286 OA
HETATM    6  C   UNK N   1      33.815  17.199   8.441  0.00  0.00     0.042 A 
HETATM    7  C   UNK N   1      32.978  16.466   7.664  0.00  0.00     0.074 A 
HETATM    8  C   UNK N   1      32.860  14.996   7.903  0.00  0.00     0.201 A 
HETATM    9  O   UNK N   1      32.129  14.318   7.201  0.00  0.00    -0.286 OA
ENDROOT
BRANCH   3  10
HETATM   10  N   UNK N   1      35.220  14.405  10.790  0.00  0.00    -0.277 NA
HETATM   11  C   UNK N   1      35.789  15.049  11.899  0.00  0.00     0.110 A 
HETATM   12  C   UNK N   1      36.618  14.312  10.729  0.00  0.00     0.110 A 
ENDBRANCH   3  10
BRANCH   6  13
HETATM   13  C   UNK N   1      33.959  18.689   8.257  0.00  0.00     0.208 C 
BRANCH  13  14
HETATM   14  O   UNK N   1      35.304  19.056   8.215  0.00  0.00    -0.396 OA
HETATM   15  H   UNK N   1      36.047  19.619   8.484  0.00  0.00     0.209 HD
ENDBRANCH  13  14
ENDBRANCH   6  13
BRANCH   7  16
HETATM   16  N   UNK N   1      32.240  17.081   6.601  0.00  0.00    -0.277 NA
HETATM   17  C   UNK N   1      31.206  16.461   5.898  0.00  0.00     0.110 A 
HETATM   18  C   UNK N   1      32.593  17.024   5.251  0.00  0.00     0.110 A 
ENDBRANCH   7  16
TORSDOF 4
ENDMDL
MODEL 8
REMARK VINA RESULT:      -4.9      3.143      4.644
REMARK  4 active torsions:
REMARK  status: ('A' for Active; 'I' for Inactive)
REMARK    1  A    between atoms: C_3  and  N_4 
REMARK    2  A    between atoms: C_9  and  C_10 
REMARK    3  A    between atoms: C_10  and  O_11 
REMARK    4  A    between atoms: C_12  and  N_13 
ROOT
HETATM    1  C   UNK N   1      34.697  18.738   8.225  0.00  0.00     0.054 C 
HETATM    2  C   UNK N   1      34.457  17.268   8.421  0.00  0.00     0.015 A 
HETATM    3  C   UNK N   1      33.803  16.553   7.481  0.00  0.00     0.072 A 
HETATM    4  C   UNK N   1      33.568  15.090   7.710  0.00  0.00     0.204 A 
HETATM    5  O   UNK N   1      32.984  14.419   6.873  0.00  0.00    -0.286 OA
HETATM    6  C   UNK N   1      34.046  14.440   8.961  0.00  0.00     0.042 A 
HETATM    7  C   UNK N   1      34.714  15.162   9.896  0.00  0.00     0.074 A 
HETATM    8  C   UNK N   1      34.959  16.616   9.656  0.00  0.00     0.201 A 
HETATM    9  O   UNK N   1      35.577  17.276  10.475  0.00  0.00    -0.286 OA
ENDROOT
BRANCH   3  10
HETATM   10  N   UNK N   1      33.351  17.215   6.294  0.00  0.00    -0.277 NA
HETATM   11  C   UNK N   1      32.062  17.086   5.756  0.00  0.00     0.110 A 
HETATM   12  C   UNK N   1      33.418  16.584   5.044  0.00  0.00     0.110 A 
ENDBRANCH   3  10
BRANCH   6  13
HETATM   13  C   UNK N   1      33.753  12.974   9.158  0.00  0.00     0.208 C 
BRANCH  13  14
HETATM   14  O   UNK N   1      32.380  12.749   9.251  0.00  0.00    -0.396 OA
HETATM   15  H   UNK N   1      31.513  12.898   9.660  0.00  0.00     0.209 HD
ENDBRANCH  13  14
ENDBRANCH   6  13
BRANCH   7  16
HETATM   16  N   UNK N   1      35.214  14.536  11.083  0.00  0.00    -0.277 NA
HETATM   17  C   UNK N   1      35.826  15.219  12.136  0.00  0.00     0.110 A 
HETATM   18  C   UNK N   1      36.512  14.044  11.237  0.00  0.00     0.110 A 
ENDBRANCH   7  16
TORSDOF 4
ENDMDL
MODEL 9
REMARK VINA RESULT:      -4.8      7.024      9.300
REMARK  4 active torsions:
REMARK  status: ('A' for Active; 'I' for Inactive)
REMARK    1  A    between atoms: C_3  and  N_4 
REMARK    2  A    between atoms: C_9  and  C_10 
REMARK    3  A    between atoms: C_10  and  O_11 
REMARK    4  A    between atoms: C_12  and  N_13 
ROOT
HETATM    1  C   UNK N   1      20.973  20.546   2.636  0.00  0.00     0.054 C 
HETATM    2  C   UNK N   1      21.985  19.574   3.169  0.00  0.00     0.015 A 
HETATM    3  C   UNK N   1      21.619  18.316   3.492  0.00  0.00     0.072 A 
HETATM    4  C   UNK N   1      22.650  17.372   4.034  0.00  0.00     0.204 A 
HETATM    5  O   UNK N   1      22.347  16.226   4.329  0.00  0.00    -0.286 OA
HETATM    6  C   UNK N   1      24.057  17.822   4.218  0.00  0.00     0.042 A 
HETATM    7  C   UNK N   1      24.422  19.085   3.879  0.00  0.00     0.074 A 
HETATM    8  C   UNK N   1      23.394  20.017   3.325  0.00  0.00     0.201 A 
HETATM    9  O   UNK N   1      23.708  21.149   2.995  0.00  0.00    -0.286 OA
ENDROOT
BRANCH   3  10
HETATM   10  N   UNK N   1      20.254  17.921   3.309  0.00  0.00    -0.277 NA
HETATM   11  C   UNK N   1      19.670  16.790   3.899  0.00  0.00     0.110 A 
HETATM   12  C   UNK N   1      19.895  16.999   2.316  0.00  0.00     0.110 A 
ENDBRANCH   3  10
BRANCH   6  13
HETATM   13  C   UNK N   1      25.048  16.846   4.800  0.00  0.00     0.208 C 
BRANCH  13  14
HETATM   14  O   UNK N   1      24.667  16.457   6.084  0.00  0.00    -0.396 OA
HETATM   15  H   UNK N   1      24.187  15.878   6.697  0.00  0.00     0.209 HD
ENDBRANCH  13  14
ENDBRANCH   6  13
BRANCH   7  16
HETATM   16  N   UNK N   1      25.782  19.515   4.014  0.00  0.00    -0.277 NA
HETATM   17  C   UNK N   1      26.203  20.543   4.859  0.00  0.00     0.110 A 
HETATM   18  C   UNK N   1      26.382  20.509   3.238  0.00  0.00     0.110 A 
ENDBRANCH   7  16
TORSDOF 4
ENDMDL
