MODEL 1
REMARK VINA RESULT:      -4.8      0.000      0.000
REMARK  1 active torsions:
REMARK  status: ('A' for Active; 'I' for Inactive)
REMARK    1  A    between atoms: O_12  and  C_6 
ROOT
HETATM    1  C   UNK N   1      20.142  16.777   2.358  0.00  0.00     0.049 A 
HETATM    2  C   UNK N   1      19.999  16.591   0.979  0.00  0.00     0.091 A 
HETATM    3  C   UNK N   1      20.849  20.169   3.510  0.00  0.00     0.183 A 
HETATM    4  C   UNK N   1      20.396  18.114   2.497  0.00  0.00     0.065 A 
HETATM    5  C   UNK N   1      20.402  18.683   1.272  0.00  0.00     0.110 A 
HETATM    6  C   UNK N   1      20.639  20.043   1.140  0.00  0.00     0.170 A 
HETATM    7  N   UNK N   1      20.161  17.769   0.321  0.00  0.00    -0.361 N 
HETATM    8  N   UNK N   1      20.615  18.827   3.627  0.00  0.00    -0.350 N 
ATOM      9  HN  UNK N   1      20.605  18.375   4.541  1.00  0.00     0.166 HD
HETATM   10  N   UNK N   1      20.860  20.769   2.275  0.00  0.00    -0.331 N 
ATOM     11  HN  UNK N   1      21.036  21.771   2.205  1.00  0.00     0.168 HD
HETATM   12  H   UNK N   1      20.112  17.919  -0.651  0.00  0.00     0.165 HD
ENDROOT
BRANCH   6  13
HETATM   13  O   UNK N   1      20.652  20.641  -0.064  0.00  0.00    -0.344 OA
HETATM   14  H   UNK N   1      19.849  20.935  -0.450  0.00  0.00     0.219 HD
ENDBRANCH   6  13
TORSDOF 1
ENDMDL
MODEL 2
REMARK VINA RESULT:      -4.7     15.149     15.879
REMARK  1 active torsions:
REMARK  status: ('A' for Active; 'I' for Inactive)
REMARK    1  A    between atoms: O_12  and  C_6 
ROOT
HETATM    1  C   UNK N   1      34.080  15.161  10.188  0.00  0.00     0.049 A 
HETATM    2  C   UNK N   1      34.879  15.905  11.063  0.00  0.00     0.091 A 
HETATM    3  C   UNK N   1      33.248  16.705   6.985  0.00  0.00     0.183 A 
HETATM    4  C   UNK N   1      33.932  15.968   9.093  0.00  0.00     0.065 A 
HETATM    5  C   UNK N   1      34.605  17.119   9.309  0.00  0.00     0.110 A 
HETATM    6  C   UNK N   1      34.612  18.112   8.341  0.00  0.00     0.170 A 
HETATM    7  N   UNK N   1      35.197  17.106  10.513  0.00  0.00    -0.361 N 
HETATM    8  N   UNK N   1      33.249  15.734   7.948  0.00  0.00    -0.350 N 
ATOM      9  HN  UNK N   1      32.748  14.857   7.807  1.00  0.00     0.166 HD
HETATM   10  N   UNK N   1      33.925  17.883   7.184  0.00  0.00    -0.331 N 
ATOM     11  HN  UNK N   1      33.914  18.597   6.455  1.00  0.00     0.168 HD
HETATM   12  H   UNK N   1      35.746  17.818  10.914  0.00  0.00     0.165 HD
ENDROOT
BRANCH   6  13
HETATM   13  O   UNK N   1      35.271  19.268   8.524  0.00  0.00    -0.344 OA
HETATM   14  H   UNK N   1      36.151  19.360   8.212  0.00  0.00     0.219 HD
ENDBRANCH   6  13
TORSDOF 1
ENDMDL
MODEL 3
REMARK VINA RESULT:      -4.6     10.700     11.873
REMARK  1 active torsions:
REMARK  status: ('A' for Active; 'I' for Inactive)
REMARK    1  A    between atoms: O_12  and  C_6 
ROOT
HETATM    1  C   UNK N   1      24.026  13.270   9.249  0.00  0.00     0.049 A 
HETATM    2  C   UNK N   1      25.135  12.900  10.018  0.00  0.00     0.091 A 
HETATM    3  C   UNK N   1      20.728  12.582  10.657  0.00  0.00     0.183 A 
HETATM    4  C   UNK N   1      22.948  12.901  10.006  0.00  0.00     0.065 A 
HETATM    5  C   UNK N   1      23.395  12.347  11.155  0.00  0.00     0.110 A 
HETATM    6  C   UNK N   1      22.492  11.887  12.101  0.00  0.00     0.170 A 
HETATM    7  N   UNK N   1      24.736  12.334  11.187  0.00  0.00    -0.361 N 
HETATM    8  N   UNK N   1      21.629  13.031   9.732  0.00  0.00    -0.350 N 
ATOM      9  HN  UNK N   1      21.316  13.453   8.858  1.00  0.00     0.166 HD
HETATM   10  N   UNK N   1      21.160  12.015  11.831  0.00  0.00    -0.331 N 
ATOM     11  HN  UNK N   1      20.474  11.685  12.510  1.00  0.00     0.168 HD
HETATM   12  H   UNK N   1      25.311  11.987  11.907  0.00  0.00     0.165 HD
ENDROOT
BRANCH   6  13
HETATM   13  O   UNK N   1      22.902  11.331  13.253  0.00  0.00    -0.344 OA
HETATM   14  H   UNK N   1      23.782  11.462  13.549  0.00  0.00     0.219 HD
ENDBRANCH   6  13
TORSDOF 1
ENDMDL
MODEL 4
REMARK VINA RESULT:      -4.5     10.231     11.364
REMARK  1 active torsions:
REMARK  status: ('A' for Active; 'I' for Inactive)
REMARK    1  A    between atoms: O_12  and  C_6 
ROOT
HETATM    1  C   UNK N   1      20.868  12.713  10.442  0.00  0.00     0.049 A 
HETATM    2  C   UNK N   1      20.995  12.075  11.680  0.00  0.00     0.091 A 
HETATM    3  C   UNK N   1      23.951  13.440   8.625  0.00  0.00     0.183 A 
HETATM    4  C   UNK N   1      22.154  12.857   9.998  0.00  0.00     0.065 A 
HETATM    5  C   UNK N   1      22.991  12.334  10.921  0.00  0.00     0.110 A 
HETATM    6  C   UNK N   1      24.361  12.355  10.707  0.00  0.00     0.170 A 
HETATM    7  N   UNK N   1      22.305  11.847  11.965  0.00  0.00    -0.361 N 
HETATM    8  N   UNK N   1      22.602  13.413   8.848  0.00  0.00    -0.350 N 
ATOM      9  HN  UNK N   1      21.951  13.801   8.166  1.00  0.00     0.166 HD
HETATM   10  N   UNK N   1      24.820  12.915   9.549  0.00  0.00    -0.331 N 
ATOM     11  HN  UNK N   1      25.823  12.943   9.367  1.00  0.00     0.168 HD
HETATM   12  H   UNK N   1      22.672  11.414  12.770  0.00  0.00     0.165 HD
ENDROOT
BRANCH   6  13
HETATM   13  O   UNK N   1      25.221  11.845  11.603  0.00  0.00    -0.344 OA
HETATM   14  H   UNK N   1      25.111  10.965  11.910  0.00  0.00     0.219 HD
ENDBRANCH   6  13
TORSDOF 1
ENDMDL
MODEL 5
REMARK VINA RESULT:      -4.5     22.747     23.320
REMARK  1 active torsions:
REMARK  status: ('A' for Active; 'I' for Inactive)
REMARK    1  A    between atoms: O_12  and  C_6 
ROOT
HETATM    1  C   UNK N   1      41.543  21.469   2.401  0.00  0.00     0.049 A 
HETATM    2  C   UNK N   1      41.131  22.730   1.958  0.00  0.00     0.091 A 
HETATM    3  C   UNK N   1      44.909  21.220   3.796  0.00  0.00     0.183 A 
HETATM    4  C   UNK N   1      42.816  21.669   2.863  0.00  0.00     0.065 A 
HETATM    5  C   UNK N   1      43.134  22.972   2.702  0.00  0.00     0.110 A 
HETATM    6  C   UNK N   1      44.381  23.435   3.095  0.00  0.00     0.170 A 
HETATM    7  N   UNK N   1      42.116  23.647   2.148  0.00  0.00    -0.361 N 
HETATM    8  N   UNK N   1      43.677  20.776   3.403  0.00  0.00    -0.350 N 
ATOM      9  HN  UNK N   1      43.414  19.797   3.515  1.00  0.00     0.166 HD
HETATM   10  N   UNK N   1      45.255  22.539   3.641  0.00  0.00    -0.331 N 
ATOM     11  HN  UNK N   1      46.178  22.855   3.939  1.00  0.00     0.168 HD
HETATM   12  H   UNK N   1      42.089  24.605   1.924  0.00  0.00     0.165 HD
ENDROOT
BRANCH   6  13
HETATM   13  O   UNK N   1      44.730  24.724   2.949  0.00  0.00    -0.344 OA
HETATM   14  H   UNK N   1      44.118  25.402   3.160  0.00  0.00     0.219 HD
ENDBRANCH   6  13
TORSDOF 1
ENDMDL
MODEL 6
REMARK VINA RESULT:      -4.5     16.810     17.543
REMARK  1 active torsions:
REMARK  status: ('A' for Active; 'I' for Inactive)
REMARK    1  A    between atoms: O_12  and  C_6 
ROOT
HETATM    1  C   UNK N   1      35.147  13.621  12.123  0.00  0.00     0.049 A 
HETATM    2  C   UNK N   1      36.263  14.323  12.590  0.00  0.00     0.091 A 
HETATM    3  C   UNK N   1      33.086  15.270   9.600  0.00  0.00     0.183 A 
HETATM    4  C   UNK N   1      34.575  14.461  11.207  0.00  0.00     0.065 A 
HETATM    5  C   UNK N   1      35.310  15.592  11.138  0.00  0.00     0.110 A 
HETATM    6  C   UNK N   1      34.936  16.611  10.275  0.00  0.00     0.170 A 
HETATM    7  N   UNK N   1      36.354  15.534  11.978  0.00  0.00    -0.361 N 
HETATM    8  N   UNK N   1      33.465  14.273  10.455  0.00  0.00    -0.350 N 
ATOM      9  HN  UNK N   1      32.926  13.410  10.524  1.00  0.00     0.166 HD
HETATM   10  N   UNK N   1      33.818  16.428   9.513  0.00  0.00    -0.331 N 
ATOM     11  HN  UNK N   1      33.522  17.162   8.870  1.00  0.00     0.168 HD
HETATM   12  H   UNK N   1      37.042  16.223  12.122  0.00  0.00     0.165 HD
ENDROOT
BRANCH   6  13
HETATM   13  O   UNK N   1      35.645  17.748  10.182  0.00  0.00    -0.344 OA
HETATM   14  H   UNK N   1      35.204  18.566  10.054  0.00  0.00     0.219 HD
ENDBRANCH   6  13
TORSDOF 1
ENDMDL
MODEL 7
REMARK VINA RESULT:      -4.4     10.115     11.203
REMARK  1 active torsions:
REMARK  status: ('A' for Active; 'I' for Inactive)
REMARK    1  A    between atoms: O_12  and  C_6 
ROOT
HETATM    1  C   UNK N   1      24.816  12.986   9.554  0.00  0.00     0.049 A 
HETATM    2  C   UNK N   1      24.063  13.440   8.466  0.00  0.00     0.091 A 
HETATM    3  C   UNK N   1      22.967  11.803  12.472  0.00  0.00     0.183 A 
HETATM    4  C   UNK N   1      23.883  12.613  10.482  0.00  0.00     0.065 A 
HETATM    5  C   UNK N   1      22.652  12.834   9.971  0.00  0.00     0.110 A 
HETATM    6  C   UNK N   1      21.525  12.535  10.722  0.00  0.00     0.170 A 
HETATM    7  N   UNK N   1      22.734  13.342   8.733  0.00  0.00    -0.361 N 
HETATM    8  N   UNK N   1      24.070  12.102  11.721  0.00  0.00    -0.350 N 
ATOM      9  HN  UNK N   1      25.009  11.943  12.086  1.00  0.00     0.166 HD
HETATM   10  N   UNK N   1      21.706  12.019  11.973  0.00  0.00    -0.331 N 
ATOM     11  HN  UNK N   1      20.894  11.791  12.545  1.00  0.00     0.168 HD
HETATM   12  H   UNK N   1      21.988  13.592   8.141  0.00  0.00     0.165 HD
ENDROOT
BRANCH   6  13
HETATM   13  O   UNK N   1      20.287  12.743  10.244  0.00  0.00    -0.344 OA
HETATM   14  H   UNK N   1      19.625  13.106  10.800  0.00  0.00     0.219 HD
ENDBRANCH   6  13
TORSDOF 1
ENDMDL
MODEL 8
REMARK VINA RESULT:      -4.4      9.870     10.931
REMARK  1 active torsions:
REMARK  status: ('A' for Active; 'I' for Inactive)
REMARK    1  A    between atoms: O_12  and  C_6 
ROOT
HETATM    1  C   UNK N   1      20.876  12.917  10.382  0.00  0.00     0.049 A 
HETATM    2  C   UNK N   1      21.010  13.643   9.194  0.00  0.00     0.091 A 
HETATM    3  C   UNK N   1      23.954  11.799  11.997  0.00  0.00     0.183 A 
HETATM    4  C   UNK N   1      22.162  12.635  10.755  0.00  0.00     0.065 A 
HETATM    5  C   UNK N   1      23.004  13.165   9.841  0.00  0.00     0.110 A 
HETATM    6  C   UNK N   1      24.375  13.017   9.992  0.00  0.00     0.170 A 
HETATM    7  N   UNK N   1      22.322  13.790   8.870  0.00  0.00    -0.361 N 
HETATM    8  N   UNK N   1      22.606  11.952  11.836  0.00  0.00    -0.350 N 
ATOM      9  HN  UNK N   1      21.950  11.561  12.513  1.00  0.00     0.166 HD
HETATM   10  N   UNK N   1      24.829  12.328  11.080  0.00  0.00    -0.331 N 
ATOM     11  HN  UNK N   1      25.832  12.205  11.214  1.00  0.00     0.168 HD
HETATM   12  H   UNK N   1      22.693  14.257   8.087  0.00  0.00     0.165 HD
ENDROOT
BRANCH   6  13
HETATM   13  O   UNK N   1      25.240  13.530   9.102  0.00  0.00    -0.344 OA
HETATM   14  H   UNK N   1      25.077  14.373   8.723  0.00  0.00     0.219 HD
ENDBRANCH   6  13
TORSDOF 1
ENDMDL
MODEL 9
REMARK VINA RESULT:      -4.4     18.466     19.222
REMARK  1 active torsions:
REMARK  status: ('A' for Active; 'I' for Inactive)
REMARK    1  A    between atoms: O_12  and  C_6 
ROOT
HETATM    1  C   UNK N   1      35.393  13.061  13.963  0.00  0.00     0.049 A 
HETATM    2  C   UNK N   1      36.270  14.001  14.513  0.00  0.00     0.091 A 
HETATM    3  C   UNK N   1      34.659  13.363  10.399  0.00  0.00     0.183 A 
HETATM    4  C   UNK N   1      35.304  13.409  12.643  0.00  0.00     0.065 A 
HETATM    5  C   UNK N   1      36.083  14.491  12.427  0.00  0.00     0.110 A 
HETATM    6  C   UNK N   1      36.167  15.044  11.159  0.00  0.00     0.170 A 
HETATM    7  N   UNK N   1      36.689  14.876  13.561  0.00  0.00    -0.361 N 
HETATM    8  N   UNK N   1      34.585  12.827  11.655  0.00  0.00    -0.350 N 
ATOM      9  HN  UNK N   1      34.003  12.010  11.842  1.00  0.00     0.166 HD
HETATM   10  N   UNK N   1      35.444  14.463  10.157  0.00  0.00    -0.331 N 
ATOM     11  HN  UNK N   1      35.489  14.850   9.214  1.00  0.00     0.168 HD
HETATM   12  H   UNK N   1      37.307  15.633  13.678  0.00  0.00     0.165 HD
ENDROOT
BRANCH   6  13
HETATM   13  O   UNK N   1      36.932  16.120  10.910  0.00  0.00    -0.344 OA
HETATM   14  H   UNK N   1      36.802  16.911  11.397  0.00  0.00     0.219 HD
ENDBRANCH   6  13
TORSDOF 1
ENDMDL
