MODEL 1
REMARK VINA RESULT:      -1.2      0.000      0.000
REMARK  11 active torsions:
REMARK  status: ('A' for Active; 'I' for Inactive)
REMARK    1  A    between atoms: C_21  and  C_7 
REMARK    2  A    between atoms: C_22  and  C_8 
REMARK    3  A    between atoms: C_11  and  C_9 
REMARK    4  A    between atoms: C_23  and  C_9 
REMARK    5  A    between atoms: C_12  and  C_10 
REMARK    6  A    between atoms: C_24  and  C_10 
REMARK    7  A    between atoms: C_33  and  C_11 
REMARK    8  A    between atoms: C_34  and  C_12 
REMARK    9  A    between atoms: O_44  and  C_33 
REMARK   10  A    between atoms: O_46  and  C_34 
REMARK   11  A    between atoms: Zn_47  and  Zn_47 
ROOT
HETATM    1 Zn   UNK N   1      39.964  21.073  13.075  0.00  0.00     0.000 Zn
ENDROOT
TORSDOF 11
ENDMDL
MODEL 2
REMARK VINA RESULT:      -1.2      4.352      4.352
REMARK  11 active torsions:
REMARK  status: ('A' for Active; 'I' for Inactive)
REMARK    1  A    between atoms: C_21  and  C_7 
REMARK    2  A    between atoms: C_22  and  C_8 
REMARK    3  A    between atoms: C_11  and  C_9 
REMARK    4  A    between atoms: C_23  and  C_9 
REMARK    5  A    between atoms: C_12  and  C_10 
REMARK    6  A    between atoms: C_24  and  C_10 
REMARK    7  A    between atoms: C_33  and  C_11 
REMARK    8  A    between atoms: C_34  and  C_12 
REMARK    9  A    between atoms: O_44  and  C_33 
REMARK   10  A    between atoms: O_46  and  C_34 
REMARK   11  A    between atoms: Zn_47  and  Zn_47 
ROOT
HETATM    1 Zn   UNK N   1      35.636  21.382  12.738  0.00  0.00     0.000 Zn
ENDROOT
TORSDOF 11
ENDMDL
MODEL 3
REMARK VINA RESULT:      -1.2     26.829     26.829
REMARK  11 active torsions:
REMARK  status: ('A' for Active; 'I' for Inactive)
REMARK    1  A    between atoms: C_21  and  C_7 
REMARK    2  A    between atoms: C_22  and  C_8 
REMARK    3  A    between atoms: C_11  and  C_9 
REMARK    4  A    between atoms: C_23  and  C_9 
REMARK    5  A    between atoms: C_12  and  C_10 
REMARK    6  A    between atoms: C_24  and  C_10 
REMARK    7  A    between atoms: C_33  and  C_11 
REMARK    8  A    between atoms: C_34  and  C_12 
REMARK    9  A    between atoms: O_44  and  C_33 
REMARK   10  A    between atoms: O_46  and  C_34 
REMARK   11  A    between atoms: Zn_47  and  Zn_47 
ROOT
HETATM    1 Zn   UNK N   1      21.453  21.778  -6.332  0.00  0.00     0.000 Zn
ENDROOT
TORSDOF 11
ENDMDL
MODEL 4
REMARK VINA RESULT:      -1.1      9.592      9.592
REMARK  11 active torsions:
REMARK  status: ('A' for Active; 'I' for Inactive)
REMARK    1  A    between atoms: C_21  and  C_7 
REMARK    2  A    between atoms: C_22  and  C_8 
REMARK    3  A    between atoms: C_11  and  C_9 
REMARK    4  A    between atoms: C_23  and  C_9 
REMARK    5  A    between atoms: C_12  and  C_10 
REMARK    6  A    between atoms: C_24  and  C_10 
REMARK    7  A    between atoms: C_33  and  C_11 
REMARK    8  A    between atoms: C_34  and  C_12 
REMARK    9  A    between atoms: O_44  and  C_33 
REMARK   10  A    between atoms: O_46  and  C_34 
REMARK   11  A    between atoms: Zn_47  and  Zn_47 
ROOT
HETATM    1 Zn   UNK N   1      43.320  25.304   5.147  0.00  0.00     0.000 Zn
ENDROOT
TORSDOF 11
ENDMDL
MODEL 5
REMARK VINA RESULT:      -1.1     21.899     21.899
REMARK  11 active torsions:
REMARK  status: ('A' for Active; 'I' for Inactive)
REMARK    1  A    between atoms: C_21  and  C_7 
REMARK    2  A    between atoms: C_22  and  C_8 
REMARK    3  A    between atoms: C_11  and  C_9 
REMARK    4  A    between atoms: C_23  and  C_9 
REMARK    5  A    between atoms: C_12  and  C_10 
REMARK    6  A    between atoms: C_24  and  C_10 
REMARK    7  A    between atoms: C_33  and  C_11 
REMARK    8  A    between atoms: C_34  and  C_12 
REMARK    9  A    between atoms: O_44  and  C_33 
REMARK   10  A    between atoms: O_46  and  C_34 
REMARK   11  A    between atoms: Zn_47  and  Zn_47 
ROOT
HETATM    1 Zn   UNK N   1      21.612  31.062  19.633  0.00  0.00     0.000 Zn
ENDROOT
TORSDOF 11
ENDMDL
MODEL 6
REMARK VINA RESULT:      -1.1     12.325     12.325
REMARK  11 active torsions:
REMARK  status: ('A' for Active; 'I' for Inactive)
REMARK    1  A    between atoms: C_21  and  C_7 
REMARK    2  A    between atoms: C_22  and  C_8 
REMARK    3  A    between atoms: C_11  and  C_9 
REMARK    4  A    between atoms: C_23  and  C_9 
REMARK    5  A    between atoms: C_12  and  C_10 
REMARK    6  A    between atoms: C_24  and  C_10 
REMARK    7  A    between atoms: C_33  and  C_11 
REMARK    8  A    between atoms: C_34  and  C_12 
REMARK    9  A    between atoms: O_44  and  C_33 
REMARK   10  A    between atoms: O_46  and  C_34 
REMARK   11  A    between atoms: Zn_47  and  Zn_47 
ROOT
HETATM    1 Zn   UNK N   1      31.932  29.579  16.958  0.00  0.00     0.000 Zn
ENDROOT
TORSDOF 11
ENDMDL
MODEL 7
REMARK VINA RESULT:      -1.0     14.730     14.730
REMARK  11 active torsions:
REMARK  status: ('A' for Active; 'I' for Inactive)
REMARK    1  A    between atoms: C_21  and  C_7 
REMARK    2  A    between atoms: C_22  and  C_8 
REMARK    3  A    between atoms: C_11  and  C_9 
REMARK    4  A    between atoms: C_23  and  C_9 
REMARK    5  A    between atoms: C_12  and  C_10 
REMARK    6  A    between atoms: C_24  and  C_10 
REMARK    7  A    between atoms: C_33  and  C_11 
REMARK    8  A    between atoms: C_34  and  C_12 
REMARK    9  A    between atoms: O_44  and  C_33 
REMARK   10  A    between atoms: O_46  and  C_34 
REMARK   11  A    between atoms: Zn_47  and  Zn_47 
ROOT
HETATM    1 Zn   UNK N   1      48.469  30.690   5.853  0.00  0.00     0.000 Zn
ENDROOT
TORSDOF 11
ENDMDL
MODEL 8
REMARK VINA RESULT:      -1.0     17.382     17.382
REMARK  11 active torsions:
REMARK  status: ('A' for Active; 'I' for Inactive)
REMARK    1  A    between atoms: C_21  and  C_7 
REMARK    2  A    between atoms: C_22  and  C_8 
REMARK    3  A    between atoms: C_11  and  C_9 
REMARK    4  A    between atoms: C_23  and  C_9 
REMARK    5  A    between atoms: C_12  and  C_10 
REMARK    6  A    between atoms: C_24  and  C_10 
REMARK    7  A    between atoms: C_33  and  C_11 
REMARK    8  A    between atoms: C_34  and  C_12 
REMARK    9  A    between atoms: O_44  and  C_33 
REMARK   10  A    between atoms: O_46  and  C_34 
REMARK   11  A    between atoms: Zn_47  and  Zn_47 
ROOT
HETATM    1 Zn   UNK N   1      29.163  29.983  23.375  0.00  0.00     0.000 Zn
ENDROOT
TORSDOF 11
ENDMDL
MODEL 9
REMARK VINA RESULT:      -1.0     27.747     27.747
REMARK  11 active torsions:
REMARK  status: ('A' for Active; 'I' for Inactive)
REMARK    1  A    between atoms: C_21  and  C_7 
REMARK    2  A    between atoms: C_22  and  C_8 
REMARK    3  A    between atoms: C_11  and  C_9 
REMARK    4  A    between atoms: C_23  and  C_9 
REMARK    5  A    between atoms: C_12  and  C_10 
REMARK    6  A    between atoms: C_24  and  C_10 
REMARK    7  A    between atoms: C_33  and  C_11 
REMARK    8  A    between atoms: C_34  and  C_12 
REMARK    9  A    between atoms: O_44  and  C_33 
REMARK   10  A    between atoms: O_46  and  C_34 
REMARK   11  A    between atoms: Zn_47  and  Zn_47 
ROOT
HETATM    1 Zn   UNK N   1      19.922  20.075  -6.089  0.00  0.00     0.000 Zn
ENDROOT
TORSDOF 11
ENDMDL
