MODEL 1
REMARK VINA RESULT:      -9.0      0.000      0.000
REMARK  9 active torsions:
REMARK  status: ('A' for Active; 'I' for Inactive)
REMARK    1  A    between atoms: N_2  and  C_3 
REMARK       I    between atoms: N_2  and  C_21 
REMARK       I    between atoms: N_6  and  C_9 
REMARK    2  A    between atoms: C_9  and  C_11 
REMARK    3  A    between atoms: C_21  and  C_23 
REMARK    4  A    between atoms: C_32  and  C_33 
REMARK    5  A    between atoms: C_33  and  C_35 
REMARK    6  A    between atoms: C_35  and  C_36 
REMARK    7  A    between atoms: C_35  and  P_46 
REMARK    8  A    between atoms: P_46  and  O_47 
REMARK    9  A    between atoms: P_46  and  O_48 
ROOT
HETATM    1  C   UNK N   1      24.123  14.108   5.577  0.00  0.00     0.046 A 
HETATM    2  C   UNK N   1      25.441  13.684   5.321  0.00  0.00     0.030 A 
HETATM    3  C   UNK N   1      26.127  14.096   4.173  0.00  0.00    -0.025 A 
HETATM    4  C   UNK N   1      27.476  13.794   4.002  0.00  0.00     0.012 A 
HETATM    5  C   UNK N   1      28.158  14.239   2.864  0.00  0.00     0.001 A 
HETATM    6  C   UNK N   1      27.485  14.957   1.873  0.00  0.00     0.001 A 
HETATM    7  C   UNK N   1      26.138  15.276   2.046  0.00  0.00     0.012 A 
HETATM    8  C   UNK N   1      25.467  14.861   3.199  0.00  0.00    -0.025 A 
HETATM    9  C   UNK N   1      24.177  15.293   3.430  0.00  0.00     0.028 A 
HETATM   10  C   UNK N   1      23.510  14.991   4.612  0.00  0.00     0.028 A 
ENDROOT
BRANCH   1  11
HETATM   11  C   UNK N   1      23.382  13.640   6.837  0.00  0.00     0.254 C 
HETATM   12  N   UNK N   1      22.456  12.621   6.869  0.00  0.00    -0.347 N 
HETATM   13  C   UNK N   1      21.777  12.334   8.119  0.00  0.00     0.153 C 
HETATM   14  O   UNK N   1      23.565  14.255   7.870  0.00  0.00    -0.267 OA
BRANCH  12  15
HETATM   15  C   UNK N   1      22.008  11.931   5.685  0.00  0.00     0.090 C 
HETATM   16  C   UNK N   1      22.656  10.532   5.534  0.00  0.00     0.045 C 
HETATM   17  C   UNK N   1      21.934   9.671   4.472  0.00  0.00     0.128 C 
HETATM   18  N   UNK N   1      21.052  10.520   3.705  0.00  0.00    -0.348 N 
HETATM   19  C   UNK N   1      19.969  11.167   4.426  0.00  0.00     0.128 C 
HETATM   20  C   UNK N   1      21.351  10.804   2.400  0.00  0.00     0.253 C 
HETATM   21  C   UNK N   1      20.484  11.816   5.710  0.00  0.00     0.045 C 
HETATM   22  O   UNK N   1      22.264  10.185   1.858  0.00  0.00    -0.267 OA
BRANCH  20  23
HETATM   23  C   UNK N   1      20.693  11.894   1.614  0.00  0.00     0.033 A 
HETATM   24  C   UNK N   1      21.203  13.196   1.718  0.00  0.00     0.029 A 
HETATM   25  C   UNK N   1      20.534  14.274   1.137  0.00  0.00    -0.025 A 
HETATM   26  C   UNK N   1      21.030  15.570   1.293  0.00  0.00     0.012 A 
HETATM   27  C   UNK N   1      19.324  14.059   0.440  0.00  0.00    -0.026 A 
HETATM   28  C   UNK N   1      20.323  16.654   0.764  0.00  0.00     0.001 A 
HETATM   29  C   UNK N   1      19.119  16.444   0.082  0.00  0.00     0.001 A 
HETATM   30  C   UNK N   1      18.622  15.147  -0.085  0.00  0.00     0.012 A 
HETATM   31  C   UNK N   1      18.820  12.765   0.309  0.00  0.00     0.013 A 
HETATM   32  C   UNK N   1      19.497  11.692   0.895  0.00  0.00     0.018 A 
ENDBRANCH  20  23
ENDBRANCH  12  15
ENDBRANCH   1  11
BRANCH  10  33
HETATM   33  C   UNK N   1      22.304  15.800   4.922  0.00  0.00     0.180 C 
HETATM   34  O   UNK N   1      21.236  15.307   4.591  0.00  0.00    -0.291 OA
BRANCH  33  35
HETATM   35  C   UNK N   1      22.274  17.118   5.723  0.00  0.00     0.205 C 
BRANCH  35  36
HETATM   36  C   UNK N   1      22.207  18.298   4.728  0.00  0.00    -0.024 A 
HETATM   37  C   UNK N   1      20.973  18.682   4.172  0.00  0.00     0.009 A 
HETATM   38  C   UNK N   1      20.891  19.666   3.190  0.00  0.00     0.002 A 
HETATM   39  C   UNK N   1      22.049  20.266   2.703  0.00  0.00     0.012 A 
HETATM   40  C   UNK N   1      23.292  19.917   3.228  0.00  0.00    -0.025 A 
HETATM   41  C   UNK N   1      24.448  20.498   2.701  0.00  0.00     0.012 A 
HETATM   42  C   UNK N   1      23.384  18.956   4.266  0.00  0.00    -0.018 A 
HETATM   43  C   UNK N   1      25.703  20.144   3.200  0.00  0.00     0.001 A 
HETATM   44  C   UNK N   1      25.806  19.226   4.246  0.00  0.00     0.001 A 
HETATM   45  C   UNK N   1      24.654  18.640   4.776  0.00  0.00     0.013 A 
ENDBRANCH  35  36
BRANCH  35  46
HETATM   46  P   UNK N   1      20.840  17.185   6.972  0.00  0.00     0.252 P 
HETATM   47  O   UNK N   1      20.654  18.647   7.462  0.00  0.00    -0.653 OA
BRANCH  46  48
HETATM   48  O   UNK N   1      21.142  16.321   8.446  0.00  0.00    -0.328 OA
HETATM   49  H   UNK N   1      20.434  16.047   9.050  0.00  0.00     0.220 HD
ENDBRANCH  46  48
BRANCH  46  50
HETATM   50  O   UNK N   1      19.245  16.703   6.483  0.00  0.00    -0.328 OA
HETATM   51  H   UNK N   1      18.933  15.786   6.509  0.00  0.00     0.220 HD
ENDBRANCH  46  50
ENDBRANCH  35  46
ENDBRANCH  33  35
ENDBRANCH  10  33
TORSDOF 9
ENDMDL
MODEL 2
REMARK VINA RESULT:      -8.9      2.629      6.494
REMARK  9 active torsions:
REMARK  status: ('A' for Active; 'I' for Inactive)
REMARK    1  A    between atoms: N_2  and  C_3 
REMARK       I    between atoms: N_2  and  C_21 
REMARK       I    between atoms: N_6  and  C_9 
REMARK    2  A    between atoms: C_9  and  C_11 
REMARK    3  A    between atoms: C_21  and  C_23 
REMARK    4  A    between atoms: C_32  and  C_33 
REMARK    5  A    between atoms: C_33  and  C_35 
REMARK    6  A    between atoms: C_35  and  C_36 
REMARK    7  A    between atoms: C_35  and  P_46 
REMARK    8  A    between atoms: P_46  and  O_47 
REMARK    9  A    between atoms: P_46  and  O_48 
ROOT
HETATM    1  C   UNK N   1      22.424  16.316   5.790  0.00  0.00     0.046 A 
HETATM    2  C   UNK N   1      23.198  15.545   6.679  0.00  0.00     0.030 A 
HETATM    3  C   UNK N   1      22.755  14.296   7.131  0.00  0.00    -0.025 A 
HETATM    4  C   UNK N   1      23.589  13.477   7.889  0.00  0.00     0.012 A 
HETATM    5  C   UNK N   1      23.145  12.218   8.308  0.00  0.00     0.001 A 
HETATM    6  C   UNK N   1      21.852  11.787   8.005  0.00  0.00     0.001 A 
HETATM    7  C   UNK N   1      21.018  12.596   7.234  0.00  0.00     0.012 A 
HETATM    8  C   UNK N   1      21.475  13.838   6.785  0.00  0.00    -0.025 A 
HETATM    9  C   UNK N   1      20.701  14.574   5.912  0.00  0.00     0.028 A 
HETATM   10  C   UNK N   1      21.161  15.766   5.359  0.00  0.00     0.028 A 
ENDROOT
BRANCH   1  11
HETATM   11  C   UNK N   1      22.920  17.687   5.310  0.00  0.00     0.254 C 
HETATM   12  N   UNK N   1      24.071  17.894   4.584  0.00  0.00    -0.347 N 
HETATM   13  C   UNK N   1      24.457  19.255   4.260  0.00  0.00     0.153 C 
HETATM   14  O   UNK N   1      22.297  18.673   5.654  0.00  0.00    -0.267 OA
BRANCH  12  15
HETATM   15  C   UNK N   1      24.999  16.838   4.266  0.00  0.00     0.090 C 
HETATM   16  C   UNK N   1      26.088  17.288   3.260  0.00  0.00     0.045 C 
HETATM   17  C   UNK N   1      27.258  16.281   3.183  0.00  0.00     0.128 C 
HETATM   18  N   UNK N   1      26.862  15.057   3.841  0.00  0.00    -0.348 N 
HETATM   19  C   UNK N   1      26.563  15.139   5.260  0.00  0.00     0.128 C 
HETATM   20  C   UNK N   1      26.635  13.931   3.097  0.00  0.00     0.253 C 
HETATM   21  C   UNK N   1      25.640  16.320   5.553  0.00  0.00     0.045 C 
HETATM   22  O   UNK N   1      26.948  13.940   1.908  0.00  0.00    -0.267 OA
BRANCH  20  23
HETATM   23  C   UNK N   1      25.939  12.714   3.619  0.00  0.00     0.033 A 
HETATM   24  C   UNK N   1      24.549  12.617   3.458  0.00  0.00     0.029 A 
HETATM   25  C   UNK N   1      23.829  11.587   4.066  0.00  0.00    -0.025 A 
HETATM   26  C   UNK N   1      22.441  11.534   3.936  0.00  0.00     0.012 A 
HETATM   27  C   UNK N   1      24.502  10.630   4.858  0.00  0.00    -0.026 A 
HETATM   28  C   UNK N   1      21.717  10.538   4.598  0.00  0.00     0.001 A 
HETATM   29  C   UNK N   1      22.381   9.595   5.392  0.00  0.00     0.001 A 
HETATM   30  C   UNK N   1      23.774   9.638   5.518  0.00  0.00     0.012 A 
HETATM   31  C   UNK N   1      25.888  10.702   5.005  0.00  0.00     0.013 A 
HETATM   32  C   UNK N   1      26.599  11.739   4.394  0.00  0.00     0.018 A 
ENDBRANCH  20  23
ENDBRANCH  12  15
ENDBRANCH   1  11
BRANCH  10  33
HETATM   33  C   UNK N   1      20.432  16.271   4.168  0.00  0.00     0.180 C 
HETATM   34  O   UNK N   1      19.359  16.812   4.394  0.00  0.00    -0.291 OA
BRANCH  33  35
HETATM   35  C   UNK N   1      20.960  16.289   2.719  0.00  0.00     0.205 C 
BRANCH  35  36
HETATM   36  C   UNK N   1      20.615  14.939   2.051  0.00  0.00    -0.024 A 
HETATM   37  C   UNK N   1      19.354  14.351   2.260  0.00  0.00     0.009 A 
HETATM   38  C   UNK N   1      19.051  13.085   1.767  0.00  0.00     0.002 A 
HETATM   39  C   UNK N   1      20.017  12.350   1.085  0.00  0.00     0.012 A 
HETATM   40  C   UNK N   1      21.278  12.897   0.854  0.00  0.00    -0.025 A 
HETATM   41  C   UNK N   1      22.250  12.132   0.204  0.00  0.00     0.012 A 
HETATM   42  C   UNK N   1      21.582  14.206   1.304  0.00  0.00    -0.018 A 
HETATM   43  C   UNK N   1      23.526  12.655  -0.016  0.00  0.00     0.001 A 
HETATM   44  C   UNK N   1      23.827  13.955   0.390  0.00  0.00     0.001 A 
HETATM   45  C   UNK N   1      22.861  14.725   1.042  0.00  0.00     0.013 A 
ENDBRANCH  35  36
BRANCH  35  46
HETATM   46  P   UNK N   1      20.281  17.753   1.709  0.00  0.00     0.252 P 
HETATM   47  O   UNK N   1      21.088  19.033   2.056  0.00  0.00    -0.653 OA
BRANCH  46  48
HETATM   48  O   UNK N   1      18.655  18.202   2.116  0.00  0.00    -0.328 OA
HETATM   49  H   UNK N   1      17.878  17.743   1.760  0.00  0.00     0.220 HD
ENDBRANCH  46  48
BRANCH  46  50
HETATM   50  O   UNK N   1      20.314  17.695  -0.026  0.00  0.00    -0.328 OA
HETATM   51  H   UNK N   1      19.523  17.786  -0.578  0.00  0.00     0.220 HD
ENDBRANCH  46  50
ENDBRANCH  35  46
ENDBRANCH  33  35
ENDBRANCH  10  33
TORSDOF 9
ENDMDL
MODEL 3
REMARK VINA RESULT:      -8.8      2.637      5.917
REMARK  9 active torsions:
REMARK  status: ('A' for Active; 'I' for Inactive)
REMARK    1  A    between atoms: N_2  and  C_3 
REMARK       I    between atoms: N_2  and  C_21 
REMARK       I    between atoms: N_6  and  C_9 
REMARK    2  A    between atoms: C_9  and  C_11 
REMARK    3  A    between atoms: C_21  and  C_23 
REMARK    4  A    between atoms: C_32  and  C_33 
REMARK    5  A    between atoms: C_33  and  C_35 
REMARK    6  A    between atoms: C_35  and  C_36 
REMARK    7  A    between atoms: C_35  and  P_46 
REMARK    8  A    between atoms: P_46  and  O_47 
REMARK    9  A    between atoms: P_46  and  O_48 
ROOT
HETATM    1  C   UNK N   1      21.512  13.657   7.264  0.00  0.00     0.046 A 
HETATM    2  C   UNK N   1      21.378  12.844   8.407  0.00  0.00     0.030 A 
HETATM    3  C   UNK N   1      22.454  12.628   9.274  0.00  0.00    -0.025 A 
HETATM    4  C   UNK N   1      22.275  11.947  10.476  0.00  0.00     0.012 A 
HETATM    5  C   UNK N   1      23.354  11.764  11.349  0.00  0.00     0.001 A 
HETATM    6  C   UNK N   1      24.625  12.229  11.007  0.00  0.00     0.001 A 
HETATM    7  C   UNK N   1      24.808  12.925   9.813  0.00  0.00     0.012 A 
HETATM    8  C   UNK N   1      23.723  13.138   8.958  0.00  0.00    -0.025 A 
HETATM    9  C   UNK N   1      23.877  13.941   7.847  0.00  0.00     0.028 A 
HETATM   10  C   UNK N   1      22.800  14.264   7.028  0.00  0.00     0.028 A 
ENDROOT
BRANCH   1  11
HETATM   11  C   UNK N   1      20.323  13.878   6.319  0.00  0.00     0.254 C 
HETATM   12  N   UNK N   1      19.969  13.029   5.293  0.00  0.00    -0.347 N 
HETATM   13  C   UNK N   1      18.864  13.402   4.430  0.00  0.00     0.153 C 
HETATM   14  O   UNK N   1      19.688  14.909   6.429  0.00  0.00    -0.267 OA
BRANCH  12  15
HETATM   15  C   UNK N   1      20.743  11.868   4.933  0.00  0.00     0.090 C 
HETATM   16  C   UNK N   1      20.043  10.543   5.329  0.00  0.00     0.045 C 
HETATM   17  C   UNK N   1      20.697   9.318   4.653  0.00  0.00     0.128 C 
HETATM   18  N   UNK N   1      21.964   9.720   4.085  0.00  0.00    -0.348 N 
HETATM   19  C   UNK N   1      21.926  10.722   3.033  0.00  0.00     0.128 C 
HETATM   20  C   UNK N   1      23.130   9.277   4.648  0.00  0.00     0.253 C 
HETATM   21  C   UNK N   1      21.031  11.894   3.432  0.00  0.00     0.045 C 
HETATM   22  O   UNK N   1      23.071   8.403   5.510  0.00  0.00    -0.267 OA
BRANCH  20  23
HETATM   23  C   UNK N   1      24.475   9.859   4.345  0.00  0.00     0.033 A 
HETATM   24  C   UNK N   1      24.878  11.010   5.038  0.00  0.00     0.029 A 
HETATM   25  C   UNK N   1      26.045  11.686   4.683  0.00  0.00    -0.025 A 
HETATM   26  C   UNK N   1      26.405  12.857   5.351  0.00  0.00     0.012 A 
HETATM   27  C   UNK N   1      26.833  11.214   3.609  0.00  0.00    -0.026 A 
HETATM   28  C   UNK N   1      27.541  13.566   4.950  0.00  0.00     0.001 A 
HETATM   29  C   UNK N   1      28.318  13.106   3.881  0.00  0.00     0.001 A 
HETATM   30  C   UNK N   1      27.967  11.927   3.213  0.00  0.00     0.012 A 
HETATM   31  C   UNK N   1      26.456  10.056   2.929  0.00  0.00     0.013 A 
HETATM   32  C   UNK N   1      25.283   9.387   3.292  0.00  0.00     0.018 A 
ENDBRANCH  20  23
ENDBRANCH  12  15
ENDBRANCH   1  11
BRANCH  10  33
HETATM   33  C   UNK N   1      22.986  15.413   6.106  0.00  0.00     0.180 C 
HETATM   34  O   UNK N   1      22.470  16.463   6.458  0.00  0.00    -0.291 OA
BRANCH  33  35
HETATM   35  C   UNK N   1      23.864  15.429   4.837  0.00  0.00     0.205 C 
BRANCH  35  36
HETATM   36  C   UNK N   1      22.942  15.378   3.599  0.00  0.00    -0.024 A 
HETATM   37  C   UNK N   1      21.713  16.063   3.606  0.00  0.00     0.009 A 
HETATM   38  C   UNK N   1      20.809  15.948   2.553  0.00  0.00     0.002 A 
HETATM   39  C   UNK N   1      21.089  15.107   1.479  0.00  0.00     0.012 A 
HETATM   40  C   UNK N   1      22.296  14.412   1.432  0.00  0.00    -0.025 A 
HETATM   41  C   UNK N   1      22.546  13.541   0.368  0.00  0.00     0.012 A 
HETATM   42  C   UNK N   1      23.248  14.563   2.471  0.00  0.00    -0.018 A 
HETATM   43  C   UNK N   1      23.740  12.820   0.315  0.00  0.00     0.001 A 
HETATM   44  C   UNK N   1      24.701  12.986   1.312  0.00  0.00     0.001 A 
HETATM   45  C   UNK N   1      24.458  13.853   2.380  0.00  0.00     0.013 A 
ENDBRANCH  35  36
BRANCH  35  46
HETATM   46  P   UNK N   1      25.029  16.933   4.770  0.00  0.00     0.252 P 
HETATM   47  O   UNK N   1      26.213  16.708   5.750  0.00  0.00    -0.653 OA
BRANCH  46  48
HETATM   48  O   UNK N   1      24.322  18.405   5.354  0.00  0.00    -0.328 OA
HETATM   49  H   UNK N   1      23.390  18.474   5.615  0.00  0.00     0.220 HD
ENDBRANCH  46  48
BRANCH  46  50
HETATM   50  O   UNK N   1      25.800  17.362   3.275  0.00  0.00    -0.328 OA
HETATM   51  H   UNK N   1      26.739  17.594   3.206  0.00  0.00     0.220 HD
ENDBRANCH  46  50
ENDBRANCH  35  46
ENDBRANCH  33  35
ENDBRANCH  10  33
TORSDOF 9
ENDMDL
MODEL 4
REMARK VINA RESULT:      -8.5     13.392     17.102
REMARK  9 active torsions:
REMARK  status: ('A' for Active; 'I' for Inactive)
REMARK    1  A    between atoms: N_2  and  C_3 
REMARK       I    between atoms: N_2  and  C_21 
REMARK       I    between atoms: N_6  and  C_9 
REMARK    2  A    between atoms: C_9  and  C_11 
REMARK    3  A    between atoms: C_21  and  C_23 
REMARK    4  A    between atoms: C_32  and  C_33 
REMARK    5  A    between atoms: C_33  and  C_35 
REMARK    6  A    between atoms: C_35  and  C_36 
REMARK    7  A    between atoms: C_35  and  P_46 
REMARK    8  A    between atoms: P_46  and  O_47 
REMARK    9  A    between atoms: P_46  and  O_48 
ROOT
HETATM    1  C   UNK N   1      29.054  27.916  -7.822  0.00  0.00     0.046 A 
HETATM    2  C   UNK N   1      28.081  27.365  -8.678  0.00  0.00     0.030 A 
HETATM    3  C   UNK N   1      28.343  26.215  -9.431  0.00  0.00    -0.025 A 
HETATM    4  C   UNK N   1      27.331  25.594 -10.159  0.00  0.00     0.012 A 
HETATM    5  C   UNK N   1      27.600  24.427 -10.883  0.00  0.00     0.001 A 
HETATM    6  C   UNK N   1      28.891  23.896 -10.913  0.00  0.00     0.001 A 
HETATM    7  C   UNK N   1      29.905  24.505 -10.175  0.00  0.00     0.012 A 
HETATM    8  C   UNK N   1      29.628  25.650  -9.423  0.00  0.00    -0.025 A 
HETATM    9  C   UNK N   1      30.596  26.169  -8.589  0.00  0.00     0.028 A 
HETATM   10  C   UNK N   1      30.329  27.244  -7.746  0.00  0.00     0.028 A 
ENDROOT
BRANCH   1  11
HETATM   11  C   UNK N   1      28.752  29.183  -7.009  0.00  0.00     0.254 C 
HETATM   12  N   UNK N   1      28.007  29.213  -5.851  0.00  0.00    -0.347 N 
HETATM   13  C   UNK N   1      27.740  30.495  -5.227  0.00  0.00     0.153 C 
HETATM   14  O   UNK N   1      29.132  30.250  -7.451  0.00  0.00    -0.267 OA
BRANCH  12  15
HETATM   15  C   UNK N   1      27.343  28.051  -5.316  0.00  0.00     0.090 C 
HETATM   16  C   UNK N   1      26.993  28.208  -3.815  0.00  0.00     0.045 C 
HETATM   17  C   UNK N   1      25.998  27.127  -3.336  0.00  0.00     0.128 C 
HETATM   18  N   UNK N   1      25.911  26.094  -4.343  0.00  0.00    -0.348 N 
HETATM   19  C   UNK N   1      25.402  26.487  -5.646  0.00  0.00     0.128 C 
HETATM   20  C   UNK N   1      26.444  24.859  -4.094  0.00  0.00     0.253 C 
HETATM   21  C   UNK N   1      26.083  27.765  -6.133  0.00  0.00     0.045 C 
HETATM   22  O   UNK N   1      26.822  24.601  -2.952  0.00  0.00    -0.267 OA
BRANCH  20  23
HETATM   23  C   UNK N   1      26.683  23.827  -5.150  0.00  0.00     0.033 A 
HETATM   24  C   UNK N   1      28.007  23.498  -5.478  0.00  0.00     0.029 A 
HETATM   25  C   UNK N   1      28.289  22.666  -6.561  0.00  0.00    -0.025 A 
HETATM   26  C   UNK N   1      29.614  22.390  -6.903  0.00  0.00     0.012 A 
HETATM   27  C   UNK N   1      27.234  22.150  -7.347  0.00  0.00    -0.026 A 
HETATM   28  C   UNK N   1      29.894  21.608  -8.028  0.00  0.00     0.001 A 
HETATM   29  C   UNK N   1      28.851  21.104  -8.812  0.00  0.00     0.001 A 
HETATM   30  C   UNK N   1      27.521  21.370  -8.470  0.00  0.00     0.012 A 
HETATM   31  C   UNK N   1      25.912  22.449  -7.016  0.00  0.00     0.013 A 
HETATM   32  C   UNK N   1      25.641  23.285  -5.928  0.00  0.00     0.018 A 
ENDBRANCH  20  23
ENDBRANCH  12  15
ENDBRANCH   1  11
BRANCH  10  33
HETATM   33  C   UNK N   1      31.292  27.476  -6.640  0.00  0.00     0.180 C 
HETATM   34  O   UNK N   1      32.201  28.257  -6.884  0.00  0.00    -0.291 OA
BRANCH  33  35
HETATM   35  C   UNK N   1      31.173  26.932  -5.201  0.00  0.00     0.205 C 
BRANCH  35  36
HETATM   36  C   UNK N   1      31.998  25.631  -5.096  0.00  0.00    -0.024 A 
HETATM   37  C   UNK N   1      33.124  25.442  -5.917  0.00  0.00     0.009 A 
HETATM   38  C   UNK N   1      33.824  24.238  -5.928  0.00  0.00     0.002 A 
HETATM   39  C   UNK N   1      33.390  23.169  -5.148  0.00  0.00     0.012 A 
HETATM   40  C   UNK N   1      32.280  23.315  -4.318  0.00  0.00    -0.025 A 
HETATM   41  C   UNK N   1      31.832  22.222  -3.571  0.00  0.00     0.012 A 
HETATM   42  C   UNK N   1      31.592  24.553  -4.257  0.00  0.00    -0.018 A 
HETATM   43  C   UNK N   1      30.708  22.344  -2.751  0.00  0.00     0.001 A 
HETATM   44  C   UNK N   1      30.043  23.566  -2.655  0.00  0.00     0.001 A 
HETATM   45  C   UNK N   1      30.484  24.662  -3.399  0.00  0.00     0.013 A 
ENDBRANCH  35  36
BRANCH  35  46
HETATM   46  P   UNK N   1      31.714  28.202  -3.890  0.00  0.00     0.252 P 
HETATM   47  O   UNK N   1      30.951  29.535  -4.122  0.00  0.00    -0.653 OA
BRANCH  46  48
HETATM   48  O   UNK N   1      33.376  28.684  -4.012  0.00  0.00    -0.328 OA
HETATM   49  H   UNK N   1      33.793  28.926  -4.853  0.00  0.00     0.220 HD
ENDBRANCH  46  48
BRANCH  46  50
HETATM   50  O   UNK N   1      31.462  27.865  -2.206  0.00  0.00    -0.328 OA
HETATM   51  H   UNK N   1      30.700  27.369  -1.869  0.00  0.00     0.220 HD
ENDBRANCH  46  50
ENDBRANCH  35  46
ENDBRANCH  33  35
ENDBRANCH  10  33
TORSDOF 9
ENDMDL
MODEL 5
REMARK VINA RESULT:      -8.3     13.562     16.651
REMARK  9 active torsions:
REMARK  status: ('A' for Active; 'I' for Inactive)
REMARK    1  A    between atoms: N_2  and  C_3 
REMARK       I    between atoms: N_2  and  C_21 
REMARK       I    between atoms: N_6  and  C_9 
REMARK    2  A    between atoms: C_9  and  C_11 
REMARK    3  A    between atoms: C_21  and  C_23 
REMARK    4  A    between atoms: C_32  and  C_33 
REMARK    5  A    between atoms: C_33  and  C_35 
REMARK    6  A    between atoms: C_35  and  C_36 
REMARK    7  A    between atoms: C_35  and  P_46 
REMARK    8  A    between atoms: P_46  and  O_47 
REMARK    9  A    between atoms: P_46  and  O_48 
ROOT
HETATM    1  C   UNK N   1      30.157  25.507  -4.079  0.00  0.00     0.046 A 
HETATM    2  C   UNK N   1      31.391  24.859  -4.275  0.00  0.00     0.030 A 
HETATM    3  C   UNK N   1      31.481  23.463  -4.316  0.00  0.00    -0.025 A 
HETATM    4  C   UNK N   1      32.676  22.835  -4.658  0.00  0.00     0.012 A 
HETATM    5  C   UNK N   1      32.743  21.439  -4.725  0.00  0.00     0.001 A 
HETATM    6  C   UNK N   1      31.626  20.662  -4.414  0.00  0.00     0.001 A 
HETATM    7  C   UNK N   1      30.422  21.285  -4.086  0.00  0.00     0.012 A 
HETATM    8  C   UNK N   1      30.346  22.680  -4.054  0.00  0.00    -0.025 A 
HETATM    9  C   UNK N   1      29.124  23.292  -3.863  0.00  0.00     0.028 A 
HETATM   10  C   UNK N   1      28.986  24.675  -3.928  0.00  0.00     0.028 A 
ENDROOT
BRANCH   1  11
HETATM   11  C   UNK N   1      30.077  27.039  -4.028  0.00  0.00     0.254 C 
HETATM   12  N   UNK N   1      30.134  27.864  -5.129  0.00  0.00    -0.347 N 
HETATM   13  C   UNK N   1      30.121  29.301  -4.926  0.00  0.00     0.153 C 
HETATM   14  O   UNK N   1      30.036  27.574  -2.937  0.00  0.00    -0.267 OA
BRANCH  12  15
HETATM   15  C   UNK N   1      30.367  27.374  -6.465  0.00  0.00     0.090 C 
HETATM   16  C   UNK N   1      29.949  28.396  -7.552  0.00  0.00     0.045 C 
HETATM   17  C   UNK N   1      30.503  28.020  -8.944  0.00  0.00     0.128 C 
HETATM   18  N   UNK N   1      30.997  26.662  -8.898  0.00  0.00    -0.348 N 
HETATM   19  C   UNK N   1      32.105  26.395  -7.996  0.00  0.00     0.128 C 
HETATM   20  C   UNK N   1      30.324  25.673  -9.563  0.00  0.00     0.253 C 
HETATM   21  C   UNK N   1      31.842  27.001  -6.619  0.00  0.00     0.045 C 
HETATM   22  O   UNK N   1      29.420  25.993 -10.332  0.00  0.00    -0.267 OA
BRANCH  20  23
HETATM   23  C   UNK N   1      30.559  24.212  -9.341  0.00  0.00     0.033 A 
HETATM   24  C   UNK N   1      29.570  23.468  -8.682  0.00  0.00     0.029 A 
HETATM   25  C   UNK N   1      29.803  22.145  -8.307  0.00  0.00    -0.025 A 
HETATM   26  C   UNK N   1      28.826  21.434  -7.608  0.00  0.00     0.012 A 
HETATM   27  C   UNK N   1      31.051  21.543  -8.585  0.00  0.00    -0.026 A 
HETATM   28  C   UNK N   1      29.088  20.130  -7.177  0.00  0.00     0.001 A 
HETATM   29  C   UNK N   1      30.327  19.536  -7.443  0.00  0.00     0.001 A 
HETATM   30  C   UNK N   1      31.307  20.240  -8.151  0.00  0.00     0.012 A 
HETATM   31  C   UNK N   1      32.034  22.266  -9.262  0.00  0.00     0.013 A 
HETATM   32  C   UNK N   1      31.790  23.591  -9.633  0.00  0.00     0.018 A 
ENDBRANCH  20  23
ENDBRANCH  12  15
ENDBRANCH   1  11
BRANCH  10  33
HETATM   33  C   UNK N   1      27.606  25.199  -4.089  0.00  0.00     0.180 C 
HETATM   34  O   UNK N   1      26.900  25.144  -3.092  0.00  0.00    -0.291 OA
BRANCH  33  35
HETATM   35  C   UNK N   1      27.042  25.908  -5.337  0.00  0.00     0.205 C 
BRANCH  35  36
HETATM   36  C   UNK N   1      26.363  24.853  -6.239  0.00  0.00    -0.024 A 
HETATM   37  C   UNK N   1      26.008  23.599  -5.711  0.00  0.00     0.009 A 
HETATM   38  C   UNK N   1      25.498  22.587  -6.521  0.00  0.00     0.002 A 
HETATM   39  C   UNK N   1      25.369  22.787  -7.893  0.00  0.00     0.012 A 
HETATM   40  C   UNK N   1      25.707  24.016  -8.455  0.00  0.00    -0.025 A 
HETATM   41  C   UNK N   1      25.610  24.188  -9.839  0.00  0.00     0.012 A 
HETATM   42  C   UNK N   1      26.176  25.072  -7.635  0.00  0.00    -0.018 A 
HETATM   43  C   UNK N   1      25.966  25.406 -10.422  0.00  0.00     0.001 A 
HETATM   44  C   UNK N   1      26.395  26.465  -9.622  0.00  0.00     0.001 A 
HETATM   45  C   UNK N   1      26.496  26.299  -8.239  0.00  0.00     0.013 A 
ENDBRANCH  35  36
BRANCH  35  46
HETATM   46  P   UNK N   1      25.841  27.318  -4.898  0.00  0.00     0.252 P 
HETATM   47  O   UNK N   1      26.453  28.672  -5.352  0.00  0.00    -0.653 OA
BRANCH  46  48
HETATM   48  O   UNK N   1      25.611  27.552  -3.195  0.00  0.00    -0.328 OA
HETATM   49  H   UNK N   1      25.612  26.820  -2.559  0.00  0.00     0.220 HD
ENDBRANCH  46  48
BRANCH  46  50
HETATM   50  O   UNK N   1      24.243  27.335  -5.578  0.00  0.00    -0.328 OA
HETATM   51  H   UNK N   1      23.836  26.565  -6.003  0.00  0.00     0.220 HD
ENDBRANCH  46  50
ENDBRANCH  35  46
ENDBRANCH  33  35
ENDBRANCH  10  33
TORSDOF 9
ENDMDL
MODEL 6
REMARK VINA RESULT:      -8.3      3.732      8.390
REMARK  9 active torsions:
REMARK  status: ('A' for Active; 'I' for Inactive)
REMARK    1  A    between atoms: N_2  and  C_3 
REMARK       I    between atoms: N_2  and  C_21 
REMARK       I    between atoms: N_6  and  C_9 
REMARK    2  A    between atoms: C_9  and  C_11 
REMARK    3  A    between atoms: C_21  and  C_23 
REMARK    4  A    between atoms: C_32  and  C_33 
REMARK    5  A    between atoms: C_33  and  C_35 
REMARK    6  A    between atoms: C_35  and  C_36 
REMARK    7  A    between atoms: C_35  and  P_46 
REMARK    8  A    between atoms: P_46  and  O_47 
REMARK    9  A    between atoms: P_46  and  O_48 
ROOT
HETATM    1  C   UNK N   1      22.802  16.593   5.410  0.00  0.00     0.046 A 
HETATM    2  C   UNK N   1      23.799  16.027   6.228  0.00  0.00     0.030 A 
HETATM    3  C   UNK N   1      23.692  14.714   6.700  0.00  0.00    -0.025 A 
HETATM    4  C   UNK N   1      24.749  14.113   7.381  0.00  0.00     0.012 A 
HETATM    5  C   UNK N   1      24.640  12.789   7.821  0.00  0.00     0.001 A 
HETATM    6  C   UNK N   1      23.461  12.071   7.613  0.00  0.00     0.001 A 
HETATM    7  C   UNK N   1      22.406  12.660   6.918  0.00  0.00     0.012 A 
HETATM    8  C   UNK N   1      22.529  13.971   6.448  0.00  0.00    -0.025 A 
HETATM    9  C   UNK N   1      21.540  14.503   5.646  0.00  0.00     0.028 A 
HETATM   10  C   UNK N   1      21.670  15.764   5.072  0.00  0.00     0.028 A 
ENDROOT
BRANCH   1  11
HETATM   11  C   UNK N   1      22.931  18.038   4.908  0.00  0.00     0.254 C 
HETATM   12  N   UNK N   1      24.052  18.561   4.303  0.00  0.00    -0.347 N 
HETATM   13  C   UNK N   1      24.059  19.967   3.944  0.00  0.00     0.153 C 
HETATM   14  O   UNK N   1      22.010  18.802   5.123  0.00  0.00    -0.267 OA
BRANCH  12  15
HETATM   15  C   UNK N   1      25.279  17.821   4.152  0.00  0.00     0.090 C 
HETATM   16  C   UNK N   1      25.091  16.519   3.333  0.00  0.00     0.045 C 
HETATM   17  C   UNK N   1      26.441  15.913   2.890  0.00  0.00     0.128 C 
HETATM   18  N   UNK N   1      27.506  16.561   3.621  0.00  0.00    -0.348 N 
HETATM   19  C   UNK N   1      27.676  17.988   3.409  0.00  0.00     0.128 C 
HETATM   20  C   UNK N   1      28.192  15.864   4.578  0.00  0.00     0.253 C 
HETATM   21  C   UNK N   1      26.336  18.715   3.502  0.00  0.00     0.045 C 
HETATM   22  O   UNK N   1      28.009  14.651   4.666  0.00  0.00    -0.267 OA
BRANCH  20  23
HETATM   23  C   UNK N   1      29.087  16.503   5.592  0.00  0.00     0.033 A 
HETATM   24  C   UNK N   1      30.441  16.681   5.272  0.00  0.00     0.029 A 
HETATM   25  C   UNK N   1      31.351  17.121   6.233  0.00  0.00    -0.025 A 
HETATM   26  C   UNK N   1      32.704  17.245   5.911  0.00  0.00     0.012 A 
HETATM   27  C   UNK N   1      30.912  17.387   7.550  0.00  0.00    -0.026 A 
HETATM   28  C   UNK N   1      33.622  17.625   6.894  0.00  0.00     0.001 A 
HETATM   29  C   UNK N   1      33.190  17.880   8.200  0.00  0.00     0.001 A 
HETATM   30  C   UNK N   1      31.834  17.765   8.528  0.00  0.00     0.012 A 
HETATM   31  C   UNK N   1      29.563  17.238   7.873  0.00  0.00     0.013 A 
HETATM   32  C   UNK N   1      28.660  16.794   6.903  0.00  0.00     0.018 A 
ENDBRANCH  20  23
ENDBRANCH  12  15
ENDBRANCH   1  11
BRANCH  10  33
HETATM   33  C   UNK N   1      20.755  16.080   3.947  0.00  0.00     0.180 C 
HETATM   34  O   UNK N   1      19.604  16.352   4.260  0.00  0.00    -0.291 OA
BRANCH  33  35
HETATM   35  C   UNK N   1      21.151  16.218   2.462  0.00  0.00     0.205 C 
BRANCH  35  36
HETATM   36  C   UNK N   1      20.778  14.911   1.728  0.00  0.00    -0.024 A 
HETATM   37  C   UNK N   1      19.448  14.455   1.733  0.00  0.00     0.009 A 
HETATM   38  C   UNK N   1      19.097  13.227   1.178  0.00  0.00     0.002 A 
HETATM   39  C   UNK N   1      20.077  12.398   0.638  0.00  0.00     0.012 A 
HETATM   40  C   UNK N   1      21.407  12.813   0.611  0.00  0.00    -0.025 A 
HETATM   41  C   UNK N   1      22.385  11.953   0.103  0.00  0.00     0.012 A 
HETATM   42  C   UNK N   1      21.769  14.084   1.124  0.00  0.00    -0.018 A 
HETATM   43  C   UNK N   1      23.725  12.344   0.088  0.00  0.00     0.001 A 
HETATM   44  C   UNK N   1      24.090  13.606   0.557  0.00  0.00     0.001 A 
HETATM   45  C   UNK N   1      23.119  14.470   1.068  0.00  0.00     0.013 A 
ENDBRANCH  35  36
BRANCH  35  46
HETATM   46  P   UNK N   1      20.354  17.732   1.628  0.00  0.00     0.252 P 
HETATM   47  O   UNK N   1      21.145  19.010   2.020  0.00  0.00    -0.653 OA
BRANCH  46  48
HETATM   48  O   UNK N   1      18.750  18.087   2.186  0.00  0.00    -0.328 OA
HETATM   49  H   UNK N   1      18.298  17.557   2.861  0.00  0.00     0.220 HD
ENDBRANCH  46  48
BRANCH  46  50
HETATM   50  O   UNK N   1      20.260  17.815  -0.104  0.00  0.00    -0.328 OA
HETATM   51  H   UNK N   1      19.795  17.159  -0.645  0.00  0.00     0.220 HD
ENDBRANCH  46  50
ENDBRANCH  35  46
ENDBRANCH  33  35
ENDBRANCH  10  33
TORSDOF 9
ENDMDL
MODEL 7
REMARK VINA RESULT:      -8.2     13.900     17.693
REMARK  9 active torsions:
REMARK  status: ('A' for Active; 'I' for Inactive)
REMARK    1  A    between atoms: N_2  and  C_3 
REMARK       I    between atoms: N_2  and  C_21 
REMARK       I    between atoms: N_6  and  C_9 
REMARK    2  A    between atoms: C_9  and  C_11 
REMARK    3  A    between atoms: C_21  and  C_23 
REMARK    4  A    between atoms: C_32  and  C_33 
REMARK    5  A    between atoms: C_33  and  C_35 
REMARK    6  A    between atoms: C_35  and  C_36 
REMARK    7  A    between atoms: C_35  and  P_46 
REMARK    8  A    between atoms: P_46  and  O_47 
REMARK    9  A    between atoms: P_46  and  O_48 
ROOT
HETATM    1  C   UNK N   1      26.226  23.600  -7.904  0.00  0.00     0.046 A 
HETATM    2  C   UNK N   1      25.559  24.804  -7.606  0.00  0.00     0.030 A 
HETATM    3  C   UNK N   1      25.691  25.417  -6.355  0.00  0.00    -0.025 A 
HETATM    4  C   UNK N   1      25.150  26.679  -6.120  0.00  0.00     0.012 A 
HETATM    5  C   UNK N   1      25.317  27.294  -4.874  0.00  0.00     0.001 A 
HETATM    6  C   UNK N   1      25.992  26.635  -3.845  0.00  0.00     0.001 A 
HETATM    7  C   UNK N   1      26.549  25.378  -4.079  0.00  0.00     0.012 A 
HETATM    8  C   UNK N   1      26.413  24.780  -5.335  0.00  0.00    -0.025 A 
HETATM    9  C   UNK N   1      27.079  23.602  -5.604  0.00  0.00     0.028 A 
HETATM   10  C   UNK N   1      27.056  23.027  -6.870  0.00  0.00     0.028 A 
ENDROOT
BRANCH   1  11
HETATM   11  C   UNK N   1      26.063  22.935  -9.278  0.00  0.00     0.254 C 
HETATM   12  N   UNK N   1      26.776  23.281 -10.405  0.00  0.00    -0.347 N 
HETATM   13  C   UNK N   1      26.465  22.616 -11.657  0.00  0.00     0.153 C 
HETATM   14  O   UNK N   1      25.195  22.094  -9.408  0.00  0.00    -0.267 OA
BRANCH  12  15
HETATM   15  C   UNK N   1      27.704  24.383 -10.439  0.00  0.00     0.090 C 
HETATM   16  C   UNK N   1      28.993  24.048 -11.230  0.00  0.00     0.045 C 
HETATM   17  C   UNK N   1      29.821  25.312 -11.552  0.00  0.00     0.128 C 
HETATM   18  N   UNK N   1      29.317  26.412 -10.761  0.00  0.00    -0.348 N 
HETATM   19  C   UNK N   1      27.944  26.822 -11.002  0.00  0.00     0.128 C 
HETATM   20  C   UNK N   1      30.073  26.910  -9.734  0.00  0.00     0.253 C 
HETATM   21  C   UNK N   1      27.014  25.610 -11.034  0.00  0.00     0.045 C 
HETATM   22  O   UNK N   1      31.237  26.531  -9.624  0.00  0.00    -0.267 OA
BRANCH  20  23
HETATM   23  C   UNK N   1      29.539  27.822  -8.675  0.00  0.00     0.033 A 
HETATM   24  C   UNK N   1      30.419  28.731  -8.069  0.00  0.00     0.029 A 
HETATM   25  C   UNK N   1      30.018  29.489  -6.969  0.00  0.00    -0.025 A 
HETATM   26  C   UNK N   1      30.921  30.352  -6.347  0.00  0.00     0.012 A 
HETATM   27  C   UNK N   1      28.712  29.341  -6.450  0.00  0.00    -0.026 A 
HETATM   28  C   UNK N   1      30.535  31.062  -5.207  0.00  0.00     0.001 A 
HETATM   29  C   UNK N   1      29.245  30.909  -4.686  0.00  0.00     0.001 A 
HETATM   30  C   UNK N   1      28.331  30.052  -5.309  0.00  0.00     0.012 A 
HETATM   31  C   UNK N   1      27.820  28.458  -7.060  0.00  0.00     0.013 A 
HETATM   32  C   UNK N   1      28.233  27.702  -8.160  0.00  0.00     0.018 A 
ENDBRANCH  20  23
ENDBRANCH  12  15
ENDBRANCH   1  11
BRANCH  10  33
HETATM   33  C   UNK N   1      28.088  21.997  -7.153  0.00  0.00     0.180 C 
HETATM   34  O   UNK N   1      27.663  20.893  -7.462  0.00  0.00    -0.291 OA
BRANCH  33  35
HETATM   35  C   UNK N   1      29.612  22.229  -7.215  0.00  0.00     0.205 C 
BRANCH  35  36
HETATM   36  C   UNK N   1      30.136  22.449  -5.779  0.00  0.00    -0.024 A 
HETATM   37  C   UNK N   1      30.312  21.352  -4.916  0.00  0.00     0.009 A 
HETATM   38  C   UNK N   1      30.675  21.525  -3.583  0.00  0.00     0.002 A 
HETATM   39  C   UNK N   1      30.832  22.806  -3.061  0.00  0.00     0.012 A 
HETATM   40  C   UNK N   1      30.670  23.920  -3.882  0.00  0.00    -0.025 A 
HETATM   41  C   UNK N   1      30.791  25.200  -3.334  0.00  0.00     0.012 A 
HETATM   42  C   UNK N   1      30.353  23.756  -5.254  0.00  0.00    -0.018 A 
HETATM   43  C   UNK N   1      30.610  26.329  -4.137  0.00  0.00     0.001 A 
HETATM   44  C   UNK N   1      30.333  26.181  -5.496  0.00  0.00     0.001 A 
HETATM   45  C   UNK N   1      30.209  24.905  -6.050  0.00  0.00     0.013 A 
ENDBRANCH  35  36
BRANCH  35  46
HETATM   46  P   UNK N   1      30.535  20.806  -8.077  0.00  0.00     0.252 P 
HETATM   47  O   UNK N   1      30.301  20.898  -9.610  0.00  0.00    -0.653 OA
BRANCH  46  48
HETATM   48  O   UNK N   1      29.929  19.227  -7.690  0.00  0.00    -0.328 OA
HETATM   49  H   UNK N   1      29.989  18.844  -6.801  0.00  0.00     0.220 HD
ENDBRANCH  46  48
BRANCH  46  50
HETATM   50  O   UNK N   1      32.260  20.678  -7.926  0.00  0.00    -0.328 OA
HETATM   51  H   UNK N   1      32.700  20.015  -7.372  0.00  0.00     0.220 HD
ENDBRANCH  46  50
ENDBRANCH  35  46
ENDBRANCH  33  35
ENDBRANCH  10  33
TORSDOF 9
ENDMDL
MODEL 8
REMARK VINA RESULT:      -8.1      2.516      5.903
REMARK  9 active torsions:
REMARK  status: ('A' for Active; 'I' for Inactive)
REMARK    1  A    between atoms: N_2  and  C_3 
REMARK       I    between atoms: N_2  and  C_21 
REMARK       I    between atoms: N_6  and  C_9 
REMARK    2  A    between atoms: C_9  and  C_11 
REMARK    3  A    between atoms: C_21  and  C_23 
REMARK    4  A    between atoms: C_32  and  C_33 
REMARK    5  A    between atoms: C_33  and  C_35 
REMARK    6  A    between atoms: C_35  and  C_36 
REMARK    7  A    between atoms: C_35  and  P_46 
REMARK    8  A    between atoms: P_46  and  O_47 
REMARK    9  A    between atoms: P_46  and  O_48 
ROOT
HETATM    1  C   UNK N   1      23.014  16.742   4.924  0.00  0.00     0.046 A 
HETATM    2  C   UNK N   1      24.364  16.974   5.254  0.00  0.00     0.030 A 
HETATM    3  C   UNK N   1      25.399  16.557   4.410  0.00  0.00    -0.025 A 
HETATM    4  C   UNK N   1      26.719  16.920   4.670  0.00  0.00     0.012 A 
HETATM    5  C   UNK N   1      27.742  16.523   3.800  0.00  0.00     0.001 A 
HETATM    6  C   UNK N   1      27.454  15.729   2.688  0.00  0.00     0.001 A 
HETATM    7  C   UNK N   1      26.134  15.376   2.415  0.00  0.00     0.012 A 
HETATM    8  C   UNK N   1      25.109  15.803   3.263  0.00  0.00    -0.025 A 
HETATM    9  C   UNK N   1      23.794  15.567   2.917  0.00  0.00     0.028 A 
HETATM   10  C   UNK N   1      22.741  16.065   3.679  0.00  0.00     0.028 A 
ENDROOT
BRANCH   1  11
HETATM   11  C   UNK N   1      21.891  17.198   5.865  0.00  0.00     0.254 C 
HETATM   12  N   UNK N   1      21.296  16.403   6.820  0.00  0.00    -0.347 N 
HETATM   13  C   UNK N   1      20.192  16.945   7.590  0.00  0.00     0.153 C 
HETATM   14  O   UNK N   1      21.437  18.316   5.715  0.00  0.00    -0.267 OA
BRANCH  12  15
HETATM   15  C   UNK N   1      21.607  15.005   6.981  0.00  0.00     0.090 C 
HETATM   16  C   UNK N   1      21.423  14.521   8.441  0.00  0.00     0.045 C 
HETATM   17  C   UNK N   1      21.426  12.980   8.546  0.00  0.00     0.128 C 
HETATM   18  N   UNK N   1      21.906  12.429   7.299  0.00  0.00    -0.348 N 
HETATM   19  C   UNK N   1      21.112  12.698   6.112  0.00  0.00     0.128 C 
HETATM   20  C   UNK N   1      23.135  11.829   7.251  0.00  0.00     0.253 C 
HETATM   21  C   UNK N   1      20.743  14.178   6.029  0.00  0.00     0.045 C 
HETATM   22  O   UNK N   1      23.723  11.611   8.309  0.00  0.00    -0.267 OA
BRANCH  20  23
HETATM   23  C   UNK N   1      23.854  11.503   5.980  0.00  0.00     0.033 A 
HETATM   24  C   UNK N   1      25.165  11.973   5.814  0.00  0.00     0.029 A 
HETATM   25  C   UNK N   1      25.822  11.839   4.591  0.00  0.00    -0.025 A 
HETATM   26  C   UNK N   1      27.108  12.356   4.428  0.00  0.00     0.012 A 
HETATM   27  C   UNK N   1      25.163  11.229   3.500  0.00  0.00    -0.026 A 
HETATM   28  C   UNK N   1      27.739  12.276   3.183  0.00  0.00     0.001 A 
HETATM   29  C   UNK N   1      27.083  11.681   2.099  0.00  0.00     0.001 A 
HETATM   30  C   UNK N   1      25.797  11.153   2.258  0.00  0.00     0.012 A 
HETATM   31  C   UNK N   1      23.868  10.735   3.661  0.00  0.00     0.013 A 
HETATM   32  C   UNK N   1      23.218  10.876   4.891  0.00  0.00     0.018 A 
ENDBRANCH  20  23
ENDBRANCH  12  15
ENDBRANCH   1  11
BRANCH  10  33
HETATM   33  C   UNK N   1      21.405  16.086   3.033  0.00  0.00     0.180 C 
HETATM   34  O   UNK N   1      20.513  16.616   3.679  0.00  0.00    -0.291 OA
BRANCH  33  35
HETATM   35  C   UNK N   1      21.081  15.625   1.597  0.00  0.00     0.205 C 
BRANCH  35  36
HETATM   36  C   UNK N   1      20.650  14.142   1.640  0.00  0.00    -0.024 A 
HETATM   37  C   UNK N   1      19.517  13.759   2.381  0.00  0.00     0.009 A 
HETATM   38  C   UNK N   1      19.165  12.420   2.533  0.00  0.00     0.002 A 
HETATM   39  C   UNK N   1      19.963  11.420   1.983  0.00  0.00     0.012 A 
HETATM   40  C   UNK N   1      21.092  11.757   1.239  0.00  0.00    -0.025 A 
HETATM   41  C   UNK N   1      21.906  10.742   0.728  0.00  0.00     0.012 A 
HETATM   42  C   UNK N   1      21.431  13.118   1.031  0.00  0.00    -0.018 A 
HETATM   43  C   UNK N   1      23.054  11.061  -0.001  0.00  0.00     0.001 A 
HETATM   44  C   UNK N   1      23.379  12.396  -0.243  0.00  0.00     0.001 A 
HETATM   45  C   UNK N   1      22.572  13.416   0.267  0.00  0.00     0.013 A 
ENDBRANCH  35  36
BRANCH  35  46
HETATM   46  P   UNK N   1      19.756  16.706   0.761  0.00  0.00     0.252 P 
HETATM   47  O   UNK N   1      20.431  17.616  -0.301  0.00  0.00    -0.653 OA
BRANCH  46  48
HETATM   48  O   UNK N   1      19.000  17.851   1.823  0.00  0.00    -0.328 OA
HETATM   49  H   UNK N   1      19.353  18.742   1.973  0.00  0.00     0.220 HD
ENDBRANCH  46  48
BRANCH  46  50
HETATM   50  O   UNK N   1      18.448  15.958  -0.102  0.00  0.00    -0.328 OA
HETATM   51  H   UNK N   1      18.572  15.234  -0.736  0.00  0.00     0.220 HD
ENDBRANCH  46  50
ENDBRANCH  35  46
ENDBRANCH  33  35
ENDBRANCH  10  33
TORSDOF 9
ENDMDL
MODEL 9
REMARK VINA RESULT:      -8.0      3.408      6.112
REMARK  9 active torsions:
REMARK  status: ('A' for Active; 'I' for Inactive)
REMARK    1  A    between atoms: N_2  and  C_3 
REMARK       I    between atoms: N_2  and  C_21 
REMARK       I    between atoms: N_6  and  C_9 
REMARK    2  A    between atoms: C_9  and  C_11 
REMARK    3  A    between atoms: C_21  and  C_23 
REMARK    4  A    between atoms: C_32  and  C_33 
REMARK    5  A    between atoms: C_33  and  C_35 
REMARK    6  A    between atoms: C_35  and  C_36 
REMARK    7  A    between atoms: C_35  and  P_46 
REMARK    8  A    between atoms: P_46  and  O_47 
REMARK    9  A    between atoms: P_46  and  O_48 
ROOT
HETATM    1  C   UNK N   1      22.900  16.312   5.863  0.00  0.00     0.046 A 
HETATM    2  C   UNK N   1      22.224  15.585   6.863  0.00  0.00     0.030 A 
HETATM    3  C   UNK N   1      22.863  14.565   7.576  0.00  0.00    -0.025 A 
HETATM    4  C   UNK N   1      22.236  13.954   8.660  0.00  0.00     0.012 A 
HETATM    5  C   UNK N   1      22.899  12.956   9.384  0.00  0.00     0.001 A 
HETATM    6  C   UNK N   1      24.176  12.538   9.005  0.00  0.00     0.001 A 
HETATM    7  C   UNK N   1      24.814  13.157   7.931  0.00  0.00     0.012 A 
HETATM    8  C   UNK N   1      24.166  14.177   7.230  0.00  0.00    -0.025 A 
HETATM    9  C   UNK N   1      24.850  14.878   6.258  0.00  0.00     0.028 A 
HETATM   10  C   UNK N   1      24.279  15.968   5.610  0.00  0.00     0.028 A 
ENDROOT
BRANCH   1  11
HETATM   11  C   UNK N   1      22.181  17.422   5.084  0.00  0.00     0.254 C 
HETATM   12  N   UNK N   1      21.403  17.218   3.966  0.00  0.00    -0.347 N 
HETATM   13  C   UNK N   1      20.844  18.372   3.286  0.00  0.00     0.153 C 
HETATM   14  O   UNK N   1      22.367  18.574   5.428  0.00  0.00    -0.267 OA
BRANCH  12  15
HETATM   15  C   UNK N   1      21.249  15.928   3.342  0.00  0.00     0.090 C 
HETATM   16  C   UNK N   1      19.819  15.356   3.509  0.00  0.00     0.045 C 
HETATM   17  C   UNK N   1      19.561  14.157   2.569  0.00  0.00     0.128 C 
HETATM   18  N   UNK N   1      20.823  13.715   2.021  0.00  0.00    -0.348 N 
HETATM   19  C   UNK N   1      21.548  14.661   1.191  0.00  0.00     0.128 C 
HETATM   20  C   UNK N   1      21.352  12.517   2.420  0.00  0.00     0.253 C 
HETATM   21  C   UNK N   1      21.616  16.032   1.862  0.00  0.00     0.045 C 
HETATM   22  O   UNK N   1      20.655  11.763   3.096  0.00  0.00    -0.267 OA
BRANCH  20  23
HETATM   23  C   UNK N   1      22.767  12.105   2.162  0.00  0.00     0.033 A 
HETATM   24  C   UNK N   1      23.785  12.686   2.934  0.00  0.00     0.029 A 
HETATM   25  C   UNK N   1      25.128  12.463   2.630  0.00  0.00    -0.025 A 
HETATM   26  C   UNK N   1      26.127  13.088   3.378  0.00  0.00     0.012 A 
HETATM   27  C   UNK N   1      25.475  11.647   1.530  0.00  0.00    -0.026 A 
HETATM   28  C   UNK N   1      27.469  12.913   3.031  0.00  0.00     0.001 A 
HETATM   29  C   UNK N   1      27.815  12.113   1.935  0.00  0.00     0.001 A 
HETATM   30  C   UNK N   1      26.818  11.476   1.188  0.00  0.00     0.012 A 
HETATM   31  C   UNK N   1      24.472  11.044   0.770  0.00  0.00     0.013 A 
HETATM   32  C   UNK N   1      23.129  11.276   1.082  0.00  0.00     0.018 A 
ENDBRANCH  20  23
ENDBRANCH  12  15
ENDBRANCH   1  11
BRANCH  10  33
HETATM   33  C   UNK N   1      25.206  16.868   4.877  0.00  0.00     0.180 C 
HETATM   34  O   UNK N   1      25.122  16.835   3.658  0.00  0.00    -0.291 OA
BRANCH  33  35
HETATM   35  C   UNK N   1      26.151  17.910   5.509  0.00  0.00     0.205 C 
BRANCH  35  36
HETATM   36  C   UNK N   1      27.569  17.303   5.593  0.00  0.00    -0.024 A 
HETATM   37  C   UNK N   1      27.996  16.373   4.628  0.00  0.00     0.009 A 
HETATM   38  C   UNK N   1      29.223  15.724   4.735  0.00  0.00     0.002 A 
HETATM   39  C   UNK N   1      30.043  15.955   5.837  0.00  0.00     0.012 A 
HETATM   40  C   UNK N   1      29.659  16.871   6.815  0.00  0.00    -0.025 A 
HETATM   41  C   UNK N   1      30.472  17.061   7.935  0.00  0.00     0.012 A 
HETATM   42  C   UNK N   1      28.437  17.578   6.690  0.00  0.00    -0.018 A 
HETATM   43  C   UNK N   1      30.092  17.958   8.935  0.00  0.00     0.001 A 
HETATM   44  C   UNK N   1      28.910  18.687   8.807  0.00  0.00     0.001 A 
HETATM   45  C   UNK N   1      28.091  18.500   7.692  0.00  0.00     0.013 A 
ENDBRANCH  35  36
BRANCH  35  46
HETATM   46  P   UNK N   1      26.160  19.561   4.562  0.00  0.00     0.252 P 
HETATM   47  O   UNK N   1      26.231  20.734   5.578  0.00  0.00    -0.653 OA
BRANCH  46  48
HETATM   48  O   UNK N   1      24.693  19.891   3.696  0.00  0.00    -0.328 OA
HETATM   49  H   UNK N   1      24.633  19.851   2.729  0.00  0.00     0.220 HD
ENDBRANCH  46  48
BRANCH  46  50
HETATM   50  O   UNK N   1      27.437  19.905   3.438  0.00  0.00    -0.328 OA
HETATM   51  H   UNK N   1      27.753  19.268   2.778  0.00  0.00     0.220 HD
ENDBRANCH  46  50
ENDBRANCH  35  46
ENDBRANCH  33  35
ENDBRANCH  10  33
TORSDOF 9
ENDMDL
