REMARK  14 active torsions:
REMARK  status: ('A' for Active; 'I' for Inactive)
REMARK    1  A    between atoms: C_2  and  O_3 
REMARK    2  A    between atoms: O_3  and  C_4 
REMARK    3  A    between atoms: C_4  and  C_6 
REMARK    4  A    between atoms: C_6  and  O_7 
REMARK    5  A    between atoms: O_7  and  N_8 
REMARK    6  A    between atoms: C_10  and  C_11 
REMARK    7  A    between atoms: C_10  and  C_18 
REMARK    8  A    between atoms: C_18  and  C_21 
REMARK    9  A    between atoms: C_27  and  C_28 
REMARK   10  A    between atoms: C_28  and  N_29 
REMARK   11  A    between atoms: N_29  and  C_30 
REMARK   12  A    between atoms: C_33  and  C_36 
REMARK   13  A    between atoms: C_36  and  N_37 
REMARK   14  A    between atoms: C_36  and  N_38 
ROOT
HETATM    1  C   UNK N   1       3.674   2.733   0.525  0.00  0.00    -0.041 A 
HETATM    2  C   UNK N   1       3.075   1.859   1.469  0.00  0.00     0.011 A 
HETATM    3  C   UNK N   1       1.783   1.360   1.258  0.00  0.00     0.033 A 
HETATM    4  C   UNK N   1       1.111   1.797   0.122  0.00  0.00     0.062 A 
HETATM    5  N   UNK N   1      -0.083   1.413  -0.332  0.00  0.00    -0.338 N 
HETATM    6  C   UNK N   1      -0.912   0.394   0.289  0.00  0.00     0.158 C 
HETATM    7  C   UNK N   1      -0.281   2.148  -1.465  0.00  0.00     0.102 A 
HETATM    8  N   UNK N   1       0.773   2.962  -1.730  0.00  0.00    -0.343 N 
ATOM      9  HN  UNK N   1       0.883   3.613  -2.508  1.00  0.00     0.167 HD
HETATM   10  C   UNK N   1       1.640   2.712  -0.733  0.00  0.00     0.061 A 
HETATM   11  C   UNK N   1       2.928   3.201  -0.579  0.00  0.00     0.040 A 
ENDROOT
BRANCH   1  12
HETATM   12  C   UNK N   1       5.129   3.077   0.623  0.00  0.00     0.034 A 
HETATM   13  C   UNK N   1       5.416   3.814   1.924  0.00  0.00     0.022 A 
HETATM   14  C   UNK N   1       5.431   4.572   0.620  0.00  0.00     0.022 A 
BRANCH  12  15
HETATM   15  C   UNK N   1       6.236   2.017   0.361  0.00  0.00     0.072 C 
HETATM   16  N   UNK N   1       6.000   0.739   0.339  0.00  0.00    -0.267 N 
ATOM     17  HN  UNK N   1       6.790   0.118   0.166  1.00  0.00     0.194 HD
BRANCH  16  18
HETATM   18  O   UNK N   1       4.823   0.183   0.521  0.00  0.00    -0.270 OA
BRANCH  18  19
HETATM   19  C   UNK N   1       4.726  -1.186   0.583  0.00  0.00     0.312 C 
BRANCH  19  20
HETATM   20  C   UNK N   1       3.480  -1.685  -0.078  0.00  0.00     0.285 C 
HETATM   21  O   UNK N   1       3.253  -1.398  -1.246  0.00  0.00    -0.263 OA
BRANCH  20  22
HETATM   22  O   UNK N   1       2.652  -2.513   0.606  0.00  0.00    -0.320 OA
BRANCH  22  23
HETATM   23  C   UNK N   1       1.562  -3.119   0.023  0.00  0.00     0.174 C 
HETATM   24  C   UNK N   1       0.315  -2.828   0.831  0.00  0.00     0.034 C 
ENDBRANCH  22  23
ENDBRANCH  20  22
ENDBRANCH  19  20
ENDBRANCH  18  19
ENDBRANCH  16  18
BRANCH  15  25
HETATM   25  C   UNK N   1       7.655   2.399   0.110  0.00  0.00     0.057 A 
HETATM   26  C   UNK N   1       8.045   3.718  -0.156  0.00  0.00     0.031 A 
HETATM   27  C   UNK N   1       9.385   4.004  -0.419  0.00  0.00     0.004 A 
HETATM   28  C   UNK N   1      10.329   2.978  -0.406  0.00  0.00     0.017 A 
HETATM   29  C   UNK N   1       9.915   1.675  -0.136  0.00  0.00     0.088 A 
HETATM   30  N   UNK N   1       8.603   1.416   0.103  0.00  0.00    -0.364 N 
ATOM     31  HN  UNK N   1       8.315   0.454   0.282  1.00  0.00     0.165 HD
ENDBRANCH  15  25
ENDBRANCH  12  15
ENDBRANCH   1  12
BRANCH   7  32
HETATM   32  C   UNK N   1      -1.480   2.103  -2.373  0.00  0.00     0.196 C 
BRANCH  32  33
HETATM   33  N   UNK N   1      -2.278   0.912  -2.215  0.00  0.00    -0.383 N 
HETATM   34  H   UNK N   1      -2.075   0.128  -2.775  0.00  0.00     0.160 HD
BRANCH  33  35
HETATM   35  C   UNK N   1      -3.343   0.826  -1.285  0.00  0.00     0.028 A 
HETATM   36  C   UNK N   1      -4.109  -0.340  -1.233  0.00  0.00     0.030 A 
HETATM   37  C   UNK N   1      -5.145  -0.458  -0.305  0.00  0.00     0.017 A 
HETATM   38  C   UNK N   1      -5.417   0.586   0.592  0.00  0.00     0.007 A 
HETATM   39  C   UNK N   1      -4.636   1.750   0.549  0.00  0.00     0.017 A 
HETATM   40  C   UNK N   1      -3.606   1.871  -0.385  0.00  0.00     0.030 A 
BRANCH  38  41
HETATM   41  C   UNK N   1      -6.528   0.474   1.559  0.00  0.00     0.102 C 
BRANCH  41  42
HETATM   42  N   UNK N   1      -6.799   1.532   2.456  0.00  0.00    -0.385 N 
HETATM   43  H   UNK N   1      -6.256   2.065   3.081  0.00  0.00     0.157 HD
HETATM   44  H   UNK N   1      -7.748   1.797   2.456  0.00  0.00     0.157 HD
ENDBRANCH  41  42
BRANCH  41  45
HETATM   45  N   UNK N   1      -7.279  -0.566   1.566  0.00  0.00    -0.385 N 
HETATM   46  H   UNK N   1      -8.258  -0.466   1.572  0.00  0.00     0.157 HD
ATOM     47  HN  UNK N   1      -6.861  -1.496   1.566  1.00  0.00     0.157 HD
ENDBRANCH  41  45
ENDBRANCH  38  41
ENDBRANCH  33  35
ENDBRANCH  32  33
ENDBRANCH   7  32
TORSDOF 14
