MODEL 1
REMARK VINA RESULT:      -7.8      0.000      0.000
REMARK  10 active torsions:
REMARK  status: ('A' for Active; 'I' for Inactive)
REMARK    1  A    between atoms: C_4  and  S_5 
REMARK    2  A    between atoms: S_5  and  C_6 
REMARK    3  A    between atoms: C_7  and  O_8 
REMARK    4  A    between atoms: C_10  and  C_11 
REMARK    5  A    between atoms: C_10  and  C_23 
REMARK    6  A    between atoms: C_11  and  C_12 
REMARK    7  A    between atoms: C_12  and  C_13 
REMARK    8  A    between atoms: C_16  and  O_17 
REMARK    9  A    between atoms: C_28  and  C_32 
REMARK   10  A    between atoms: C_30  and  N_31 
ROOT
HETATM    1  C   UNK N   1      24.530  14.484   5.569  0.00  0.00     0.110 C 
HETATM    2  C   UNK N   1      24.138  14.665   4.302  0.00  0.00     0.069 C 
HETATM    3  C   UNK N   1      24.613  15.862   3.529  0.00  0.00     0.105 C 
HETATM    4  C   UNK N   1      25.000  17.078   4.396  0.00  0.00     0.081 C 
HETATM    5  O   UNK N   1      25.602  16.710   5.597  0.00  0.00    -0.305 OA
HETATM    6  C   UNK N   1      25.374  15.518   6.220  0.00  0.00     0.303 C 
HETATM    7  O   UNK N   1      25.841  15.318   7.326  0.00  0.00    -0.259 OA
ENDROOT
BRANCH   1   8
HETATM    8  S   UNK N   1      24.085  12.976   6.470  0.00  0.00    -0.081 SA
BRANCH   8   9
HETATM    9  C   UNK N   1      22.718  13.743   7.381  0.00  0.00     0.013 A 
HETATM   10  C   UNK N   1      21.858  14.595   6.676  0.00  0.00     0.028 A 
HETATM   11  C   UNK N   1      20.794  15.231   7.304  0.00  0.00    -0.035 A 
HETATM   12  C   UNK N   1      19.923  16.142   6.508  0.00  0.00     0.050 C 
HETATM   13  C   UNK N   1      20.561  15.011   8.665  0.00  0.00     0.032 A 
HETATM   14  C   UNK N   1      21.397  14.153   9.381  0.00  0.00     0.038 A 
HETATM   15  C   UNK N   1      22.486  13.504   8.767  0.00  0.00    -0.031 A 
BRANCH  13  16
HETATM   16  N   UNK N   1      19.487  15.646   9.323  0.00  0.00    -0.399 N 
HETATM   17  H   UNK N   1      19.411  16.614   9.487  0.00  0.00     0.156 HD
HETATM   18  H   UNK N   1      18.753  15.075   9.647  0.00  0.00     0.156 HD
ENDBRANCH  13  16
BRANCH  15  19
HETATM   19  C   UNK N   1      23.365  12.570   9.600  0.00  0.00    -0.023 C 
HETATM   20  C   UNK N   1      22.797  12.414  11.000  0.00  0.00     0.019 C 
HETATM   21  C   UNK N   1      24.790  13.090   9.759  0.00  0.00     0.019 C 
HETATM   22  C   UNK N   1      23.464  11.206   8.944  0.00  0.00     0.019 C 
ENDBRANCH  15  19
ENDBRANCH   8   9
ENDBRANCH   1   8
BRANCH   2  23
HETATM   23  O   UNK N   1      23.371  13.746   3.683  0.00  0.00    -0.363 OA
HETATM   24  H   UNK N   1      22.437  13.689   3.713  0.00  0.00     0.217 HD
ENDBRANCH   2  23
BRANCH   4  25
HETATM   25  C   UNK N   1      23.751  17.901   4.685  0.00  0.00     0.044 C 
BRANCH  25  26
HETATM   26  C   UNK N   1      22.405  17.301   4.328  0.00  0.00     0.041 C 
BRANCH  26  27
HETATM   27  C   UNK N   1      21.769  18.309   3.446  0.00  0.00    -0.058 A 
HETATM   28  C   UNK N   1      20.769  17.909   2.558  0.00  0.00     0.010 A 
HETATM   29  C   UNK N   1      20.271  18.814   1.617  0.00  0.00     0.037 A 
HETATM   30  C   UNK N   1      20.781  20.115   1.559  0.00  0.00     0.065 A 
HETATM   31  C   UNK N   1      21.768  20.523   2.459  0.00  0.00     0.037 A 
HETATM   32  C   UNK N   1      22.266  19.621   3.400  0.00  0.00     0.010 A 
BRANCH  30  33
HETATM   33  O   UNK N   1      20.324  20.972   0.634  0.00  0.00    -0.361 OA
HETATM   34  H   UNK N   1      20.545  21.883   0.657  0.00  0.00     0.217 HD
ENDBRANCH  30  33
ENDBRANCH  26  27
ENDBRANCH  25  26
ENDBRANCH   4  25
BRANCH   4  35
HETATM   35  C   UNK N   1      25.943  17.954   3.520  0.00  0.00     0.021 C 
HETATM   36  C   UNK N   1      25.749  19.461   3.627  0.00  0.00     0.007 C 
HETATM   37  C   UNK N   1      26.634  19.904   4.763  0.00  0.00     0.000 C 
HETATM   38  C   UNK N   1      27.762  18.889   4.823  0.00  0.00     0.000 C 
HETATM   39  C   UNK N   1      27.412  17.763   3.852  0.00  0.00     0.007 C 
ENDBRANCH   4  35
TORSDOF 10
ENDMDL
MODEL 2
REMARK VINA RESULT:      -7.6      3.129      6.420
REMARK  10 active torsions:
REMARK  status: ('A' for Active; 'I' for Inactive)
REMARK    1  A    between atoms: C_4  and  S_5 
REMARK    2  A    between atoms: S_5  and  C_6 
REMARK    3  A    between atoms: C_7  and  O_8 
REMARK    4  A    between atoms: C_10  and  C_11 
REMARK    5  A    between atoms: C_10  and  C_23 
REMARK    6  A    between atoms: C_11  and  C_12 
REMARK    7  A    between atoms: C_12  and  C_13 
REMARK    8  A    between atoms: C_16  and  O_17 
REMARK    9  A    between atoms: C_28  and  C_32 
REMARK   10  A    between atoms: C_30  and  N_31 
ROOT
HETATM    1  C   UNK N   1      26.101  15.687   5.278  0.00  0.00     0.110 C 
HETATM    2  C   UNK N   1      26.592  16.283   6.371  0.00  0.00     0.069 C 
HETATM    3  C   UNK N   1      27.302  17.602   6.256  0.00  0.00     0.105 C 
HETATM    4  C   UNK N   1      27.940  17.873   4.879  0.00  0.00     0.081 C 
HETATM    5  O   UNK N   1      27.179  17.371   3.827  0.00  0.00    -0.305 OA
HETATM    6  C   UNK N   1      26.334  16.307   3.948  0.00  0.00     0.303 C 
HETATM    7  O   UNK N   1      25.796  15.849   2.957  0.00  0.00    -0.259 OA
ENDROOT
BRANCH   1   8
HETATM    8  S   UNK N   1      25.118  14.169   5.411  0.00  0.00    -0.081 SA
BRANCH   8   9
HETATM    9  C   UNK N   1      23.666  14.994   6.117  0.00  0.00     0.013 A 
HETATM   10  C   UNK N   1      23.300  16.240   5.591  0.00  0.00     0.028 A 
HETATM   11  C   UNK N   1      22.206  16.942   6.084  0.00  0.00    -0.035 A 
HETATM   12  C   UNK N   1      21.875  18.272   5.498  0.00  0.00     0.050 C 
HETATM   13  C   UNK N   1      21.442  16.394   7.119  0.00  0.00     0.032 A 
HETATM   14  C   UNK N   1      21.780  15.148   7.646  0.00  0.00     0.038 A 
HETATM   15  C   UNK N   1      22.889  14.422   7.166  0.00  0.00    -0.031 A 
BRANCH  13  16
HETATM   16  N   UNK N   1      20.328  17.089   7.636  0.00  0.00    -0.399 N 
HETATM   17  H   UNK N   1      19.730  17.675   7.118  0.00  0.00     0.156 HD
HETATM   18  H   UNK N   1      20.134  16.980   8.595  0.00  0.00     0.156 HD
ENDBRANCH  13  16
BRANCH  15  19
HETATM   19  C   UNK N   1      23.209  13.057   7.778  0.00  0.00    -0.023 C 
HETATM   20  C   UNK N   1      22.209  12.715   8.868  0.00  0.00     0.019 C 
HETATM   21  C   UNK N   1      24.592  13.011   8.421  0.00  0.00     0.019 C 
HETATM   22  C   UNK N   1      23.181  11.977   6.714  0.00  0.00     0.019 C 
ENDBRANCH  15  19
ENDBRANCH   8   9
ENDBRANCH   1   8
BRANCH   2  23
HETATM   23  O   UNK N   1      26.398  15.746   7.591  0.00  0.00    -0.363 OA
HETATM   24  H   UNK N   1      25.579  15.478   7.959  0.00  0.00     0.217 HD
ENDBRANCH   2  23
BRANCH   4  25
HETATM   25  C   UNK N   1      29.330  17.251   4.843  0.00  0.00     0.044 C 
BRANCH  25  26
HETATM   26  C   UNK N   1      29.783  16.453   6.050  0.00  0.00     0.041 C 
BRANCH  26  27
HETATM   27  C   UNK N   1      31.068  17.077   6.450  0.00  0.00    -0.058 A 
HETATM   28  C   UNK N   1      32.110  17.151   5.525  0.00  0.00     0.010 A 
HETATM   29  C   UNK N   1      33.371  17.594   5.931  0.00  0.00     0.037 A 
HETATM   30  C   UNK N   1      33.591  17.954   7.265  0.00  0.00     0.065 A 
HETATM   31  C   UNK N   1      32.544  17.897   8.188  0.00  0.00     0.037 A 
HETATM   32  C   UNK N   1      31.283  17.456   7.784  0.00  0.00     0.010 A 
BRANCH  30  33
HETATM   33  O   UNK N   1      34.810  18.348   7.660  0.00  0.00    -0.361 OA
HETATM   34  H   UNK N   1      35.338  17.818   8.226  0.00  0.00     0.217 HD
ENDBRANCH  30  33
ENDBRANCH  26  27
ENDBRANCH  25  26
ENDBRANCH   4  25
BRANCH   4  35
HETATM   35  C   UNK N   1      28.119  19.417   4.779  0.00  0.00     0.021 C 
HETATM   36  C   UNK N   1      27.291  20.120   3.712  0.00  0.00     0.007 C 
HETATM   37  C   UNK N   1      25.981  20.462   4.373  0.00  0.00     0.000 C 
HETATM   38  C   UNK N   1      26.294  20.600   5.853  0.00  0.00     0.000 C 
HETATM   39  C   UNK N   1      27.737  20.144   6.056  0.00  0.00     0.007 C 
ENDBRANCH   4  35
TORSDOF 10
ENDMDL
MODEL 3
REMARK VINA RESULT:      -7.5      6.298     10.464
REMARK  10 active torsions:
REMARK  status: ('A' for Active; 'I' for Inactive)
REMARK    1  A    between atoms: C_4  and  S_5 
REMARK    2  A    between atoms: S_5  and  C_6 
REMARK    3  A    between atoms: C_7  and  O_8 
REMARK    4  A    between atoms: C_10  and  C_11 
REMARK    5  A    between atoms: C_10  and  C_23 
REMARK    6  A    between atoms: C_11  and  C_12 
REMARK    7  A    between atoms: C_12  and  C_13 
REMARK    8  A    between atoms: C_16  and  O_17 
REMARK    9  A    between atoms: C_28  and  C_32 
REMARK   10  A    between atoms: C_30  and  N_31 
ROOT
HETATM    1  C   UNK N   1      30.153  15.848   4.087  0.00  0.00     0.110 C 
HETATM    2  C   UNK N   1      31.279  16.254   3.491  0.00  0.00     0.069 C 
HETATM    3  C   UNK N   1      32.433  15.305   3.331  0.00  0.00     0.105 C 
HETATM    4  C   UNK N   1      32.479  14.166   4.368  0.00  0.00     0.081 C 
HETATM    5  O   UNK N   1      31.212  13.707   4.718  0.00  0.00    -0.305 OA
HETATM    6  C   UNK N   1      30.087  14.476   4.653  0.00  0.00     0.303 C 
HETATM    7  O   UNK N   1      29.037  14.044   5.090  0.00  0.00    -0.259 OA
ENDROOT
BRANCH   1   8
HETATM    8  S   UNK N   1      28.701  16.930   4.162  0.00  0.00    -0.081 SA
BRANCH   8   9
HETATM    9  C   UNK N   1      29.017  17.488   5.857  0.00  0.00     0.013 A 
HETATM   10  C   UNK N   1      29.960  16.782   6.615  0.00  0.00     0.028 A 
HETATM   11  C   UNK N   1      30.251  17.138   7.926  0.00  0.00    -0.035 A 
HETATM   12  C   UNK N   1      31.251  16.338   8.689  0.00  0.00     0.050 C 
HETATM   13  C   UNK N   1      29.602  18.232   8.506  0.00  0.00     0.032 A 
HETATM   14  C   UNK N   1      28.670  18.958   7.764  0.00  0.00     0.038 A 
HETATM   15  C   UNK N   1      28.355  18.610   6.436  0.00  0.00    -0.031 A 
BRANCH  13  16
HETATM   16  N   UNK N   1      29.881  18.611   9.836  0.00  0.00    -0.399 N 
HETATM   17  H   UNK N   1      29.208  18.764  10.538  0.00  0.00     0.156 HD
HETATM   18  H   UNK N   1      30.827  18.734  10.082  0.00  0.00     0.156 HD
ENDBRANCH  13  16
BRANCH  15  19
HETATM   19  C   UNK N   1      27.329  19.446   5.669  0.00  0.00    -0.023 C 
HETATM   20  C   UNK N   1      26.803  20.573   6.540  0.00  0.00     0.019 C 
HETATM   21  C   UNK N   1      26.118  18.631   5.226  0.00  0.00     0.019 C 
HETATM   22  C   UNK N   1      27.949  20.030   4.413  0.00  0.00     0.019 C 
ENDBRANCH  15  19
ENDBRANCH   8   9
ENDBRANCH   1   8
BRANCH   2  23
HETATM   23  O   UNK N   1      31.371  17.493   2.967  0.00  0.00    -0.363 OA
HETATM   24  H   UNK N   1      31.119  18.293   3.384  0.00  0.00     0.217 HD
ENDBRANCH   2  23
BRANCH   4  25
HETATM   25  C   UNK N   1      33.203  14.657   5.616  0.00  0.00     0.044 C 
BRANCH  25  26
HETATM   26  C   UNK N   1      34.191  15.797   5.462  0.00  0.00     0.041 C 
BRANCH  26  27
HETATM   27  C   UNK N   1      34.525  16.192   6.852  0.00  0.00    -0.058 A 
HETATM   28  C   UNK N   1      34.879  15.208   7.777  0.00  0.00     0.010 A 
HETATM   29  C   UNK N   1      35.046  15.546   9.122  0.00  0.00     0.037 A 
HETATM   30  C   UNK N   1      34.850  16.866   9.542  0.00  0.00     0.065 A 
HETATM   31  C   UNK N   1      34.514  17.855   8.615  0.00  0.00     0.037 A 
HETATM   32  C   UNK N   1      34.348  17.519   7.270  0.00  0.00     0.010 A 
BRANCH  30  33
HETATM   33  O   UNK N   1      34.979  17.181  10.839  0.00  0.00    -0.361 OA
HETATM   34  H   UNK N   1      34.336  16.928  11.472  0.00  0.00     0.217 HD
ENDBRANCH  30  33
ENDBRANCH  26  27
ENDBRANCH  25  26
ENDBRANCH   4  25
BRANCH   4  35
HETATM   35  C   UNK N   1      33.350  13.039   3.738  0.00  0.00     0.021 C 
HETATM   36  C   UNK N   1      32.860  11.613   3.954  0.00  0.00     0.007 C 
HETATM   37  C   UNK N   1      31.924  11.328   2.809  0.00  0.00     0.000 C 
HETATM   38  C   UNK N   1      32.389  12.217   1.668  0.00  0.00     0.000 C 
HETATM   39  C   UNK N   1      33.463  13.148   2.228  0.00  0.00     0.007 C 
ENDBRANCH   4  35
TORSDOF 10
ENDMDL
MODEL 4
REMARK VINA RESULT:      -7.5      3.932      6.988
REMARK  10 active torsions:
REMARK  status: ('A' for Active; 'I' for Inactive)
REMARK    1  A    between atoms: C_4  and  S_5 
REMARK    2  A    between atoms: S_5  and  C_6 
REMARK    3  A    between atoms: C_7  and  O_8 
REMARK    4  A    between atoms: C_10  and  C_11 
REMARK    5  A    between atoms: C_10  and  C_23 
REMARK    6  A    between atoms: C_11  and  C_12 
REMARK    7  A    between atoms: C_12  and  C_13 
REMARK    8  A    between atoms: C_16  and  O_17 
REMARK    9  A    between atoms: C_28  and  C_32 
REMARK   10  A    between atoms: C_30  and  N_31 
ROOT
HETATM    1  C   UNK N   1      24.597  15.933   4.009  0.00  0.00     0.110 C 
HETATM    2  C   UNK N   1      24.516  16.760   5.058  0.00  0.00     0.069 C 
HETATM    3  C   UNK N   1      25.289  18.048   5.064  0.00  0.00     0.105 C 
HETATM    4  C   UNK N   1      26.552  18.047   4.180  0.00  0.00     0.081 C 
HETATM    5  O   UNK N   1      26.387  17.311   3.009  0.00  0.00    -0.305 OA
HETATM    6  C   UNK N   1      25.515  16.270   2.891  0.00  0.00     0.303 C 
HETATM    7  O   UNK N   1      25.515  15.598   1.876  0.00  0.00    -0.259 OA
ENDROOT
BRANCH   1   8
HETATM    8  S   UNK N   1      23.565  14.446   3.919  0.00  0.00    -0.081 SA
BRANCH   8   9
HETATM    9  C   UNK N   1      22.256  15.232   2.942  0.00  0.00     0.013 A 
HETATM   10  C   UNK N   1      21.809  16.498   3.342  0.00  0.00     0.028 A 
HETATM   11  C   UNK N   1      20.801  17.162   2.653  0.00  0.00    -0.035 A 
HETATM   12  C   UNK N   1      20.353  18.499   3.137  0.00  0.00     0.050 C 
HETATM   13  C   UNK N   1      20.224  16.567   1.527  0.00  0.00     0.032 A 
HETATM   14  C   UNK N   1      20.665  15.314   1.103  0.00  0.00     0.038 A 
HETATM   15  C   UNK N   1      21.680  14.619   1.790  0.00  0.00    -0.031 A 
BRANCH  13  16
HETATM   16  N   UNK N   1      19.199  17.223   0.813  0.00  0.00    -0.399 N 
HETATM   17  H   UNK N   1      18.640  17.954   1.161  0.00  0.00     0.156 HD
HETATM   18  H   UNK N   1      19.028  16.923  -0.109  0.00  0.00     0.156 HD
ENDBRANCH  13  16
BRANCH  15  19
HETATM   19  C   UNK N   1      22.128  13.250   1.275  0.00  0.00    -0.023 C 
HETATM   20  C   UNK N   1      21.034  12.613   0.438  0.00  0.00     0.019 C 
HETATM   21  C   UNK N   1      22.444  12.272   2.402  0.00  0.00     0.019 C 
HETATM   22  C   UNK N   1      23.388  13.381   0.440  0.00  0.00     0.019 C 
ENDBRANCH  15  19
ENDBRANCH   8   9
ENDBRANCH   1   8
BRANCH   2  23
HETATM   23  O   UNK N   1      23.694  16.483   6.088  0.00  0.00    -0.363 OA
HETATM   24  H   UNK N   1      22.987  17.016   6.396  0.00  0.00     0.217 HD
ENDBRANCH   2  23
BRANCH   4  25
HETATM   25  C   UNK N   1      27.718  17.477   4.979  0.00  0.00     0.044 C 
BRANCH  25  26
HETATM   26  C   UNK N   1      27.492  17.174   6.447  0.00  0.00     0.041 C 
BRANCH  26  27
HETATM   27  C   UNK N   1      28.815  17.396   7.081  0.00  0.00    -0.058 A 
HETATM   28  C   UNK N   1      29.959  16.862   6.486  0.00  0.00     0.010 A 
HETATM   29  C   UNK N   1      31.186  16.932   7.149  0.00  0.00     0.037 A 
HETATM   30  C   UNK N   1      31.266  17.526   8.413  0.00  0.00     0.065 A 
HETATM   31  C   UNK N   1      30.126  18.077   9.002  0.00  0.00     0.037 A 
HETATM   32  C   UNK N   1      28.899  18.010   8.340  0.00  0.00     0.010 A 
BRANCH  30  33
HETATM   33  O   UNK N   1      32.439  17.563   9.062  0.00  0.00    -0.361 OA
HETATM   34  H   UNK N   1      33.004  18.310   9.013  0.00  0.00     0.217 HD
ENDBRANCH  30  33
ENDBRANCH  26  27
ENDBRANCH  25  26
ENDBRANCH   4  25
BRANCH   4  35
HETATM   35  C   UNK N   1      26.878  19.541   3.884  0.00  0.00     0.021 C 
HETATM   36  C   UNK N   1      25.871  20.562   4.399  0.00  0.00     0.007 C 
HETATM   37  C   UNK N   1      26.310  20.896   5.800  0.00  0.00     0.000 C 
HETATM   38  C   UNK N   1      27.810  20.656   5.827  0.00  0.00     0.000 C 
HETATM   39  C   UNK N   1      28.188  19.998   4.500  0.00  0.00     0.007 C 
ENDBRANCH   4  35
TORSDOF 10
ENDMDL
MODEL 5
REMARK VINA RESULT:      -7.5     13.701     16.015
REMARK  10 active torsions:
REMARK  status: ('A' for Active; 'I' for Inactive)
REMARK    1  A    between atoms: C_4  and  S_5 
REMARK    2  A    between atoms: S_5  and  C_6 
REMARK    3  A    between atoms: C_7  and  O_8 
REMARK    4  A    between atoms: C_10  and  C_11 
REMARK    5  A    between atoms: C_10  and  C_23 
REMARK    6  A    between atoms: C_11  and  C_12 
REMARK    7  A    between atoms: C_12  and  C_13 
REMARK    8  A    between atoms: C_16  and  O_17 
REMARK    9  A    between atoms: C_28  and  C_32 
REMARK   10  A    between atoms: C_30  and  N_31 
ROOT
HETATM    1  C   UNK N   1      29.714  24.891  -4.357  0.00  0.00     0.110 C 
HETATM    2  C   UNK N   1      28.982  24.029  -3.642  0.00  0.00     0.069 C 
HETATM    3  C   UNK N   1      29.490  22.638  -3.387  0.00  0.00     0.105 C 
HETATM    4  C   UNK N   1      30.488  22.113  -4.438  0.00  0.00     0.081 C 
HETATM    5  O   UNK N   1      31.330  23.110  -4.923  0.00  0.00    -0.305 OA
HETATM    6  C   UNK N   1      30.994  24.431  -4.956  0.00  0.00     0.303 C 
HETATM    7  O   UNK N   1      31.732  25.228  -5.505  0.00  0.00    -0.259 OA
ENDROOT
BRANCH   1   8
HETATM    8  S   UNK N   1      29.187  26.614  -4.554  0.00  0.00    -0.081 SA
BRANCH   8   9
HETATM    9  C   UNK N   1      28.334  26.330  -6.128  0.00  0.00     0.013 A 
HETATM   10  C   UNK N   1      29.068  25.765  -7.179  0.00  0.00     0.028 A 
HETATM   11  C   UNK N   1      28.490  25.526  -8.420  0.00  0.00    -0.035 A 
HETATM   12  C   UNK N   1      29.325  24.940  -9.507  0.00  0.00     0.050 C 
HETATM   13  C   UNK N   1      27.144  25.841  -8.630  0.00  0.00     0.032 A 
HETATM   14  C   UNK N   1      26.391  26.391  -7.592  0.00  0.00     0.038 A 
HETATM   15  C   UNK N   1      26.958  26.648  -6.328  0.00  0.00    -0.031 A 
BRANCH  13  16
HETATM   16  N   UNK N   1      26.537  25.609  -9.882  0.00  0.00    -0.399 N 
HETATM   17  H   UNK N   1      26.855  24.970 -10.560  0.00  0.00     0.156 HD
HETATM   18  H   UNK N   1      25.729  26.129 -10.095  0.00  0.00     0.156 HD
ENDBRANCH  13  16
BRANCH  15  19
HETATM   19  C   UNK N   1      26.083  27.246  -5.225  0.00  0.00    -0.023 C 
HETATM   20  C   UNK N   1      26.511  28.670  -4.920  0.00  0.00     0.019 C 
HETATM   21  C   UNK N   1      26.175  26.470  -3.915  0.00  0.00     0.019 C 
HETATM   22  C   UNK N   1      24.624  27.238  -5.640  0.00  0.00     0.019 C 
ENDBRANCH  15  19
ENDBRANCH   8   9
ENDBRANCH   1   8
BRANCH   2  23
HETATM   23  O   UNK N   1      27.817  24.414  -3.086  0.00  0.00    -0.363 OA
HETATM   24  H   UNK N   1      26.964  24.332  -3.465  0.00  0.00     0.217 HD
ENDBRANCH   2  23
BRANCH   4  25
HETATM   25  C   UNK N   1      29.713  21.496  -5.596  0.00  0.00     0.044 C 
BRANCH  25  26
HETATM   26  C   UNK N   1      29.493  22.341  -6.835  0.00  0.00     0.041 C 
BRANCH  26  27
HETATM   27  C   UNK N   1      28.051  22.182  -7.145  0.00  0.00    -0.058 A 
HETATM   28  C   UNK N   1      27.670  21.482  -8.290  0.00  0.00     0.010 A 
HETATM   29  C   UNK N   1      26.327  21.456  -8.675  0.00  0.00     0.037 A 
HETATM   30  C   UNK N   1      25.368  22.140  -7.919  0.00  0.00     0.065 A 
HETATM   31  C   UNK N   1      25.746  22.826  -6.763  0.00  0.00     0.037 A 
HETATM   32  C   UNK N   1      27.087  22.851  -6.376  0.00  0.00     0.010 A 
BRANCH  30  33
HETATM   33  O   UNK N   1      24.085  22.141  -8.309  0.00  0.00    -0.361 OA
HETATM   34  H   UNK N   1      23.386  22.016  -7.696  0.00  0.00     0.217 HD
ENDBRANCH  30  33
ENDBRANCH  26  27
ENDBRANCH  25  26
ENDBRANCH   4  25
BRANCH   4  35
HETATM   35  C   UNK N   1      31.284  20.967  -3.748  0.00  0.00     0.021 C 
HETATM   36  C   UNK N   1      31.823  19.877  -4.665  0.00  0.00     0.007 C 
HETATM   37  C   UNK N   1      33.181  20.355  -5.110  0.00  0.00     0.000 C 
HETATM   38  C   UNK N   1      33.678  21.264  -3.999  0.00  0.00     0.000 C 
HETATM   39  C   UNK N   1      32.523  21.458  -3.020  0.00  0.00     0.007 C 
ENDBRANCH   4  35
TORSDOF 10
ENDMDL
MODEL 6
REMARK VINA RESULT:      -7.5      3.706      7.236
REMARK  10 active torsions:
REMARK  status: ('A' for Active; 'I' for Inactive)
REMARK    1  A    between atoms: C_4  and  S_5 
REMARK    2  A    between atoms: S_5  and  C_6 
REMARK    3  A    between atoms: C_7  and  O_8 
REMARK    4  A    between atoms: C_10  and  C_11 
REMARK    5  A    between atoms: C_10  and  C_23 
REMARK    6  A    between atoms: C_11  and  C_12 
REMARK    7  A    between atoms: C_12  and  C_13 
REMARK    8  A    between atoms: C_16  and  O_17 
REMARK    9  A    between atoms: C_28  and  C_32 
REMARK   10  A    between atoms: C_30  and  N_31 
ROOT
HETATM    1  C   UNK N   1      25.438  15.708   4.309  0.00  0.00     0.110 C 
HETATM    2  C   UNK N   1      25.658  16.202   5.533  0.00  0.00     0.069 C 
HETATM    3  C   UNK N   1      26.507  17.428   5.710  0.00  0.00     0.105 C 
HETATM    4  C   UNK N   1      27.536  17.668   4.588  0.00  0.00     0.081 C 
HETATM    5  O   UNK N   1      27.057  17.298   3.334  0.00  0.00    -0.305 OA
HETATM    6  C   UNK N   1      26.104  16.342   3.143  0.00  0.00     0.303 C 
HETATM    7  O   UNK N   1      25.825  15.987   2.012  0.00  0.00    -0.259 OA
ENDROOT
BRANCH   1   8
HETATM    8  S   UNK N   1      24.302  14.318   4.061  0.00  0.00    -0.081 SA
BRANCH   8   9
HETATM    9  C   UNK N   1      22.901  15.356   3.567  0.00  0.00     0.013 A 
HETATM   10  C   UNK N   1      22.654  16.520   4.306  0.00  0.00     0.028 A 
HETATM   11  C   UNK N   1      21.593  17.364   3.998  0.00  0.00    -0.035 A 
HETATM   12  C   UNK N   1      21.368  18.578   4.832  0.00  0.00     0.050 C 
HETATM   13  C   UNK N   1      20.757  17.058   2.920  0.00  0.00     0.032 A 
HETATM   14  C   UNK N   1      20.994  15.912   2.162  0.00  0.00     0.038 A 
HETATM   15  C   UNK N   1      22.059  15.039   2.460  0.00  0.00    -0.031 A 
BRANCH  13  16
HETATM   16  N   UNK N   1      19.673  17.899   2.591  0.00  0.00    -0.399 N 
HETATM   17  H   UNK N   1      19.345  18.077   1.679  0.00  0.00     0.156 HD
HETATM   18  H   UNK N   1      19.205  18.345   3.334  0.00  0.00     0.156 HD
ENDBRANCH  13  16
BRANCH  15  19
HETATM   19  C   UNK N   1      22.275  13.800   1.590  0.00  0.00    -0.023 C 
HETATM   20  C   UNK N   1      23.491  13.981   0.700  0.00  0.00     0.019 C 
HETATM   21  C   UNK N   1      21.094  13.515   0.668  0.00  0.00     0.019 C 
HETATM   22  C   UNK N   1      22.466  12.568   2.456  0.00  0.00     0.019 C 
ENDBRANCH  15  19
ENDBRANCH   8   9
ENDBRANCH   1   8
BRANCH   2  23
HETATM   23  O   UNK N   1      25.069  15.650   6.612  0.00  0.00    -0.363 OA
HETATM   24  H   UNK N   1      24.194  15.804   6.909  0.00  0.00     0.217 HD
ENDBRANCH   2  23
BRANCH   4  25
HETATM   25  C   UNK N   1      28.805  16.883   4.899  0.00  0.00     0.044 C 
BRANCH  25  26
HETATM   26  C   UNK N   1      29.156  16.648   6.355  0.00  0.00     0.041 C 
BRANCH  26  27
HETATM   27  C   UNK N   1      30.561  17.106   6.478  0.00  0.00    -0.058 A 
HETATM   28  C   UNK N   1      31.377  17.128   5.346  0.00  0.00     0.010 A 
HETATM   29  C   UNK N   1      32.739  17.409   5.475  0.00  0.00     0.037 A 
HETATM   30  C   UNK N   1      33.287  17.657   6.738  0.00  0.00     0.065 A 
HETATM   31  C   UNK N   1      32.469  17.652   7.870  0.00  0.00     0.037 A 
HETATM   32  C   UNK N   1      31.107  17.373   7.743  0.00  0.00     0.010 A 
BRANCH  30  33
HETATM   33  O   UNK N   1      34.601  17.894   6.863  0.00  0.00    -0.361 OA
HETATM   34  H   UNK N   1      35.217  17.195   6.971  0.00  0.00     0.217 HD
ENDBRANCH  30  33
ENDBRANCH  26  27
ENDBRANCH  25  26
ENDBRANCH   4  25
BRANCH   4  35
HETATM   35  C   UNK N   1      27.900  19.182   4.646  0.00  0.00     0.021 C 
HETATM   36  C   UNK N   1      27.198  20.079   3.635  0.00  0.00     0.007 C 
HETATM   37  C   UNK N   1      25.916  20.512   4.297  0.00  0.00     0.000 C 
HETATM   38  C   UNK N   1      26.191  20.468   5.790  0.00  0.00     0.000 C 
HETATM   39  C   UNK N   1      27.563  19.823   5.980  0.00  0.00     0.007 C 
ENDBRANCH   4  35
TORSDOF 10
ENDMDL
MODEL 7
REMARK VINA RESULT:      -7.3     11.677     16.438
REMARK  10 active torsions:
REMARK  status: ('A' for Active; 'I' for Inactive)
REMARK    1  A    between atoms: C_4  and  S_5 
REMARK    2  A    between atoms: S_5  and  C_6 
REMARK    3  A    between atoms: C_7  and  O_8 
REMARK    4  A    between atoms: C_10  and  C_11 
REMARK    5  A    between atoms: C_10  and  C_23 
REMARK    6  A    between atoms: C_11  and  C_12 
REMARK    7  A    between atoms: C_12  and  C_13 
REMARK    8  A    between atoms: C_16  and  O_17 
REMARK    9  A    between atoms: C_28  and  C_32 
REMARK   10  A    between atoms: C_30  and  N_31 
ROOT
HETATM    1  C   UNK N   1      36.264  13.984  11.443  0.00  0.00     0.110 C 
HETATM    2  C   UNK N   1      37.233  13.122  11.774  0.00  0.00     0.069 C 
HETATM    3  C   UNK N   1      36.917  11.919  12.616  0.00  0.00     0.105 C 
HETATM    4  C   UNK N   1      35.681  12.074  13.524  0.00  0.00     0.081 C 
HETATM    5  O   UNK N   1      34.669  12.823  12.929  0.00  0.00    -0.305 OA
HETATM    6  C   UNK N   1      34.895  13.775  11.979  0.00  0.00     0.303 C 
HETATM    7  O   UNK N   1      33.975  14.473  11.595  0.00  0.00    -0.259 OA
ENDROOT
BRANCH   1   8
HETATM    8  S   UNK N   1      36.596  15.361  10.312  0.00  0.00    -0.081 SA
BRANCH   8   9
HETATM    9  C   UNK N   1      35.941  14.514   8.849  0.00  0.00     0.013 A 
HETATM   10  C   UNK N   1      36.509  13.283   8.495  0.00  0.00     0.028 A 
HETATM   11  C   UNK N   1      36.071  12.576   7.381  0.00  0.00    -0.035 A 
HETATM   12  C   UNK N   1      36.725  11.280   7.043  0.00  0.00     0.050 C 
HETATM   13  C   UNK N   1      35.033  13.091   6.599  0.00  0.00     0.032 A 
HETATM   14  C   UNK N   1      34.444  14.308   6.942  0.00  0.00     0.038 A 
HETATM   15  C   UNK N   1      34.877  15.045   8.063  0.00  0.00    -0.031 A 
BRANCH  13  16
HETATM   16  N   UNK N   1      34.574  12.392   5.463  0.00  0.00    -0.399 N 
HETATM   17  H   UNK N   1      33.922  12.732   4.808  0.00  0.00     0.156 HD
HETATM   18  H   UNK N   1      34.934  11.487   5.313  0.00  0.00     0.156 HD
ENDBRANCH  13  16
BRANCH  15  19
HETATM   19  C   UNK N   1      34.190  16.370   8.395  0.00  0.00    -0.023 C 
HETATM   20  C   UNK N   1      34.882  17.050   9.562  0.00  0.00     0.019 C 
HETATM   21  C   UNK N   1      32.728  16.192   8.795  0.00  0.00     0.019 C 
HETATM   22  C   UNK N   1      34.208  17.295   7.192  0.00  0.00     0.019 C 
ENDBRANCH  15  19
ENDBRANCH   8   9
ENDBRANCH   1   8
BRANCH   2  23
HETATM   23  O   UNK N   1      38.486  13.284  11.305  0.00  0.00    -0.363 OA
HETATM   24  H   UNK N   1      39.275  13.272  11.809  0.00  0.00     0.217 HD
ENDBRANCH   2  23
BRANCH   4  25
HETATM   25  C   UNK N   1      36.102  12.735  14.830  0.00  0.00     0.044 C 
BRANCH  25  26
HETATM   26  C   UNK N   1      35.014  13.288  15.730  0.00  0.00     0.041 C 
BRANCH  26  27
HETATM   27  C   UNK N   1      35.310  12.719  17.067  0.00  0.00    -0.058 A 
HETATM   28  C   UNK N   1      35.627  11.364  17.180  0.00  0.00     0.010 A 
HETATM   29  C   UNK N   1      35.757  10.783  18.444  0.00  0.00     0.037 A 
HETATM   30  C   UNK N   1      35.560  11.555  19.594  0.00  0.00     0.065 A 
HETATM   31  C   UNK N   1      35.261  12.915  19.482  0.00  0.00     0.037 A 
HETATM   32  C   UNK N   1      35.132  13.498  18.221  0.00  0.00     0.010 A 
BRANCH  30  33
HETATM   33  O   UNK N   1      35.653  10.988  20.805  0.00  0.00    -0.361 OA
HETATM   34  H   UNK N   1      35.072  11.222  21.503  0.00  0.00     0.217 HD
ENDBRANCH  30  33
ENDBRANCH  26  27
ENDBRANCH  25  26
ENDBRANCH   4  25
BRANCH   4  35
HETATM   35  C   UNK N   1      35.208  10.630  13.865  0.00  0.00     0.021 C 
HETATM   36  C   UNK N   1      33.724  10.347  13.671  0.00  0.00     0.007 C 
HETATM   37  C   UNK N   1      33.579   9.899  12.240  0.00  0.00     0.000 C 
HETATM   38  C   UNK N   1      34.919   9.287  11.866  0.00  0.00     0.000 C 
HETATM   39  C   UNK N   1      35.882   9.566  13.017  0.00  0.00     0.007 C 
ENDBRANCH   4  35
TORSDOF 10
ENDMDL
MODEL 8
REMARK VINA RESULT:      -7.3      9.375     11.914
REMARK  10 active torsions:
REMARK  status: ('A' for Active; 'I' for Inactive)
REMARK    1  A    between atoms: C_4  and  S_5 
REMARK    2  A    between atoms: S_5  and  C_6 
REMARK    3  A    between atoms: C_7  and  O_8 
REMARK    4  A    between atoms: C_10  and  C_11 
REMARK    5  A    between atoms: C_10  and  C_23 
REMARK    6  A    between atoms: C_11  and  C_12 
REMARK    7  A    between atoms: C_12  and  C_13 
REMARK    8  A    between atoms: C_16  and  O_17 
REMARK    9  A    between atoms: C_28  and  C_32 
REMARK   10  A    between atoms: C_30  and  N_31 
ROOT
HETATM    1  C   UNK N   1      34.362  15.590   9.843  0.00  0.00     0.110 C 
HETATM    2  C   UNK N   1      33.634  14.850   8.999  0.00  0.00     0.069 C 
HETATM    3  C   UNK N   1      33.433  15.302   7.580  0.00  0.00     0.105 C 
HETATM    4  C   UNK N   1      33.549  16.824   7.365  0.00  0.00     0.081 C 
HETATM    5  O   UNK N   1      34.518  17.408   8.177  0.00  0.00    -0.305 OA
HETATM    6  C   UNK N   1      34.902  16.894   9.381  0.00  0.00     0.303 C 
HETATM    7  O   UNK N   1      35.665  17.525  10.089  0.00  0.00    -0.259 OA
ENDROOT
BRANCH   1   8
HETATM    8  S   UNK N   1      34.735  14.993  11.513  0.00  0.00    -0.081 SA
BRANCH   8   9
HETATM    9  C   UNK N   1      36.161  13.997  11.001  0.00  0.00     0.013 A 
HETATM   10  C   UNK N   1      36.635  14.155   9.692  0.00  0.00     0.028 A 
HETATM   11  C   UNK N   1      37.716  13.421   9.219  0.00  0.00    -0.035 A 
HETATM   12  C   UNK N   1      38.164  13.618   7.811  0.00  0.00     0.050 C 
HETATM   13  C   UNK N   1      38.358  12.512  10.065  0.00  0.00     0.032 A 
HETATM   14  C   UNK N   1      37.911  12.350  11.376  0.00  0.00     0.038 A 
HETATM   15  C   UNK N   1      36.813  13.079  11.875  0.00  0.00    -0.031 A 
BRANCH  13  16
HETATM   16  N   UNK N   1      39.456  11.754   9.605  0.00  0.00    -0.399 N 
HETATM   17  H   UNK N   1      39.490  10.772   9.553  0.00  0.00     0.156 HD
HETATM   18  H   UNK N   1      40.256  12.250   9.313  0.00  0.00     0.156 HD
ENDBRANCH  13  16
BRANCH  15  19
HETATM   19  C   UNK N   1      36.371  12.865  13.324  0.00  0.00    -0.023 C 
HETATM   20  C   UNK N   1      34.940  12.361  13.374  0.00  0.00     0.019 C 
HETATM   21  C   UNK N   1      36.415  14.148  14.148  0.00  0.00     0.019 C 
HETATM   22  C   UNK N   1      37.280  11.866  14.015  0.00  0.00     0.019 C 
ENDBRANCH  15  19
ENDBRANCH   8   9
ENDBRANCH   1   8
BRANCH   2  23
HETATM   23  O   UNK N   1      33.130  13.662   9.386  0.00  0.00    -0.363 OA
HETATM   24  H   UNK N   1      32.347  13.258   9.067  0.00  0.00     0.217 HD
ENDBRANCH   2  23
BRANCH   4  25
HETATM   25  C   UNK N   1      32.197  17.470   7.643  0.00  0.00     0.044 C 
BRANCH  25  26
HETATM   26  C   UNK N   1      31.078  16.585   8.157  0.00  0.00     0.041 C 
BRANCH  26  27
HETATM   27  C   UNK N   1      29.834  17.265   7.721  0.00  0.00    -0.058 A 
HETATM   28  C   UNK N   1      29.235  16.891   6.517  0.00  0.00     0.010 A 
HETATM   29  C   UNK N   1      28.154  17.624   6.021  0.00  0.00     0.037 A 
HETATM   30  C   UNK N   1      27.681  18.737   6.724  0.00  0.00     0.065 A 
HETATM   31  C   UNK N   1      28.268  19.102   7.938  0.00  0.00     0.037 A 
HETATM   32  C   UNK N   1      29.347  18.370   8.436  0.00  0.00     0.010 A 
BRANCH  30  33
HETATM   33  O   UNK N   1      26.664  19.459   6.229  0.00  0.00    -0.361 OA
HETATM   34  H   UNK N   1      25.877  19.052   5.924  0.00  0.00     0.217 HD
ENDBRANCH  30  33
ENDBRANCH  26  27
ENDBRANCH  25  26
ENDBRANCH   4  25
BRANCH   4  35
HETATM   35  C   UNK N   1      33.861  17.028   5.853  0.00  0.00     0.021 C 
HETATM   36  C   UNK N   1      34.155  15.766   5.053  0.00  0.00     0.007 C 
HETATM   37  C   UNK N   1      32.819  15.276   4.561  0.00  0.00     0.000 C 
HETATM   38  C   UNK N   1      31.940  16.511   4.466  0.00  0.00     0.000 C 
HETATM   39  C   UNK N   1      32.715  17.669   5.091  0.00  0.00     0.007 C 
ENDBRANCH   4  35
TORSDOF 10
ENDMDL
MODEL 9
REMARK VINA RESULT:      -7.2      8.393     11.418
REMARK  10 active torsions:
REMARK  status: ('A' for Active; 'I' for Inactive)
REMARK    1  A    between atoms: C_4  and  S_5 
REMARK    2  A    between atoms: S_5  and  C_6 
REMARK    3  A    between atoms: C_7  and  O_8 
REMARK    4  A    between atoms: C_10  and  C_11 
REMARK    5  A    between atoms: C_10  and  C_23 
REMARK    6  A    between atoms: C_11  and  C_12 
REMARK    7  A    between atoms: C_12  and  C_13 
REMARK    8  A    between atoms: C_16  and  O_17 
REMARK    9  A    between atoms: C_28  and  C_32 
REMARK   10  A    between atoms: C_30  and  N_31 
ROOT
HETATM    1  C   UNK N   1      33.461  15.862   7.269  0.00  0.00     0.110 C 
HETATM    2  C   UNK N   1      33.540  17.196   7.337  0.00  0.00     0.069 C 
HETATM    3  C   UNK N   1      32.463  17.980   8.031  0.00  0.00     0.105 C 
HETATM    4  C   UNK N   1      31.086  17.287   8.075  0.00  0.00     0.081 C 
HETATM    5  O   UNK N   1      31.186  15.907   8.230  0.00  0.00    -0.305 OA
HETATM    6  C   UNK N   1      32.263  15.178   7.819  0.00  0.00     0.303 C 
HETATM    7  O   UNK N   1      32.225  13.963   7.878  0.00  0.00    -0.259 OA
ENDROOT
BRANCH   1   8
HETATM    8  S   UNK N   1      34.818  14.888   6.563  0.00  0.00    -0.081 SA
BRANCH   8   9
HETATM    9  C   UNK N   1      35.544  14.461   8.168  0.00  0.00     0.013 A 
HETATM   10  C   UNK N   1      35.381  15.366   9.224  0.00  0.00     0.028 A 
HETATM   11  C   UNK N   1      35.918  15.117  10.482  0.00  0.00    -0.035 A 
HETATM   12  C   UNK N   1      35.728  16.127  11.562  0.00  0.00     0.050 C 
HETATM   13  C   UNK N   1      36.626  13.934  10.711  0.00  0.00     0.032 A 
HETATM   14  C   UNK N   1      36.787  13.012   9.676  0.00  0.00     0.038 A 
HETATM   15  C   UNK N   1      36.257  13.246   8.392  0.00  0.00    -0.031 A 
BRANCH  13  16
HETATM   16  N   UNK N   1      37.180  13.661  11.979  0.00  0.00    -0.399 N 
HETATM   17  H   UNK N   1      36.849  14.017  12.835  0.00  0.00     0.156 HD
HETATM   18  H   UNK N   1      37.964  13.066  12.010  0.00  0.00     0.156 HD
ENDBRANCH  13  16
BRANCH  15  19
HETATM   19  C   UNK N   1      36.460  12.197   7.298  0.00  0.00    -0.023 C 
HETATM   20  C   UNK N   1      35.123  11.650   6.832  0.00  0.00     0.019 C 
HETATM   21  C   UNK N   1      37.281  11.002   7.773  0.00  0.00     0.019 C 
HETATM   22  C   UNK N   1      37.197  12.796   6.115  0.00  0.00     0.019 C 
ENDBRANCH  15  19
ENDBRANCH   8   9
ENDBRANCH   1   8
BRANCH   2  23
HETATM   23  O   UNK N   1      34.613  17.847   6.846  0.00  0.00    -0.363 OA
HETATM   24  H   UNK N   1      34.605  18.528   6.203  0.00  0.00     0.217 HD
ENDBRANCH   2  23
BRANCH   4  25
HETATM   25  C   UNK N   1      30.329  17.601   6.791  0.00  0.00     0.044 C 
BRANCH  25  26
HETATM   26  C   UNK N   1      29.786  16.439   5.984  0.00  0.00     0.041 C 
BRANCH  26  27
HETATM   27  C   UNK N   1      30.752  16.274   4.870  0.00  0.00    -0.058 A 
HETATM   28  C   UNK N   1      31.061  14.991   4.416  0.00  0.00     0.010 A 
HETATM   29  C   UNK N   1      32.079  14.812   3.476  0.00  0.00     0.037 A 
HETATM   30  C   UNK N   1      32.794  15.916   2.999  0.00  0.00     0.065 A 
HETATM   31  C   UNK N   1      32.474  17.202   3.440  0.00  0.00     0.037 A 
HETATM   32  C   UNK N   1      31.456  17.383   4.377  0.00  0.00     0.010 A 
BRANCH  30  33
HETATM   33  O   UNK N   1      33.793  15.738   2.122  0.00  0.00    -0.361 OA
HETATM   34  H   UNK N   1      34.586  16.235   2.175  0.00  0.00     0.217 HD
ENDBRANCH  30  33
ENDBRANCH  26  27
ENDBRANCH  25  26
ENDBRANCH   4  25
BRANCH   4  35
HETATM   35  C   UNK N   1      30.304  17.947   9.250  0.00  0.00     0.021 C 
HETATM   36  C   UNK N   1      29.392  19.109   8.879  0.00  0.00     0.007 C 
HETATM   37  C   UNK N   1      28.063  18.488   8.537  0.00  0.00     0.000 C 
HETATM   38  C   UNK N   1      28.001  17.192   9.327  0.00  0.00     0.000 C 
HETATM   39  C   UNK N   1      29.374  16.982   9.962  0.00  0.00     0.007 C 
ENDBRANCH   4  35
TORSDOF 10
ENDMDL
