MODEL 1
REMARK VINA RESULT:      -6.3      0.000      0.000
REMARK  10 active torsions:
REMARK  status: ('A' for Active; 'I' for Inactive)
REMARK    1  A    between atoms: C_3  and  C_1 
REMARK    2  A    between atoms: O_14  and  C_1 
REMARK    3  A    between atoms: C_4  and  C_2 
REMARK    4  A    between atoms: O_15  and  C_2 
REMARK    5  A    between atoms: C_6  and  O_16 
REMARK    6  A    between atoms: C_7  and  O_17 
REMARK    7  A    between atoms: C_8  and  O_18 
REMARK    8  A    between atoms: C_10  and  O_23 
REMARK    9  A    between atoms: C_11  and  O_20 
REMARK   10  A    between atoms: C_12  and  O_23 
ROOT
HETATM    1  C   UNK N   1      34.038  16.146   7.666  0.00  0.00     0.180 C 
HETATM    2  C   UNK N   1      32.601  15.009   9.443  0.00  0.00     0.183 C 
HETATM    3  C   UNK N   1      33.954  15.055  10.157  0.00  0.00     0.204 C 
HETATM    4  C   UNK N   1      32.591  16.009   8.252  0.00  0.00     0.187 C 
HETATM    5  C   UNK N   1      35.008  14.563   9.122  0.00  0.00     0.288 C 
HETATM    6  O   UNK N   1      34.223  16.359  10.590  0.00  0.00    -0.388 OA
HETATM    7  O   UNK N   1      34.756  14.935   7.766  0.00  0.00    -0.349 OA
HETATM    8  H   UNK N   1      34.546  17.250  10.797  0.00  0.00     0.210 HD
ENDROOT
BRANCH   2   9
HETATM    9  O   UNK N   1      31.543  15.259  10.323  0.00  0.00    -0.390 OA
HETATM   10  H   UNK N   1      31.640  15.903  11.041  0.00  0.00     0.210 HD
ENDBRANCH   2   9
BRANCH   5  11
HETATM   11  O   UNK N   1      36.300  14.933   9.503  0.00  0.00    -0.369 OA
HETATM   12  H   UNK N   1      37.160  14.485   9.528  0.00  0.00     0.212 HD
ENDBRANCH   5  11
BRANCH   4  13
HETATM   13  O   UNK N   1      32.160  17.284   8.723  0.00  0.00    -0.348 OA
BRANCH  13  14
HETATM   14  C   UNK N   1      30.970  17.769   8.112  0.00  0.00     0.297 C 
HETATM   15  C   UNK N   1      29.810  17.932   9.128  0.00  0.00     0.256 C 
HETATM   16  C   UNK N   1      28.578  18.487   8.388  0.00  0.00     0.188 C 
HETATM   17  F   UNK N   1      30.166  18.778  10.165  0.00  0.00    -0.241 F 
HETATM   18  C   UNK N   1      28.326  17.748   7.044  0.00  0.00     0.180 C 
HETATM   19  C   UNK N   1      29.309  16.569   6.878  0.00  0.00     0.179 C 
HETATM   20  O   UNK N   1      30.652  17.025   6.935  0.00  0.00    -0.348 OA
BRANCH  16  21
HETATM   21  O   UNK N   1      27.456  18.394   9.217  0.00  0.00    -0.390 OA
HETATM   22  H   UNK N   1      26.531  18.110   9.149  0.00  0.00     0.210 HD
ENDBRANCH  16  21
BRANCH  18  23
HETATM   23  O   UNK N   1      28.505  18.651   5.989  0.00  0.00    -0.390 OA
HETATM   24  H   UNK N   1      29.092  19.014   5.307  0.00  0.00     0.210 HD
ENDBRANCH  18  23
BRANCH  19  25
HETATM   25  C   UNK N   1      29.090  15.811   5.568  0.00  0.00     0.198 C 
BRANCH  25  26
HETATM   26  O   UNK N   1      29.758  16.426   4.507  0.00  0.00    -0.398 OA
HETATM   27  H   UNK N   1      30.051  16.415   3.583  0.00  0.00     0.209 HD
ENDBRANCH  25  26
ENDBRANCH  19  25
ENDBRANCH  13  14
ENDBRANCH   4  13
BRANCH   1  28
HETATM   28  C   UNK N   1      34.023  16.583   6.208  0.00  0.00     0.198 C 
BRANCH  28  29
HETATM   29  O   UNK N   1      34.072  17.975   6.112  0.00  0.00    -0.398 OA
HETATM   30  H   UNK N   1      33.297  18.517   5.900  0.00  0.00     0.209 HD
ENDBRANCH  28  29
ENDBRANCH   1  28
TORSDOF 10
ENDMDL
MODEL 2
REMARK VINA RESULT:      -6.1      2.393      4.360
REMARK  10 active torsions:
REMARK  status: ('A' for Active; 'I' for Inactive)
REMARK    1  A    between atoms: C_3  and  C_1 
REMARK    2  A    between atoms: O_14  and  C_1 
REMARK    3  A    between atoms: C_4  and  C_2 
REMARK    4  A    between atoms: O_15  and  C_2 
REMARK    5  A    between atoms: C_6  and  O_16 
REMARK    6  A    between atoms: C_7  and  O_17 
REMARK    7  A    between atoms: C_8  and  O_18 
REMARK    8  A    between atoms: C_10  and  O_23 
REMARK    9  A    between atoms: C_11  and  O_20 
REMARK   10  A    between atoms: C_12  and  O_23 
ROOT
HETATM    1  C   UNK N   1      34.975  13.436  10.167  0.00  0.00     0.180 C 
HETATM    2  C   UNK N   1      34.845  15.839  11.018  0.00  0.00     0.183 C 
HETATM    3  C   UNK N   1      36.259  15.456  11.460  0.00  0.00     0.204 C 
HETATM    4  C   UNK N   1      34.338  14.848   9.931  0.00  0.00     0.187 C 
HETATM    5  C   UNK N   1      36.142  14.052  12.123  0.00  0.00     0.288 C 
HETATM    6  O   UNK N   1      37.118  15.436  10.354  0.00  0.00    -0.388 OA
HETATM    7  O   UNK N   1      35.174  13.177  11.540  0.00  0.00    -0.349 OA
HETATM    8  H   UNK N   1      37.740  15.265   9.630  0.00  0.00     0.210 HD
ENDROOT
BRANCH   2   9
HETATM    9  O   UNK N   1      34.784  17.160  10.565  0.00  0.00    -0.390 OA
HETATM   10  H   UNK N   1      34.909  17.367   9.626  0.00  0.00     0.210 HD
ENDBRANCH   2   9
BRANCH   5  11
HETATM   11  O   UNK N   1      37.388  13.426  12.202  0.00  0.00    -0.369 OA
HETATM   12  H   UNK N   1      37.914  12.872  11.603  0.00  0.00     0.212 HD
ENDBRANCH   5  11
BRANCH   4  13
HETATM   13  O   UNK N   1      34.735  15.327   8.648  0.00  0.00    -0.348 OA
BRANCH  13  14
HETATM   14  C   UNK N   1      33.658  15.675   7.787  0.00  0.00     0.297 C 
HETATM   15  C   UNK N   1      34.134  16.459   6.536  0.00  0.00     0.256 C 
HETATM   16  C   UNK N   1      32.911  16.767   5.650  0.00  0.00     0.188 C 
HETATM   17  F   UNK N   1      35.073  15.738   5.819  0.00  0.00    -0.241 F 
HETATM   18  C   UNK N   1      31.710  17.298   6.482  0.00  0.00     0.180 C 
HETATM   19  C   UNK N   1      32.115  17.495   7.959  0.00  0.00     0.179 C 
HETATM   20  O   UNK N   1      32.587  16.277   8.515  0.00  0.00    -0.348 OA
BRANCH  16  21
HETATM   21  O   UNK N   1      33.270  17.689   4.664  0.00  0.00    -0.390 OA
HETATM   22  H   UNK N   1      34.083  18.061   4.286  0.00  0.00     0.210 HD
ENDBRANCH  16  21
BRANCH  18  23
HETATM   23  O   UNK N   1      30.663  16.373   6.410  0.00  0.00    -0.390 OA
HETATM   24  H   UNK N   1      30.375  15.448   6.468  0.00  0.00     0.210 HD
ENDBRANCH  18  23
BRANCH  19  25
HETATM   25  C   UNK N   1      30.962  18.023   8.812  0.00  0.00     0.198 C 
BRANCH  25  26
HETATM   26  O   UNK N   1      30.331  16.991   9.511  0.00  0.00    -0.398 OA
HETATM   27  H   UNK N   1      29.732  16.229   9.518  0.00  0.00     0.209 HD
ENDBRANCH  25  26
ENDBRANCH  19  25
ENDBRANCH  13  14
ENDBRANCH   4  13
BRANCH   1  28
HETATM   28  C   UNK N   1      34.121  12.320   9.581  0.00  0.00     0.198 C 
BRANCH  28  29
HETATM   29  O   UNK N   1      32.830  12.779   9.313  0.00  0.00    -0.398 OA
HETATM   30  H   UNK N   1      32.619  13.716   9.185  0.00  0.00     0.209 HD
ENDBRANCH  28  29
ENDBRANCH   1  28
TORSDOF 10
ENDMDL
MODEL 3
REMARK VINA RESULT:      -6.0      1.770      6.118
REMARK  10 active torsions:
REMARK  status: ('A' for Active; 'I' for Inactive)
REMARK    1  A    between atoms: C_3  and  C_1 
REMARK    2  A    between atoms: O_14  and  C_1 
REMARK    3  A    between atoms: C_4  and  C_2 
REMARK    4  A    between atoms: O_15  and  C_2 
REMARK    5  A    between atoms: C_6  and  O_16 
REMARK    6  A    between atoms: C_7  and  O_17 
REMARK    7  A    between atoms: C_8  and  O_18 
REMARK    8  A    between atoms: C_10  and  O_23 
REMARK    9  A    between atoms: C_11  and  O_20 
REMARK   10  A    between atoms: C_12  and  O_23 
ROOT
HETATM    1  C   UNK N   1      29.253  17.868   6.679  0.00  0.00     0.180 C 
HETATM    2  C   UNK N   1      30.159  15.871   5.374  0.00  0.00     0.183 C 
HETATM    3  C   UNK N   1      29.833  16.835   4.230  0.00  0.00     0.204 C 
HETATM    4  C   UNK N   1      30.231  16.645   6.721  0.00  0.00     0.187 C 
HETATM    5  C   UNK N   1      28.411  17.395   4.527  0.00  0.00     0.288 C 
HETATM    6  O   UNK N   1      30.790  17.856   4.177  0.00  0.00    -0.388 OA
HETATM    7  O   UNK N   1      28.104  17.590   5.909  0.00  0.00    -0.349 OA
HETATM    8  H   UNK N   1      31.325  18.665   4.160  0.00  0.00     0.210 HD
ENDROOT
BRANCH   2   9
HETATM    9  O   UNK N   1      31.341  15.164   5.133  0.00  0.00    -0.390 OA
HETATM   10  H   UNK N   1      31.981  15.481   4.477  0.00  0.00     0.210 HD
ENDBRANCH   2   9
BRANCH   5  11
HETATM   11  O   UNK N   1      28.165  18.561   3.799  0.00  0.00    -0.369 OA
HETATM   12  H   UNK N   1      28.464  18.909   2.943  0.00  0.00     0.212 HD
ENDBRANCH   5  11
BRANCH   4  13
HETATM   13  O   UNK N   1      31.562  17.122   6.909  0.00  0.00    -0.348 OA
BRANCH  13  14
HETATM   14  C   UNK N   1      32.178  16.696   8.118  0.00  0.00     0.297 C 
HETATM   15  C   UNK N   1      33.532  17.408   8.372  0.00  0.00     0.256 C 
HETATM   16  C   UNK N   1      34.110  16.910   9.711  0.00  0.00     0.188 C 
HETATM   17  F   UNK N   1      33.379  18.783   8.400  0.00  0.00    -0.241 F 
HETATM   18  C   UNK N   1      34.014  15.364   9.846  0.00  0.00     0.180 C 
HETATM   19  C   UNK N   1      33.481  14.735   8.540  0.00  0.00     0.179 C 
HETATM   20  O   UNK N   1      32.208  15.271   8.211  0.00  0.00    -0.348 OA
BRANCH  16  21
HETATM   21  O   UNK N   1      35.436  17.331   9.831  0.00  0.00    -0.390 OA
HETATM   22  H   UNK N   1      36.134  17.334  10.506  0.00  0.00     0.210 HD
ENDBRANCH  16  21
BRANCH  18  23
HETATM   23  O   UNK N   1      33.144  15.053  10.897  0.00  0.00    -0.390 OA
HETATM   24  H   UNK N   1      32.618  15.365  11.651  0.00  0.00     0.210 HD
ENDBRANCH  18  23
BRANCH  19  25
HETATM   25  C   UNK N   1      33.376  13.212   8.629  0.00  0.00     0.198 C 
BRANCH  25  26
HETATM   26  O   UNK N   1      32.209  12.820   9.289  0.00  0.00    -0.398 OA
HETATM   27  H   UNK N   1      31.774  12.452  10.073  0.00  0.00     0.209 HD
ENDBRANCH  25  26
ENDBRANCH  19  25
ENDBRANCH  13  14
ENDBRANCH   4  13
BRANCH   1  28
HETATM   28  C   UNK N   1      28.812  18.292   8.073  0.00  0.00     0.198 C 
BRANCH  28  29
HETATM   29  O   UNK N   1      27.613  19.006   8.013  0.00  0.00    -0.398 OA
HETATM   30  H   UNK N   1      26.908  18.911   8.673  0.00  0.00     0.209 HD
ENDBRANCH  28  29
ENDBRANCH   1  28
TORSDOF 10
ENDMDL
MODEL 4
REMARK VINA RESULT:      -6.0      1.774      2.665
REMARK  10 active torsions:
REMARK  status: ('A' for Active; 'I' for Inactive)
REMARK    1  A    between atoms: C_3  and  C_1 
REMARK    2  A    between atoms: O_14  and  C_1 
REMARK    3  A    between atoms: C_4  and  C_2 
REMARK    4  A    between atoms: O_15  and  C_2 
REMARK    5  A    between atoms: C_6  and  O_16 
REMARK    6  A    between atoms: C_7  and  O_17 
REMARK    7  A    between atoms: C_8  and  O_18 
REMARK    8  A    between atoms: C_10  and  O_23 
REMARK    9  A    between atoms: C_11  and  O_20 
REMARK   10  A    between atoms: C_12  and  O_23 
ROOT
HETATM    1  C   UNK N   1      34.977  15.437   8.002  0.00  0.00     0.180 C 
HETATM    2  C   UNK N   1      33.341  14.895   9.885  0.00  0.00     0.183 C 
HETATM    3  C   UNK N   1      34.517  15.462  10.683  0.00  0.00     0.204 C 
HETATM    4  C   UNK N   1      33.465  15.303   8.389  0.00  0.00     0.187 C 
HETATM    5  C   UNK N   1      35.797  14.782  10.114  0.00  0.00     0.288 C 
HETATM    6  O   UNK N   1      34.565  16.855  10.541  0.00  0.00    -0.388 OA
HETATM    7  O   UNK N   1      35.779  14.518   8.710  0.00  0.00    -0.349 OA
HETATM    8  H   UNK N   1      34.751  17.794  10.384  0.00  0.00     0.210 HD
ENDROOT
BRANCH   2   9
HETATM    9  O   UNK N   1      32.113  15.295  10.419  0.00  0.00    -0.390 OA
HETATM   10  H   UNK N   1      31.931  15.195  11.366  0.00  0.00     0.210 HD
ENDBRANCH   2   9
BRANCH   5  11
HETATM   11  O   UNK N   1      36.946  15.493  10.467  0.00  0.00    -0.369 OA
HETATM   12  H   UNK N   1      37.118  16.347  10.894  0.00  0.00     0.212 HD
ENDBRANCH   5  11
BRANCH   4  13
HETATM   13  O   UNK N   1      32.824  16.563   8.200  0.00  0.00    -0.348 OA
BRANCH  13  14
HETATM   14  C   UNK N   1      31.551  16.491   7.571  0.00  0.00     0.297 C 
HETATM   15  C   UNK N   1      31.500  17.297   6.247  0.00  0.00     0.256 C 
HETATM   16  C   UNK N   1      30.100  17.139   5.623  0.00  0.00     0.188 C 
HETATM   17  F   UNK N   1      32.471  16.864   5.359  0.00  0.00    -0.241 F 
HETATM   18  C   UNK N   1      28.971  17.317   6.677  0.00  0.00     0.180 C 
HETATM   19  C   UNK N   1      29.562  17.734   8.042  0.00  0.00     0.179 C 
HETATM   20  O   UNK N   1      30.499  16.770   8.497  0.00  0.00    -0.348 OA
BRANCH  16  21
HETATM   21  O   UNK N   1      29.948  18.057   4.581  0.00  0.00    -0.390 OA
HETATM   22  H   UNK N   1      29.418  18.846   4.387  0.00  0.00     0.210 HD
ENDBRANCH  16  21
BRANCH  18  23
HETATM   23  O   UNK N   1      28.288  16.105   6.821  0.00  0.00    -0.390 OA
HETATM   24  H   UNK N   1      28.316  15.169   7.076  0.00  0.00     0.210 HD
ENDBRANCH  18  23
BRANCH  19  25
HETATM   25  C   UNK N   1      28.482  17.926   9.107  0.00  0.00     0.198 C 
BRANCH  25  26
HETATM   26  O   UNK N   1      27.579  18.927   8.742  0.00  0.00    -0.398 OA
HETATM   27  H   UNK N   1      27.340  19.865   8.702  0.00  0.00     0.209 HD
ENDBRANCH  25  26
ENDBRANCH  19  25
ENDBRANCH  13  14
ENDBRANCH   4  13
BRANCH   1  28
HETATM   28  C   UNK N   1      35.204  15.232   6.511  0.00  0.00     0.198 C 
BRANCH  28  29
HETATM   29  O   UNK N   1      35.023  16.430   5.816  0.00  0.00    -0.398 OA
HETATM   30  H   UNK N   1      34.984  17.293   6.255  0.00  0.00     0.209 HD
ENDBRANCH  28  29
ENDBRANCH   1  28
TORSDOF 10
ENDMDL
MODEL 5
REMARK VINA RESULT:      -5.7     10.762     13.219
REMARK  10 active torsions:
REMARK  status: ('A' for Active; 'I' for Inactive)
REMARK    1  A    between atoms: C_3  and  C_1 
REMARK    2  A    between atoms: O_14  and  C_1 
REMARK    3  A    between atoms: C_4  and  C_2 
REMARK    4  A    between atoms: O_15  and  C_2 
REMARK    5  A    between atoms: C_6  and  O_16 
REMARK    6  A    between atoms: C_7  and  O_17 
REMARK    7  A    between atoms: C_8  and  O_18 
REMARK    8  A    between atoms: C_10  and  O_23 
REMARK    9  A    between atoms: C_11  and  O_20 
REMARK   10  A    between atoms: C_12  and  O_23 
ROOT
HETATM    1  C   UNK N   1      21.490  18.700   4.140  0.00  0.00     0.180 C 
HETATM    2  C   UNK N   1      19.451  18.574   2.611  0.00  0.00     0.183 C 
HETATM    3  C   UNK N   1      20.170  19.792   2.027  0.00  0.00     0.204 C 
HETATM    4  C   UNK N   1      20.431  17.746   3.491  0.00  0.00     0.187 C 
HETATM    5  C   UNK N   1      20.576  20.680   3.241  0.00  0.00     0.288 C 
HETATM    6  O   UNK N   1      21.287  19.381   1.290  0.00  0.00    -0.388 OA
HETATM    7  O   UNK N   1      20.944  19.970   4.424  0.00  0.00    -0.349 OA
HETATM    8  H   UNK N   1      22.147  19.192   0.883  0.00  0.00     0.210 HD
ENDROOT
BRANCH   2   9
HETATM    9  O   UNK N   1      18.877  17.783   1.611  0.00  0.00    -0.390 OA
HETATM   10  H   UNK N   1      19.419  17.158   1.105  0.00  0.00     0.210 HD
ENDBRANCH   2   9
BRANCH   5  11
HETATM   11  O   UNK N   1      21.569  21.595   2.886  0.00  0.00    -0.369 OA
HETATM   12  H   UNK N   1      21.716  22.187   2.131  0.00  0.00     0.212 HD
ENDBRANCH   5  11
BRANCH   4  13
HETATM   13  O   UNK N   1      21.104  16.798   2.666  0.00  0.00    -0.348 OA
BRANCH  13  14
HETATM   14  C   UNK N   1      20.735  15.444   2.899  0.00  0.00     0.297 C 
HETATM   15  C   UNK N   1      21.967  14.519   3.072  0.00  0.00     0.256 C 
HETATM   16  C   UNK N   1      21.476  13.085   3.348  0.00  0.00     0.188 C 
HETATM   17  F   UNK N   1      22.779  14.953   4.106  0.00  0.00    -0.241 F 
HETATM   18  C   UNK N   1      20.329  12.669   2.384  0.00  0.00     0.180 C 
HETATM   19  C   UNK N   1      20.084  13.765   1.324  0.00  0.00     0.179 C 
HETATM   20  O   UNK N   1      19.766  15.000   1.948  0.00  0.00    -0.348 OA
BRANCH  16  21
HETATM   21  O   UNK N   1      22.549  12.197   3.246  0.00  0.00    -0.390 OA
HETATM   22  H   UNK N   1      23.374  12.004   3.720  0.00  0.00     0.210 HD
ENDBRANCH  16  21
BRANCH  18  23
HETATM   23  O   UNK N   1      19.160  12.474   3.127  0.00  0.00    -0.390 OA
HETATM   24  H   UNK N   1      18.678  11.943   3.781  0.00  0.00     0.210 HD
ENDBRANCH  18  23
BRANCH  19  25
HETATM   25  C   UNK N   1      18.965  13.391   0.351  0.00  0.00     0.198 C 
BRANCH  25  26
HETATM   26  O   UNK N   1      17.730  13.878   0.784  0.00  0.00    -0.398 OA
HETATM   27  H   UNK N   1      16.929  13.773   1.320  0.00  0.00     0.209 HD
ENDBRANCH  25  26
ENDBRANCH  19  25
ENDBRANCH  13  14
ENDBRANCH   4  13
BRANCH   1  28
HETATM   28  C   UNK N   1      22.067  18.121   5.424  0.00  0.00     0.198 C 
BRANCH  28  29
HETATM   29  O   UNK N   1      21.379  18.610   6.537  0.00  0.00    -0.398 OA
HETATM   30  H   UNK N   1      20.805  19.391   6.501  0.00  0.00     0.209 HD
ENDBRANCH  28  29
ENDBRANCH   1  28
TORSDOF 10
ENDMDL
MODEL 6
REMARK VINA RESULT:      -5.6      3.698      5.624
REMARK  10 active torsions:
REMARK  status: ('A' for Active; 'I' for Inactive)
REMARK    1  A    between atoms: C_3  and  C_1 
REMARK    2  A    between atoms: O_14  and  C_1 
REMARK    3  A    between atoms: C_4  and  C_2 
REMARK    4  A    between atoms: O_15  and  C_2 
REMARK    5  A    between atoms: C_6  and  O_16 
REMARK    6  A    between atoms: C_7  and  O_17 
REMARK    7  A    between atoms: C_8  and  O_18 
REMARK    8  A    between atoms: C_10  and  O_23 
REMARK    9  A    between atoms: C_11  and  O_20 
REMARK   10  A    between atoms: C_12  and  O_23 
ROOT
HETATM    1  C   UNK N   1      37.853  12.756  11.256  0.00  0.00     0.180 C 
HETATM    2  C   UNK N   1      35.476  12.939  12.168  0.00  0.00     0.183 C 
HETATM    3  C   UNK N   1      36.279  12.897  13.470  0.00  0.00     0.204 C 
HETATM    4  C   UNK N   1      36.410  13.298  10.976  0.00  0.00     0.187 C 
HETATM    5  C   UNK N   1      37.304  11.735  13.310  0.00  0.00     0.288 C 
HETATM    6  O   UNK N   1      36.918  14.125  13.680  0.00  0.00    -0.388 OA
HETATM    7  O   UNK N   1      37.824  11.552  11.992  0.00  0.00    -0.349 OA
HETATM    8  H   UNK N   1      37.499  14.887  13.827  0.00  0.00     0.210 HD
ENDROOT
BRANCH   2   9
HETATM    9  O   UNK N   1      34.400  13.828  12.253  0.00  0.00    -0.390 OA
HETATM   10  H   UNK N   1      33.733  13.864  11.549  0.00  0.00     0.210 HD
ENDBRANCH   2   9
BRANCH   5  11
HETATM   11  O   UNK N   1      38.342  11.847  14.238  0.00  0.00    -0.369 OA
HETATM   12  H   UNK N   1      38.411  11.755  15.202  0.00  0.00     0.212 HD
ENDBRANCH   5  11
BRANCH   4  13
HETATM   13  O   UNK N   1      36.466  14.716  10.844  0.00  0.00    -0.348 OA
BRANCH  13  14
HETATM   14  C   UNK N   1      35.792  15.231   9.702  0.00  0.00     0.297 C 
HETATM   15  C   UNK N   1      34.911  16.461  10.042  0.00  0.00     0.256 C 
HETATM   16  C   UNK N   1      34.246  16.967   8.747  0.00  0.00     0.188 C 
HETATM   17  F   UNK N   1      35.660  17.471  10.620  0.00  0.00    -0.241 F 
HETATM   18  C   UNK N   1      33.652  15.803   7.905  0.00  0.00     0.180 C 
HETATM   19  C   UNK N   1      33.778  14.463   8.663  0.00  0.00     0.179 C 
HETATM   20  O   UNK N   1      35.136  14.191   8.974  0.00  0.00    -0.348 OA
BRANCH  16  21
HETATM   21  O   UNK N   1      33.254  17.897   9.066  0.00  0.00    -0.390 OA
HETATM   22  H   UNK N   1      32.285  17.928   9.126  0.00  0.00     0.210 HD
ENDBRANCH  16  21
BRANCH  18  23
HETATM   23  O   UNK N   1      34.349  15.716   6.695  0.00  0.00    -0.390 OA
HETATM   24  H   UNK N   1      34.769  16.177   5.951  0.00  0.00     0.210 HD
ENDBRANCH  18  23
BRANCH  19  25
HETATM   25  C   UNK N   1      33.200  13.291   7.870  0.00  0.00     0.198 C 
BRANCH  25  26
HETATM   26  O   UNK N   1      32.150  13.703   7.046  0.00  0.00    -0.398 OA
HETATM   27  H   UNK N   1      31.215  13.932   6.933  0.00  0.00     0.209 HD
ENDBRANCH  25  26
ENDBRANCH  19  25
ENDBRANCH  13  14
ENDBRANCH   4  13
BRANCH   1  28
HETATM   28  C   UNK N   1      38.632  12.519   9.969  0.00  0.00     0.198 C 
BRANCH  28  29
HETATM   29  O   UNK N   1      37.809  12.701   8.856  0.00  0.00    -0.398 OA
HETATM   30  H   UNK N   1      37.744  12.054   8.136  0.00  0.00     0.209 HD
ENDBRANCH  28  29
ENDBRANCH   1  28
TORSDOF 10
ENDMDL
MODEL 7
REMARK VINA RESULT:      -5.6      2.177      2.973
REMARK  10 active torsions:
REMARK  status: ('A' for Active; 'I' for Inactive)
REMARK    1  A    between atoms: C_3  and  C_1 
REMARK    2  A    between atoms: O_14  and  C_1 
REMARK    3  A    between atoms: C_4  and  C_2 
REMARK    4  A    between atoms: O_15  and  C_2 
REMARK    5  A    between atoms: C_6  and  O_16 
REMARK    6  A    between atoms: C_7  and  O_17 
REMARK    7  A    between atoms: C_8  and  O_18 
REMARK    8  A    between atoms: C_10  and  O_23 
REMARK    9  A    between atoms: C_11  and  O_20 
REMARK   10  A    between atoms: C_12  and  O_23 
ROOT
HETATM    1  C   UNK N   1      33.650  16.930   7.079  0.00  0.00     0.180 C 
HETATM    2  C   UNK N   1      32.701  16.182   4.831  0.00  0.00     0.183 C 
HETATM    3  C   UNK N   1      33.551  14.964   5.201  0.00  0.00     0.204 C 
HETATM    4  C   UNK N   1      32.439  17.054   6.093  0.00  0.00     0.187 C 
HETATM    5  C   UNK N   1      34.924  15.523   5.678  0.00  0.00     0.288 C 
HETATM    6  O   UNK N   1      32.916  14.223   6.205  0.00  0.00    -0.388 OA
HETATM    7  O   UNK N   1      34.869  16.761   6.389  0.00  0.00    -0.349 OA
HETATM    8  H   UNK N   1      32.614  13.737   6.988  0.00  0.00     0.210 HD
ENDROOT
BRANCH   2   9
HETATM    9  O   UNK N   1      31.502  15.808   4.217  0.00  0.00    -0.390 OA
HETATM   10  H   UNK N   1      31.265  14.872   4.125  0.00  0.00     0.210 HD
ENDBRANCH   2   9
BRANCH   5  11
HETATM   11  O   UNK N   1      35.631  14.566   6.410  0.00  0.00    -0.369 OA
HETATM   12  H   UNK N   1      35.847  14.444   7.349  0.00  0.00     0.212 HD
ENDBRANCH   5  11
BRANCH   4  13
HETATM   13  O   UNK N   1      31.261  16.584   6.744  0.00  0.00    -0.348 OA
BRANCH  13  14
HETATM   14  C   UNK N   1      30.243  17.563   6.905  0.00  0.00     0.297 C 
HETATM   15  C   UNK N   1      29.436  17.364   8.214  0.00  0.00     0.256 C 
HETATM   16  C   UNK N   1      28.381  18.482   8.320  0.00  0.00     0.188 C 
HETATM   17  F   UNK N   1      30.265  17.383   9.322  0.00  0.00    -0.241 F 
HETATM   18  C   UNK N   1      27.629  18.701   6.977  0.00  0.00     0.180 C 
HETATM   19  C   UNK N   1      28.059  17.646   5.934  0.00  0.00     0.179 C 
HETATM   20  O   UNK N   1      29.460  17.698   5.718  0.00  0.00    -0.348 OA
BRANCH  16  21
HETATM   21  O   UNK N   1      27.479  18.176   9.342  0.00  0.00    -0.390 OA
HETATM   22  H   UNK N   1      27.454  17.628  10.143  0.00  0.00     0.210 HD
ENDBRANCH  16  21
BRANCH  18  23
HETATM   23  O   UNK N   1      27.929  19.978   6.491  0.00  0.00    -0.390 OA
HETATM   24  H   UNK N   1      28.275  20.868   6.670  0.00  0.00     0.210 HD
ENDBRANCH  18  23
BRANCH  19  25
HETATM   25  C   UNK N   1      27.337  17.823   4.598  0.00  0.00     0.198 C 
BRANCH  25  26
HETATM   26  O   UNK N   1      26.110  18.468   4.764  0.00  0.00    -0.398 OA
HETATM   27  H   UNK N   1      25.147  18.423   4.865  0.00  0.00     0.209 HD
ENDBRANCH  25  26
ENDBRANCH  19  25
ENDBRANCH  13  14
ENDBRANCH   4  13
BRANCH   1  28
HETATM   28  C   UNK N   1      33.771  18.145   7.988  0.00  0.00     0.198 C 
BRANCH  28  29
HETATM   29  O   UNK N   1      35.013  18.762   7.821  0.00  0.00    -0.398 OA
HETATM   30  H   UNK N   1      35.286  19.543   8.327  0.00  0.00     0.209 HD
ENDBRANCH  28  29
ENDBRANCH   1  28
TORSDOF 10
ENDMDL
MODEL 8
REMARK VINA RESULT:      -5.6      3.589      7.489
REMARK  10 active torsions:
REMARK  status: ('A' for Active; 'I' for Inactive)
REMARK    1  A    between atoms: C_3  and  C_1 
REMARK    2  A    between atoms: O_14  and  C_1 
REMARK    3  A    between atoms: C_4  and  C_2 
REMARK    4  A    between atoms: O_15  and  C_2 
REMARK    5  A    between atoms: C_6  and  O_16 
REMARK    6  A    between atoms: C_7  and  O_17 
REMARK    7  A    between atoms: C_8  and  O_18 
REMARK    8  A    between atoms: C_10  and  O_23 
REMARK    9  A    between atoms: C_11  and  O_20 
REMARK   10  A    between atoms: C_12  and  O_23 
ROOT
HETATM    1  C   UNK N   1      34.596  15.346   7.439  0.00  0.00     0.180 C 
HETATM    2  C   UNK N   1      34.936  17.064   9.295  0.00  0.00     0.183 C 
HETATM    3  C   UNK N   1      33.623  17.560   8.684  0.00  0.00     0.204 C 
HETATM    4  C   UNK N   1      35.206  15.595   8.860  0.00  0.00     0.187 C 
HETATM    5  C   UNK N   1      33.835  17.559   7.141  0.00  0.00     0.288 C 
HETATM    6  O   UNK N   1      32.570  16.719   9.062  0.00  0.00    -0.388 OA
HETATM    7  O   UNK N   1      34.656  16.504   6.636  0.00  0.00    -0.349 OA
HETATM    8  H   UNK N   1      31.818  16.114   9.162  0.00  0.00     0.210 HD
ENDROOT
BRANCH   2   9
HETATM    9  O   UNK N   1      34.937  17.188  10.688  0.00  0.00    -0.390 OA
HETATM   10  H   UNK N   1      34.744  16.423  11.251  0.00  0.00     0.210 HD
ENDBRANCH   2   9
BRANCH   5  11
HETATM   11  O   UNK N   1      32.614  17.600   6.464  0.00  0.00    -0.369 OA
HETATM   12  H   UNK N   1      31.691  17.424   6.707  0.00  0.00     0.212 HD
ENDBRANCH   5  11
BRANCH   4  13
HETATM   13  O   UNK N   1      34.583  14.715   9.793  0.00  0.00    -0.348 OA
BRANCH  13  14
HETATM   14  C   UNK N   1      35.483  13.883  10.514  0.00  0.00     0.297 C 
HETATM   15  C   UNK N   1      34.918  12.456  10.736  0.00  0.00     0.256 C 
HETATM   16  C   UNK N   1      35.966  11.620  11.495  0.00  0.00     0.188 C 
HETATM   17  F   UNK N   1      34.602  11.849   9.533  0.00  0.00    -0.241 F 
HETATM   18  C   UNK N   1      36.577  12.402  12.692  0.00  0.00     0.180 C 
HETATM   19  C   UNK N   1      35.869  13.763  12.872  0.00  0.00     0.179 C 
HETATM   20  O   UNK N   1      35.968  14.538  11.687  0.00  0.00    -0.348 OA
BRANCH  16  21
HETATM   21  O   UNK N   1      35.383  10.429  11.934  0.00  0.00    -0.390 OA
HETATM   22  H   UNK N   1      34.881   9.689  11.557  0.00  0.00     0.210 HD
ENDBRANCH  16  21
BRANCH  18  23
HETATM   23  O   UNK N   1      37.938  12.619  12.446  0.00  0.00    -0.390 OA
HETATM   24  H   UNK N   1      38.652  12.717  11.797  0.00  0.00     0.210 HD
ENDBRANCH  18  23
BRANCH  19  25
HETATM   25  C   UNK N   1      36.437  14.563  14.044  0.00  0.00     0.198 C 
BRANCH  25  26
HETATM   26  O   UNK N   1      37.188  13.751  14.898  0.00  0.00    -0.398 OA
HETATM   27  H   UNK N   1      38.020  13.302  15.109  0.00  0.00     0.209 HD
ENDBRANCH  25  26
ENDBRANCH  19  25
ENDBRANCH  13  14
ENDBRANCH   4  13
BRANCH   1  28
HETATM   28  C   UNK N   1      35.301  14.211   6.708  0.00  0.00     0.198 C 
BRANCH  28  29
HETATM   29  O   UNK N   1      36.575  14.000   7.238  0.00  0.00    -0.398 OA
HETATM   30  H   UNK N   1      36.980  14.594   7.889  0.00  0.00     0.209 HD
ENDBRANCH  28  29
ENDBRANCH   1  28
TORSDOF 10
ENDMDL
MODEL 9
REMARK VINA RESULT:      -5.6     10.034     12.454
REMARK  10 active torsions:
REMARK  status: ('A' for Active; 'I' for Inactive)
REMARK    1  A    between atoms: C_3  and  C_1 
REMARK    2  A    between atoms: O_14  and  C_1 
REMARK    3  A    between atoms: C_4  and  C_2 
REMARK    4  A    between atoms: O_15  and  C_2 
REMARK    5  A    between atoms: C_6  and  O_16 
REMARK    6  A    between atoms: C_7  and  O_17 
REMARK    7  A    between atoms: C_8  and  O_18 
REMARK    8  A    between atoms: C_10  and  O_23 
REMARK    9  A    between atoms: C_11  and  O_20 
REMARK   10  A    between atoms: C_12  and  O_23 
ROOT
HETATM    1  C   UNK N   1      22.301  19.810   2.460  0.00  0.00     0.180 C 
HETATM    2  C   UNK N   1      19.907  19.049   2.911  0.00  0.00     0.183 C 
HETATM    3  C   UNK N   1      19.798  19.478   1.446  0.00  0.00     0.204 C 
HETATM    4  C   UNK N   1      21.399  18.841   3.298  0.00  0.00     0.187 C 
HETATM    5  C   UNK N   1      20.508  20.861   1.345  0.00  0.00     0.288 C 
HETATM    6  O   UNK N   1      20.406  18.524   0.621  0.00  0.00    -0.388 OA
HETATM    7  O   UNK N   1      21.646  21.030   2.192  0.00  0.00    -0.349 OA
HETATM    8  H   UNK N   1      20.923  17.988  -0.001  0.00  0.00     0.210 HD
ENDROOT
BRANCH   2   9
HETATM    9  O   UNK N   1      19.151  17.902   3.171  0.00  0.00    -0.390 OA
HETATM   10  H   UNK N   1      18.374  17.690   2.630  0.00  0.00     0.210 HD
ENDBRANCH   2   9
BRANCH   5  11
HETATM   11  O   UNK N   1      20.830  21.168   0.021  0.00  0.00    -0.369 OA
HETATM   12  H   UNK N   1      21.657  21.255  -0.479  0.00  0.00     0.212 HD
ENDBRANCH   5  11
BRANCH   4  13
HETATM   13  O   UNK N   1      21.768  17.495   3.005  0.00  0.00    -0.348 OA
BRANCH  13  14
HETATM   14  C   UNK N   1      22.072  16.703   4.147  0.00  0.00     0.297 C 
HETATM   15  C   UNK N   1      22.001  15.184   3.847  0.00  0.00     0.256 C 
HETATM   16  C   UNK N   1      22.372  14.408   5.125  0.00  0.00     0.188 C 
HETATM   17  F   UNK N   1      22.853  14.836   2.813  0.00  0.00    -0.241 F 
HETATM   18  C   UNK N   1      21.655  14.980   6.380  0.00  0.00     0.180 C 
HETATM   19  C   UNK N   1      20.662  16.093   5.980  0.00  0.00     0.179 C 
HETATM   20  O   UNK N   1      21.333  17.136   5.290  0.00  0.00    -0.348 OA
BRANCH  16  21
HETATM   21  O   UNK N   1      22.062  13.056   4.956  0.00  0.00    -0.390 OA
HETATM   22  H   UNK N   1      21.468  12.515   4.412  0.00  0.00     0.210 HD
ENDBRANCH  16  21
BRANCH  18  23
HETATM   23  O   UNK N   1      22.615  15.508   7.251  0.00  0.00    -0.390 OA
HETATM   24  H   UNK N   1      22.866  15.733   8.161  0.00  0.00     0.210 HD
ENDBRANCH  18  23
BRANCH  19  25
HETATM   25  C   UNK N   1      19.930  16.679   7.188  0.00  0.00     0.198 C 
BRANCH  25  26
HETATM   26  O   UNK N   1      20.640  17.745   7.746  0.00  0.00    -0.398 OA
HETATM   27  H   UNK N   1      21.464  18.102   8.111  0.00  0.00     0.209 HD
ENDBRANCH  25  26
ENDBRANCH  19  25
ENDBRANCH  13  14
ENDBRANCH   4  13
BRANCH   1  28
HETATM   28  C   UNK N   1      23.618  20.110   3.161  0.00  0.00     0.198 C 
BRANCH  28  29
HETATM   29  O   UNK N   1      24.438  20.898   2.351  0.00  0.00    -0.398 OA
HETATM   30  H   UNK N   1      25.400  20.786   2.306  0.00  0.00     0.209 HD
ENDBRANCH  28  29
ENDBRANCH   1  28
TORSDOF 10
ENDMDL
