MODEL 1
REMARK VINA RESULT:      -7.8      0.000      0.000
REMARK  20 active torsions:
REMARK  status: ('A' for Active; 'I' for Inactive)
REMARK    1  A    between atoms: C_20  and  C_12 
REMARK    2  A    between atoms: C_23  and  C_12 
REMARK    3  A    between atoms: C_19  and  C_15 
REMARK    4  A    between atoms: O_44  and  C_15 
REMARK    5  A    between atoms: C_27  and  C_16 
REMARK    6  A    between atoms: O_45  and  C_16 
REMARK    7  A    between atoms: C_21  and  C_17 
REMARK    8  A    between atoms: N_32  and  C_17 
REMARK    9  A    between atoms: O_36  and  C_18 
REMARK   10  A    between atoms: C_28  and  C_22 
REMARK   11  A    between atoms: C_29  and  C_23 
REMARK   12  A    between atoms: C_23  and  N_34 
REMARK   13  A    between atoms: O_44  and  C_24 
REMARK   14  A    between atoms: O_45  and  C_25 
REMARK   15  A    between atoms: P_46  and  C_26 
REMARK   16  A    between atoms: O_38  and  C_27 
REMARK   17  A    between atoms: O_39  and  C_28 
REMARK   18  A    between atoms: C_29  and  O_40 
REMARK   19  A    between atoms: P_46  and  O_41 
REMARK   20  A    between atoms: P_46  and  O_42 
ROOT
HETATM    1  C   UNK N   1      25.160  17.210   4.479  0.00  0.00     0.135 C 
HETATM    2  N   UNK N   1      24.116  17.937   4.686  0.00  0.00    -0.364 N 
ATOM      3  HN  UNK N   1      24.160  18.548   5.502  1.00  0.00     0.162 HD
ENDROOT
BRANCH   1   4
HETATM    4  C   UNK N   1      26.447  17.589   5.154  0.00  0.00     0.162 C 
BRANCH   4   5
HETATM    5  C   UNK N   1      26.928  16.616   6.259  0.00  0.00     0.072 C 
BRANCH   5   6
HETATM    6  C   UNK N   1      28.338  16.984   6.620  0.00  0.00    -0.054 A 
HETATM    7  C   UNK N   1      28.676  17.270   7.941  0.00  0.00     0.010 A 
HETATM    8  C   UNK N   1      30.023  17.349   8.308  0.00  0.00     0.038 A 
HETATM    9  C   UNK N   1      31.038  17.089   7.374  0.00  0.00     0.087 A 
HETATM   10  C   UNK N   1      30.683  16.856   6.017  0.00  0.00     0.083 A 
HETATM   11  C   UNK N   1      29.344  16.826   5.670  0.00  0.00     0.029 A 
BRANCH   9  12
HETATM   12  O   UNK N   1      32.315  17.055   7.821  0.00  0.00    -0.340 OA
BRANCH  12  13
HETATM   13  C   UNK N   1      32.925  18.157   8.371  0.00  0.00     0.285 C 
BRANCH  13  14
HETATM   14  C   UNK N   1      34.293  18.335   7.823  0.00  0.00     0.164 C 
HETATM   15  O   UNK N   1      34.606  17.771   6.789  0.00  0.00    -0.648 OA
BRANCH  14  16
HETATM   16  O   UNK N   1      35.191  19.092   8.478  0.00  0.00    -0.775 OA
HETATM   17  H   UNK N   1      35.120  19.206   9.406  0.00  0.00     0.167 HD
ENDBRANCH  14  16
ENDBRANCH  13  14
ENDBRANCH  12  13
ENDBRANCH   9  12
BRANCH  10  18
HETATM   18  P   UNK N   1      31.887  16.511   4.660  0.00  0.00     0.273 P 
HETATM   19  O   UNK N   1      32.369  17.850   4.039  0.00  0.00    -0.650 OA
BRANCH  18  20
HETATM   20  O   UNK N   1      31.218  15.664   3.300  0.00  0.00    -0.326 OA
HETATM   21  H   UNK N   1      30.605  15.093   2.811  0.00  0.00     0.220 HD
ENDBRANCH  18  20
BRANCH  18  22
HETATM   22  O   UNK N   1      33.355  15.711   5.118  0.00  0.00    -0.326 OA
HETATM   23  H   UNK N   1      33.566  14.950   5.682  0.00  0.00     0.220 HD
ENDBRANCH  18  22
ENDBRANCH  10  18
ENDBRANCH   5   6
ENDBRANCH   4   5
BRANCH   4  24
HETATM   24  N   UNK N   1      26.347  18.967   5.640  0.00  0.00    -0.362 N 
HETATM   25  C   UNK N   1      27.072  19.962   5.231  0.00  0.00     0.107 C 
HETATM   26  C   UNK N   1      26.854  21.316   5.811  0.00  0.00     0.097 C 
ATOM     27  HN  UNK N   1      25.650  19.160   6.359  1.00  0.00     0.162 HD
BRANCH  25  28
HETATM   28  O   UNK N   1      27.994  19.804   4.259  0.00  0.00    -0.350 OA
HETATM   29  H   UNK N   1      28.311  19.268   3.559  0.00  0.00     0.219 HD
ENDBRANCH  25  28
ENDBRANCH   4  24
ENDBRANCH   1   4
BRANCH   1  30
HETATM   30  O   UNK N   1      25.165  16.224   3.559  0.00  0.00    -0.348 OA
HETATM   31  H   UNK N   1      25.406  15.933   2.702  0.00  0.00     0.219 HD
ENDBRANCH   1  30
BRANCH   2  32
HETATM   32  C   UNK N   1      22.884  18.006   3.914  0.00  0.00     0.112 C 
HETATM   33  C   UNK N   1      22.431  19.405   3.510  0.00  0.00     0.037 C 
BRANCH  32  34
HETATM   34  C   UNK N   1      21.883  17.377   4.837  0.00  0.00    -0.035 A 
HETATM   35  C   UNK N   1      21.556  18.029   6.029  0.00  0.00     0.012 A 
HETATM   36  C   UNK N   1      20.986  17.320   7.075  0.00  0.00     0.038 A 
HETATM   37  C   UNK N   1      20.721  15.952   6.967  0.00  0.00     0.083 A 
HETATM   38  C   UNK N   1      20.946  15.299   5.702  0.00  0.00     0.048 A 
HETATM   39  C   UNK N   1      21.538  16.044   4.669  0.00  0.00     0.027 A 
BRANCH  37  40
HETATM   40  O   UNK N   1      20.247  15.368   8.102  0.00  0.00    -0.350 OA
BRANCH  40  41
HETATM   41  C   UNK N   1      20.960  14.976   9.201  0.00  0.00     0.180 C 
BRANCH  41  42
HETATM   42  C   UNK N   1      21.208  13.492   9.116  0.00  0.00     0.010 C 
HETATM   43  C   UNK N   1      22.613  13.233   8.575  0.00  0.00     0.007 C 
HETATM   44  C   UNK N   1      22.979  11.775   8.803  0.00  0.00     0.000 C 
HETATM   45  C   UNK N   1      23.001  11.432  10.302  0.00  0.00     0.000 C 
HETATM   46  C   UNK N   1      22.220  12.422  11.175  0.00  0.00     0.000 C 
HETATM   47  C   UNK N   1      20.931  12.840  10.478  0.00  0.00     0.007 C 
ENDBRANCH  41  42
ENDBRANCH  40  41
ENDBRANCH  37  40
BRANCH  38  48
HETATM   48  C   UNK N   1      20.716  13.862   5.368  0.00  0.00     0.146 C 
HETATM   49  N   UNK N   1      21.464  13.285   4.503  0.00  0.00    -0.379 N 
HETATM   50  H   UNK N   1      21.066  12.729   3.795  0.00  0.00     0.158 HD
ATOM     51  HN  UNK N   1      22.476  13.402   4.549  1.00  0.00     0.158 HD
BRANCH  48  52
HETATM   52  O   UNK N   1      19.822  13.115   6.040  0.00  0.00    -0.346 OA
HETATM   53  H   UNK N   1      19.843  12.457   6.707  0.00  0.00     0.219 HD
ENDBRANCH  48  52
ENDBRANCH  38  48
ENDBRANCH  32  34
ENDBRANCH   2  32
TORSDOF 20
ENDMDL
MODEL 2
REMARK VINA RESULT:      -7.8      3.120      9.160
REMARK  20 active torsions:
REMARK  status: ('A' for Active; 'I' for Inactive)
REMARK    1  A    between atoms: C_20  and  C_12 
REMARK    2  A    between atoms: C_23  and  C_12 
REMARK    3  A    between atoms: C_19  and  C_15 
REMARK    4  A    between atoms: O_44  and  C_15 
REMARK    5  A    between atoms: C_27  and  C_16 
REMARK    6  A    between atoms: O_45  and  C_16 
REMARK    7  A    between atoms: C_21  and  C_17 
REMARK    8  A    between atoms: N_32  and  C_17 
REMARK    9  A    between atoms: O_36  and  C_18 
REMARK   10  A    between atoms: C_28  and  C_22 
REMARK   11  A    between atoms: C_29  and  C_23 
REMARK   12  A    between atoms: C_23  and  N_34 
REMARK   13  A    between atoms: O_44  and  C_24 
REMARK   14  A    between atoms: O_45  and  C_25 
REMARK   15  A    between atoms: P_46  and  C_26 
REMARK   16  A    between atoms: O_38  and  C_27 
REMARK   17  A    between atoms: O_39  and  C_28 
REMARK   18  A    between atoms: C_29  and  O_40 
REMARK   19  A    between atoms: P_46  and  O_41 
REMARK   20  A    between atoms: P_46  and  O_42 
ROOT
HETATM    1  C   UNK N   1      23.995  18.817   4.556  0.00  0.00     0.135 C 
HETATM    2  N   UNK N   1      25.203  18.910   4.998  0.00  0.00    -0.364 N 
ATOM      3  HN  UNK N   1      25.518  18.135   5.583  1.00  0.00     0.162 HD
ENDROOT
BRANCH   1   4
HETATM    4  C   UNK N   1      23.322  17.474   4.576  0.00  0.00     0.162 C 
BRANCH   4   5
HETATM    5  C   UNK N   1      24.226  16.273   4.198  0.00  0.00     0.072 C 
BRANCH   5   6
HETATM    6  C   UNK N   1      24.279  15.345   5.376  0.00  0.00    -0.054 A 
HETATM    7  C   UNK N   1      25.500  15.023   5.965  0.00  0.00     0.010 A 
HETATM    8  C   UNK N   1      25.521  14.382   7.207  0.00  0.00     0.038 A 
HETATM    9  C   UNK N   1      24.328  14.108   7.894  0.00  0.00     0.087 A 
HETATM   10  C   UNK N   1      23.087  14.388   7.259  0.00  0.00     0.083 A 
HETATM   11  C   UNK N   1      23.093  14.983   6.009  0.00  0.00     0.029 A 
BRANCH   9  12
HETATM   12  O   UNK N   1      24.421  13.604   9.146  0.00  0.00    -0.340 OA
BRANCH  12  13
HETATM   13  C   UNK N   1      24.403  12.252   9.392  0.00  0.00     0.285 C 
BRANCH  13  14
HETATM   14  C   UNK N   1      24.128  11.976  10.824  0.00  0.00     0.164 C 
HETATM   15  O   UNK N   1      23.082  11.439  11.145  0.00  0.00    -0.648 OA
BRANCH  14  16
HETATM   16  O   UNK N   1      25.014  12.343  11.766  0.00  0.00    -0.775 OA
HETATM   17  H   UNK N   1      25.585  11.704  12.147  0.00  0.00     0.167 HD
ENDBRANCH  14  16
ENDBRANCH  13  14
ENDBRANCH  12  13
ENDBRANCH   9  12
BRANCH  10  18
HETATM   18  P   UNK N   1      21.429  14.081   8.010  0.00  0.00     0.273 P 
HETATM   19  O   UNK N   1      21.393  14.664   9.448  0.00  0.00    -0.650 OA
BRANCH  18  20
HETATM   20  O   UNK N   1      21.047  12.405   8.254  0.00  0.00    -0.326 OA
HETATM   21  H   UNK N   1      20.858  11.589   8.743  0.00  0.00     0.220 HD
ENDBRANCH  18  20
BRANCH  18  22
HETATM   22  O   UNK N   1      20.077  14.827   7.222  0.00  0.00    -0.326 OA
HETATM   23  H   UNK N   1      19.536  14.606   6.447  0.00  0.00     0.220 HD
ENDBRANCH  18  22
ENDBRANCH  10  18
ENDBRANCH   5   6
ENDBRANCH   4   5
BRANCH   4  24
HETATM   24  N   UNK N   1      22.112  17.531   3.753  0.00  0.00    -0.362 N 
HETATM   25  C   UNK N   1      20.898  17.420   4.196  0.00  0.00     0.107 C 
HETATM   26  C   UNK N   1      19.758  17.506   3.242  0.00  0.00     0.097 C 
ATOM     27  HN  UNK N   1      22.234  17.671   2.750  1.00  0.00     0.162 HD
BRANCH  25  28
HETATM   28  O   UNK N   1      20.642  17.267   5.512  0.00  0.00    -0.350 OA
HETATM   29  H   UNK N   1      20.909  17.458   6.389  0.00  0.00     0.219 HD
ENDBRANCH  25  28
ENDBRANCH   4  24
ENDBRANCH   1   4
BRANCH   1  30
HETATM   30  O   UNK N   1      23.386  19.848   3.938  0.00  0.00    -0.348 OA
HETATM   31  H   UNK N   1      22.826  20.597   3.996  0.00  0.00     0.219 HD
ENDBRANCH   1  30
BRANCH   2  32
HETATM   32  C   UNK N   1      26.178  19.968   4.775  0.00  0.00     0.112 C 
HETATM   33  C   UNK N   1      26.387  20.382   3.323  0.00  0.00     0.037 C 
BRANCH  32  34
HETATM   34  C   UNK N   1      27.436  19.378   5.340  0.00  0.00    -0.035 A 
HETATM   35  C   UNK N   1      28.284  18.655   4.498  0.00  0.00     0.012 A 
HETATM   36  C   UNK N   1      29.202  17.765   5.033  0.00  0.00     0.038 A 
HETATM   37  C   UNK N   1      29.307  17.571   6.412  0.00  0.00     0.083 A 
HETATM   38  C   UNK N   1      28.519  18.397   7.292  0.00  0.00     0.048 A 
HETATM   39  C   UNK N   1      27.590  19.278   6.715  0.00  0.00     0.027 A 
BRANCH  37  40
HETATM   40  O   UNK N   1      30.185  16.600   6.790  0.00  0.00    -0.350 OA
BRANCH  40  41
HETATM   41  C   UNK N   1      31.545  16.608   6.664  0.00  0.00     0.180 C 
BRANCH  41  42
HETATM   42  C   UNK N   1      32.161  16.737   8.034  0.00  0.00     0.010 C 
HETATM   43  C   UNK N   1      33.097  15.559   8.294  0.00  0.00     0.007 C 
HETATM   44  C   UNK N   1      33.958  15.858   9.510  0.00  0.00     0.000 C 
HETATM   45  C   UNK N   1      34.841  17.096   9.279  0.00  0.00     0.000 C 
HETATM   46  C   UNK N   1      34.349  18.005   8.146  0.00  0.00     0.000 C 
HETATM   47  C   UNK N   1      32.830  18.112   8.176  0.00  0.00     0.007 C 
ENDBRANCH  41  42
ENDBRANCH  40  41
ENDBRANCH  37  40
BRANCH  38  48
HETATM   48  C   UNK N   1      28.492  18.367   8.785  0.00  0.00     0.146 C 
HETATM   49  N   UNK N   1      29.551  18.657   9.444  0.00  0.00    -0.379 N 
HETATM   50  H   UNK N   1      29.841  18.087  10.192  0.00  0.00     0.158 HD
ATOM     51  HN  UNK N   1      30.096  19.482   9.192  1.00  0.00     0.158 HD
BRANCH  48  52
HETATM   52  O   UNK N   1      27.351  18.162   9.466  0.00  0.00    -0.346 OA
HETATM   53  H   UNK N   1      26.981  18.442  10.280  0.00  0.00     0.219 HD
ENDBRANCH  48  52
ENDBRANCH  38  48
ENDBRANCH  32  34
ENDBRANCH   2  32
TORSDOF 20
ENDMDL
MODEL 3
REMARK VINA RESULT:      -7.7      3.807     10.210
REMARK  20 active torsions:
REMARK  status: ('A' for Active; 'I' for Inactive)
REMARK    1  A    between atoms: C_20  and  C_12 
REMARK    2  A    between atoms: C_23  and  C_12 
REMARK    3  A    between atoms: C_19  and  C_15 
REMARK    4  A    between atoms: O_44  and  C_15 
REMARK    5  A    between atoms: C_27  and  C_16 
REMARK    6  A    between atoms: O_45  and  C_16 
REMARK    7  A    between atoms: C_21  and  C_17 
REMARK    8  A    between atoms: N_32  and  C_17 
REMARK    9  A    between atoms: O_36  and  C_18 
REMARK   10  A    between atoms: C_28  and  C_22 
REMARK   11  A    between atoms: C_29  and  C_23 
REMARK   12  A    between atoms: C_23  and  N_34 
REMARK   13  A    between atoms: O_44  and  C_24 
REMARK   14  A    between atoms: O_45  and  C_25 
REMARK   15  A    between atoms: P_46  and  C_26 
REMARK   16  A    between atoms: O_38  and  C_27 
REMARK   17  A    between atoms: O_39  and  C_28 
REMARK   18  A    between atoms: C_29  and  O_40 
REMARK   19  A    between atoms: P_46  and  O_41 
REMARK   20  A    between atoms: P_46  and  O_42 
ROOT
HETATM    1  C   UNK N   1      25.676  16.841   5.000  0.00  0.00     0.135 C 
HETATM    2  N   UNK N   1      26.157  17.842   4.346  0.00  0.00    -0.364 N 
ATOM      3  HN  UNK N   1      26.191  17.729   3.332  1.00  0.00     0.162 HD
ENDROOT
BRANCH   1   4
HETATM    4  C   UNK N   1      24.862  15.819   4.259  0.00  0.00     0.162 C 
BRANCH   4   5
HETATM    5  C   UNK N   1      23.615  15.291   5.012  0.00  0.00     0.072 C 
BRANCH   5   6
HETATM    6  C   UNK N   1      22.419  16.052   4.519  0.00  0.00    -0.054 A 
HETATM    7  C   UNK N   1      22.040  17.244   5.133  0.00  0.00     0.010 A 
HETATM    8  C   UNK N   1      21.102  18.074   4.512  0.00  0.00     0.038 A 
HETATM    9  C   UNK N   1      20.579  17.749   3.251  0.00  0.00     0.087 A 
HETATM   10  C   UNK N   1      20.928  16.503   2.660  0.00  0.00     0.083 A 
HETATM   11  C   UNK N   1      21.826  15.679   3.316  0.00  0.00     0.029 A 
BRANCH   9  12
HETATM   12  O   UNK N   1      19.776  18.654   2.647  0.00  0.00    -0.340 OA
BRANCH  12  13
HETATM   13  C   UNK N   1      20.104  19.987   2.572  0.00  0.00     0.285 C 
BRANCH  13  14
HETATM   14  C   UNK N   1      20.985  20.252   1.406  0.00  0.00     0.164 C 
HETATM   15  O   UNK N   1      22.053  20.813   1.574  0.00  0.00    -0.648 OA
BRANCH  14  16
HETATM   16  O   UNK N   1      20.593  19.902   0.169  0.00  0.00    -0.775 OA
HETATM   17  H   UNK N   1      20.899  20.385  -0.574  0.00  0.00     0.167 HD
ENDBRANCH  14  16
ENDBRANCH  13  14
ENDBRANCH  12  13
ENDBRANCH   9  12
BRANCH  10  18
HETATM   18  P   UNK N   1      20.324  15.912   1.018  0.00  0.00     0.273 P 
HETATM   19  O   UNK N   1      21.297  14.836   0.462  0.00  0.00    -0.650 OA
BRANCH  18  20
HETATM   20  O   UNK N   1      20.321  17.122  -0.227  0.00  0.00    -0.326 OA
HETATM   21  H   UNK N   1      20.597  17.576  -1.039  0.00  0.00     0.220 HD
ENDBRANCH  18  20
BRANCH  18  22
HETATM   22  O   UNK N   1      18.779  15.126   1.004  0.00  0.00    -0.326 OA
HETATM   23  H   UNK N   1      18.442  14.285   1.353  0.00  0.00     0.220 HD
ENDBRANCH  18  22
ENDBRANCH  10  18
ENDBRANCH   5   6
ENDBRANCH   4   5
BRANCH   4  24
HETATM   24  N   UNK N   1      25.740  14.732   3.820  0.00  0.00    -0.362 N 
HETATM   25  C   UNK N   1      25.836  14.289   2.604  0.00  0.00     0.107 C 
HETATM   26  C   UNK N   1      26.780  13.179   2.299  0.00  0.00     0.097 C 
ATOM     27  HN  UNK N   1      26.325  14.288   4.527  1.00  0.00     0.162 HD
BRANCH  25  28
HETATM   28  O   UNK N   1      25.126  14.842   1.599  0.00  0.00    -0.350 OA
HETATM   29  H   UNK N   1      24.873  14.791   0.698  0.00  0.00     0.219 HD
ENDBRANCH  25  28
ENDBRANCH   4  24
ENDBRANCH   1   4
BRANCH   1  30
HETATM   30  O   UNK N   1      25.749  16.773   6.345  0.00  0.00    -0.348 OA
HETATM   31  H   UNK N   1      25.518  16.327   7.136  0.00  0.00     0.219 HD
ENDBRANCH   1  30
BRANCH   2  32
HETATM   32  C   UNK N   1      26.657  19.111   4.855  0.00  0.00     0.112 C 
HETATM   33  C   UNK N   1      26.777  20.235   3.833  0.00  0.00     0.037 C 
BRANCH  32  34
HETATM   34  C   UNK N   1      28.009  18.739   5.389  0.00  0.00    -0.035 A 
HETATM   35  C   UNK N   1      28.907  18.070   4.555  0.00  0.00     0.012 A 
HETATM   36  C   UNK N   1      29.962  17.354   5.101  0.00  0.00     0.038 A 
HETATM   37  C   UNK N   1      30.156  17.287   6.483  0.00  0.00     0.083 A 
HETATM   38  C   UNK N   1      29.305  18.070   7.343  0.00  0.00     0.048 A 
HETATM   39  C   UNK N   1      28.238  18.772   6.757  0.00  0.00     0.027 A 
BRANCH  37  40
HETATM   40  O   UNK N   1      31.174  16.475   6.880  0.00  0.00    -0.350 OA
BRANCH  40  41
HETATM   41  C   UNK N   1      32.198  15.984   6.120  0.00  0.00     0.180 C 
BRANCH  41  42
HETATM   42  C   UNK N   1      33.506  16.458   6.700  0.00  0.00     0.010 C 
HETATM   43  C   UNK N   1      33.330  17.849   7.305  0.00  0.00     0.007 C 
HETATM   44  C   UNK N   1      34.536  18.178   8.171  0.00  0.00     0.000 C 
HETATM   45  C   UNK N   1      34.671  17.189   9.341  0.00  0.00     0.000 C 
HETATM   46  C   UNK N   1      33.914  15.871   9.129  0.00  0.00     0.000 C 
HETATM   47  C   UNK N   1      34.049  15.410   7.683  0.00  0.00     0.007 C 
ENDBRANCH  41  42
ENDBRANCH  40  41
ENDBRANCH  37  40
BRANCH  38  48
HETATM   48  C   UNK N   1      29.351  18.157   8.833  0.00  0.00     0.146 C 
HETATM   49  N   UNK N   1      28.264  18.301   9.493  0.00  0.00    -0.379 N 
HETATM   50  H   UNK N   1      28.205  18.970  10.213  0.00  0.00     0.158 HD
ATOM     51  HN  UNK N   1      27.455  17.719   9.273  1.00  0.00     0.158 HD
BRANCH  48  52
HETATM   52  O   UNK N   1      30.494  17.964   9.516  0.00  0.00    -0.346 OA
HETATM   53  H   UNK N   1      30.803  17.381  10.182  0.00  0.00     0.219 HD
ENDBRANCH  48  52
ENDBRANCH  38  48
ENDBRANCH  32  34
ENDBRANCH   2  32
TORSDOF 20
ENDMDL
MODEL 4
REMARK VINA RESULT:      -7.6      3.306      4.343
REMARK  20 active torsions:
REMARK  status: ('A' for Active; 'I' for Inactive)
REMARK    1  A    between atoms: C_20  and  C_12 
REMARK    2  A    between atoms: C_23  and  C_12 
REMARK    3  A    between atoms: C_19  and  C_15 
REMARK    4  A    between atoms: O_44  and  C_15 
REMARK    5  A    between atoms: C_27  and  C_16 
REMARK    6  A    between atoms: O_45  and  C_16 
REMARK    7  A    between atoms: C_21  and  C_17 
REMARK    8  A    between atoms: N_32  and  C_17 
REMARK    9  A    between atoms: O_36  and  C_18 
REMARK   10  A    between atoms: C_28  and  C_22 
REMARK   11  A    between atoms: C_29  and  C_23 
REMARK   12  A    between atoms: C_23  and  N_34 
REMARK   13  A    between atoms: O_44  and  C_24 
REMARK   14  A    between atoms: O_45  and  C_25 
REMARK   15  A    between atoms: P_46  and  C_26 
REMARK   16  A    between atoms: O_38  and  C_27 
REMARK   17  A    between atoms: O_39  and  C_28 
REMARK   18  A    between atoms: C_29  and  O_40 
REMARK   19  A    between atoms: P_46  and  O_41 
REMARK   20  A    between atoms: P_46  and  O_42 
ROOT
HETATM    1  C   UNK N   1      27.212  19.186   4.937  0.00  0.00     0.135 C 
HETATM    2  N   UNK N   1      25.988  18.878   4.679  0.00  0.00    -0.364 N 
ATOM      3  HN  UNK N   1      25.497  18.371   5.416  1.00  0.00     0.162 HD
ENDROOT
BRANCH   1   4
HETATM    4  C   UNK N   1      27.676  19.159   6.365  0.00  0.00     0.162 C 
BRANCH   4   5
HETATM    5  C   UNK N   1      27.899  17.748   6.964  0.00  0.00     0.072 C 
BRANCH   5   6
HETATM    6  C   UNK N   1      29.365  17.590   7.245  0.00  0.00    -0.054 A 
HETATM    7  C   UNK N   1      29.924  18.131   8.401  0.00  0.00     0.010 A 
HETATM    8  C   UNK N   1      31.215  17.758   8.785  0.00  0.00     0.038 A 
HETATM    9  C   UNK N   1      31.934  16.802   8.051  0.00  0.00     0.087 A 
HETATM   10  C   UNK N   1      31.379  16.300   6.842  0.00  0.00     0.083 A 
HETATM   11  C   UNK N   1      30.117  16.719   6.460  0.00  0.00     0.029 A 
BRANCH   9  12
HETATM   12  O   UNK N   1      33.124  16.389   8.546  0.00  0.00    -0.340 OA
BRANCH  12  13
HETATM   13  C   UNK N   1      34.025  17.263   9.106  0.00  0.00     0.285 C 
BRANCH  13  14
HETATM   14  C   UNK N   1      34.622  18.145   8.072  0.00  0.00     0.164 C 
HETATM   15  O   UNK N   1      35.073  19.231   8.393  0.00  0.00    -0.648 OA
BRANCH  14  16
HETATM   16  O   UNK N   1      34.640  17.762   6.784  0.00  0.00    -0.775 OA
HETATM   17  H   UNK N   1      34.176  16.992   6.517  0.00  0.00     0.167 HD
ENDBRANCH  14  16
ENDBRANCH  13  14
ENDBRANCH  12  13
ENDBRANCH   9  12
BRANCH  10  18
HETATM   18  P   UNK N   1      32.192  15.053   5.750  0.00  0.00     0.273 P 
HETATM   19  O   UNK N   1      31.980  15.446   4.263  0.00  0.00    -0.650 OA
BRANCH  18  20
HETATM   20  O   UNK N   1      31.505  13.460   5.839  0.00  0.00    -0.326 OA
HETATM   21  H   UNK N   1      30.952  12.738   6.175  0.00  0.00     0.220 HD
ENDBRANCH  18  20
BRANCH  18  22
HETATM   22  O   UNK N   1      33.912  14.902   5.901  0.00  0.00    -0.326 OA
HETATM   23  H   UNK N   1      34.646  14.835   5.269  0.00  0.00     0.220 HD
ENDBRANCH  18  22
ENDBRANCH  10  18
ENDBRANCH   5   6
ENDBRANCH   4   5
BRANCH   4  24
HETATM   24  N   UNK N   1      26.764  19.964   7.182  0.00  0.00    -0.362 N 
HETATM   25  C   UNK N   1      26.613  21.249   7.093  0.00  0.00     0.107 C 
HETATM   26  C   UNK N   1      25.640  21.937   7.985  0.00  0.00     0.097 C 
ATOM     27  HN  UNK N   1      26.201  19.473   7.877  1.00  0.00     0.162 HD
BRANCH  25  28
HETATM   28  O   UNK N   1      27.292  21.973   6.179  0.00  0.00    -0.350 OA
HETATM   29  H   UNK N   1      27.262  22.424   5.358  0.00  0.00     0.219 HD
ENDBRANCH  25  28
ENDBRANCH   4  24
ENDBRANCH   1   4
BRANCH   1  30
HETATM   30  O   UNK N   1      28.033  19.681   3.989  0.00  0.00    -0.348 OA
HETATM   31  H   UNK N   1      28.180  20.304   3.305  0.00  0.00     0.219 HD
ENDBRANCH   1  30
BRANCH   2  32
HETATM   32  C   UNK N   1      25.209  19.154   3.480  0.00  0.00     0.112 C 
HETATM   33  C   UNK N   1      25.219  20.601   3.001  0.00  0.00     0.037 C 
BRANCH  32  34
HETATM   34  C   UNK N   1      23.825  18.745   3.886  0.00  0.00    -0.035 A 
HETATM   35  C   UNK N   1      23.624  17.471   4.423  0.00  0.00     0.012 A 
HETATM   36  C   UNK N   1      22.358  16.906   4.419  0.00  0.00     0.038 A 
HETATM   37  C   UNK N   1      21.260  17.587   3.888  0.00  0.00     0.083 A 
HETATM   38  C   UNK N   1      21.436  18.946   3.441  0.00  0.00     0.048 A 
HETATM   39  C   UNK N   1      22.735  19.482   3.446  0.00  0.00     0.027 A 
BRANCH  37  40
HETATM   40  O   UNK N   1      20.099  16.876   3.866  0.00  0.00    -0.350 OA
BRANCH  40  41
HETATM   41  C   UNK N   1      19.876  15.624   4.365  0.00  0.00     0.180 C 
BRANCH  41  42
HETATM   42  C   UNK N   1      19.830  14.644   3.221  0.00  0.00     0.010 C 
HETATM   43  C   UNK N   1      19.732  15.400   1.897  0.00  0.00     0.007 C 
HETATM   44  C   UNK N   1      20.022  14.445   0.750  0.00  0.00     0.000 C 
HETATM   45  C   UNK N   1      21.447  13.875   0.842  0.00  0.00     0.000 C 
HETATM   46  C   UNK N   1      22.070  13.987   2.240  0.00  0.00     0.000 C 
HETATM   47  C   UNK N   1      21.026  13.686   3.309  0.00  0.00     0.007 C 
ENDBRANCH  41  42
ENDBRANCH  40  41
ENDBRANCH  37  40
BRANCH  38  48
HETATM   48  C   UNK N   1      20.401  19.854   2.861  0.00  0.00     0.146 C 
HETATM   49  N   UNK N   1      20.688  21.082   2.639  0.00  0.00    -0.379 N 
HETATM   50  H   UNK N   1      20.068  21.795   2.917  0.00  0.00     0.158 HD
ATOM     51  HN  UNK N   1      21.562  21.322   2.171  1.00  0.00     0.158 HD
BRANCH  48  52
HETATM   52  O   UNK N   1      19.207  19.391   2.450  0.00  0.00    -0.346 OA
HETATM   53  H   UNK N   1      18.821  18.555   2.275  0.00  0.00     0.219 HD
ENDBRANCH  48  52
ENDBRANCH  38  48
ENDBRANCH  32  34
ENDBRANCH   2  32
TORSDOF 20
ENDMDL
MODEL 5
REMARK VINA RESULT:      -7.5      6.959     11.929
REMARK  20 active torsions:
REMARK  status: ('A' for Active; 'I' for Inactive)
REMARK    1  A    between atoms: C_20  and  C_12 
REMARK    2  A    between atoms: C_23  and  C_12 
REMARK    3  A    between atoms: C_19  and  C_15 
REMARK    4  A    between atoms: O_44  and  C_15 
REMARK    5  A    between atoms: C_27  and  C_16 
REMARK    6  A    between atoms: O_45  and  C_16 
REMARK    7  A    between atoms: C_21  and  C_17 
REMARK    8  A    between atoms: N_32  and  C_17 
REMARK    9  A    between atoms: O_36  and  C_18 
REMARK   10  A    between atoms: C_28  and  C_22 
REMARK   11  A    between atoms: C_29  and  C_23 
REMARK   12  A    between atoms: C_23  and  N_34 
REMARK   13  A    between atoms: O_44  and  C_24 
REMARK   14  A    between atoms: O_45  and  C_25 
REMARK   15  A    between atoms: P_46  and  C_26 
REMARK   16  A    between atoms: O_38  and  C_27 
REMARK   17  A    between atoms: O_39  and  C_28 
REMARK   18  A    between atoms: C_29  and  O_40 
REMARK   19  A    between atoms: P_46  and  O_41 
REMARK   20  A    between atoms: P_46  and  O_42 
ROOT
HETATM    1  C   UNK N   1      34.232  14.251   7.543  0.00  0.00     0.135 C 
HETATM    2  N   UNK N   1      34.483  13.310   8.388  0.00  0.00    -0.364 N 
ATOM      3  HN  UNK N   1      34.652  13.614   9.347  1.00  0.00     0.162 HD
ENDROOT
BRANCH   1   4
HETATM    4  C   UNK N   1      33.814  15.595   8.066  0.00  0.00     0.162 C 
BRANCH   4   5
HETATM    5  C   UNK N   1      33.782  16.734   7.016  0.00  0.00     0.072 C 
BRANCH   5   6
HETATM    6  C   UNK N   1      32.357  17.178   6.857  0.00  0.00    -0.054 A 
HETATM    7  C   UNK N   1      31.749  17.161   5.603  0.00  0.00     0.010 A 
HETATM    8  C   UNK N   1      30.363  17.318   5.504  0.00  0.00     0.038 A 
HETATM    9  C   UNK N   1      29.571  17.436   6.656  0.00  0.00     0.087 A 
HETATM   10  C   UNK N   1      30.206  17.510   7.926  0.00  0.00     0.083 A 
HETATM   11  C   UNK N   1      31.584  17.397   7.994  0.00  0.00     0.029 A 
BRANCH   9  12
HETATM   12  O   UNK N   1      28.227  17.455   6.500  0.00  0.00    -0.340 OA
BRANCH  12  13
HETATM   13  C   UNK N   1      27.558  18.575   6.066  0.00  0.00     0.285 C 
BRANCH  13  14
HETATM   14  C   UNK N   1      27.326  18.521   4.601  0.00  0.00     0.164 C 
HETATM   15  O   UNK N   1      26.553  17.698   4.143  0.00  0.00    -0.648 OA
BRANCH  14  16
HETATM   16  O   UNK N   1      27.987  19.356   3.781  0.00  0.00    -0.775 OA
HETATM   17  H   UNK N   1      27.619  20.191   3.565  0.00  0.00     0.167 HD
ENDBRANCH  14  16
ENDBRANCH  13  14
ENDBRANCH  12  13
ENDBRANCH   9  12
BRANCH  10  18
HETATM   18  P   UNK N   1      29.320  17.679   9.537  0.00  0.00     0.273 P 
HETATM   19  O   UNK N   1      29.732  19.011  10.221  0.00  0.00    -0.650 OA
BRANCH  18  20
HETATM   20  O   UNK N   1      29.742  16.481  10.721  0.00  0.00    -0.326 OA
HETATM   21  H   UNK N   1      30.279  15.805  11.163  0.00  0.00     0.220 HD
ENDBRANCH  18  20
BRANCH  18  22
HETATM   22  O   UNK N   1      27.590  17.767   9.459  0.00  0.00    -0.326 OA
HETATM   23  H   UNK N   1      26.899  17.208   9.068  0.00  0.00     0.220 HD
ENDBRANCH  18  22
ENDBRANCH  10  18
ENDBRANCH   5   6
ENDBRANCH   4   5
BRANCH   4  24
HETATM   24  N   UNK N   1      34.641  15.939   9.225  0.00  0.00    -0.362 N 
HETATM   25  C   UNK N   1      34.363  15.649  10.458  0.00  0.00     0.107 C 
HETATM   26  C   UNK N   1      35.303  16.056  11.538  0.00  0.00     0.097 C 
ATOM     27  HN  UNK N   1      35.507  16.447   9.047  1.00  0.00     0.162 HD
BRANCH  25  28
HETATM   28  O   UNK N   1      33.255  14.949  10.781  0.00  0.00    -0.350 OA
HETATM   29  H   UNK N   1      32.484  14.904  11.310  0.00  0.00     0.219 HD
ENDBRANCH  25  28
ENDBRANCH   4  24
ENDBRANCH   1   4
BRANCH   1  30
HETATM   30  O   UNK N   1      34.181  14.016   6.217  0.00  0.00    -0.348 OA
HETATM   31  H   UNK N   1      34.638  13.919   5.404  0.00  0.00     0.219 HD
ENDBRANCH   1  30
BRANCH   2  32
HETATM   32  C   UNK N   1      34.558  11.874   8.160  0.00  0.00     0.112 C 
HETATM   33  C   UNK N   1      33.290  11.220   7.622  0.00  0.00     0.037 C 
BRANCH  32  34
HETATM   34  C   UNK N   1      34.884  11.342   9.524  0.00  0.00    -0.035 A 
HETATM   35  C   UNK N   1      33.947  10.542  10.182  0.00  0.00     0.012 A 
HETATM   36  C   UNK N   1      34.012  10.383  11.558  0.00  0.00     0.038 A 
HETATM   37  C   UNK N   1      35.007  11.007  12.315  0.00  0.00     0.083 A 
HETATM   38  C   UNK N   1      36.045  11.737  11.632  0.00  0.00     0.048 A 
HETATM   39  C   UNK N   1      35.939  11.890  10.239  0.00  0.00     0.027 A 
BRANCH  37  40
HETATM   40  O   UNK N   1      34.894  10.838  13.662  0.00  0.00    -0.350 OA
BRANCH  40  41
HETATM   41  C   UNK N   1      34.209  11.621  14.548  0.00  0.00     0.180 C 
BRANCH  41  42
HETATM   42  C   UNK N   1      35.149  12.051  15.645  0.00  0.00     0.010 C 
HETATM   43  C   UNK N   1      34.437  13.019  16.587  0.00  0.00     0.007 C 
HETATM   44  C   UNK N   1      35.259  13.185  17.855  0.00  0.00     0.000 C 
HETATM   45  C   UNK N   1      35.407  11.850  18.605  0.00  0.00     0.000 C 
HETATM   46  C   UNK N   1      35.140  10.617  17.732  0.00  0.00     0.000 C 
HETATM   47  C   UNK N   1      35.734  10.814  16.343  0.00  0.00     0.007 C 
ENDBRANCH  41  42
ENDBRANCH  40  41
ENDBRANCH  37  40
BRANCH  38  48
HETATM   48  C   UNK N   1      37.201  12.459  12.242  0.00  0.00     0.146 C 
HETATM   49  N   UNK N   1      37.792  11.959  13.263  0.00  0.00    -0.379 N 
HETATM   50  H   UNK N   1      38.003  12.525  14.041  0.00  0.00     0.158 HD
ATOM     51  HN  UNK N   1      38.046  10.971  13.269  1.00  0.00     0.158 HD
BRANCH  48  52
HETATM   52  O   UNK N   1      37.722  13.563  11.678  0.00  0.00    -0.346 OA
HETATM   53  H   UNK N   1      37.509  14.131  10.964  0.00  0.00     0.219 HD
ENDBRANCH  48  52
ENDBRANCH  38  48
ENDBRANCH  32  34
ENDBRANCH   2  32
TORSDOF 20
ENDMDL
MODEL 6
REMARK VINA RESULT:      -7.4      6.479     12.067
REMARK  20 active torsions:
REMARK  status: ('A' for Active; 'I' for Inactive)
REMARK    1  A    between atoms: C_20  and  C_12 
REMARK    2  A    between atoms: C_23  and  C_12 
REMARK    3  A    between atoms: C_19  and  C_15 
REMARK    4  A    between atoms: O_44  and  C_15 
REMARK    5  A    between atoms: C_27  and  C_16 
REMARK    6  A    between atoms: O_45  and  C_16 
REMARK    7  A    between atoms: C_21  and  C_17 
REMARK    8  A    between atoms: N_32  and  C_17 
REMARK    9  A    between atoms: O_36  and  C_18 
REMARK   10  A    between atoms: C_28  and  C_22 
REMARK   11  A    between atoms: C_29  and  C_23 
REMARK   12  A    between atoms: C_23  and  N_34 
REMARK   13  A    between atoms: O_44  and  C_24 
REMARK   14  A    between atoms: O_45  and  C_25 
REMARK   15  A    between atoms: P_46  and  C_26 
REMARK   16  A    between atoms: O_38  and  C_27 
REMARK   17  A    between atoms: O_39  and  C_28 
REMARK   18  A    between atoms: C_29  and  O_40 
REMARK   19  A    between atoms: P_46  and  O_41 
REMARK   20  A    between atoms: P_46  and  O_42 
ROOT
HETATM    1  C   UNK N   1      33.043  13.896   8.385  0.00  0.00     0.135 C 
HETATM    2  N   UNK N   1      33.893  13.183   7.729  0.00  0.00    -0.364 N 
ATOM      3  HN  UNK N   1      34.483  13.696   7.073  1.00  0.00     0.162 HD
ENDROOT
BRANCH   1   4
HETATM    4  C   UNK N   1      33.249  15.382   8.454  0.00  0.00     0.162 C 
BRANCH   4   5
HETATM    5  C   UNK N   1      33.342  16.102   7.085  0.00  0.00     0.072 C 
BRANCH   5   6
HETATM    6  C   UNK N   1      32.052  16.836   6.860  0.00  0.00    -0.054 A 
HETATM    7  C   UNK N   1      31.530  16.966   5.574  0.00  0.00     0.010 A 
HETATM    8  C   UNK N   1      30.216  17.410   5.403  0.00  0.00     0.038 A 
HETATM    9  C   UNK N   1      29.397  17.673   6.512  0.00  0.00     0.087 A 
HETATM   10  C   UNK N   1      29.956  17.593   7.817  0.00  0.00     0.083 A 
HETATM   11  C   UNK N   1      31.274  17.193   7.957  0.00  0.00     0.029 A 
BRANCH   9  12
HETATM   12  O   UNK N   1      28.098  17.974   6.282  0.00  0.00    -0.340 OA
BRANCH  12  13
HETATM   13  C   UNK N   1      27.249  17.104   5.640  0.00  0.00     0.285 C 
BRANCH  13  14
HETATM   14  C   UNK N   1      27.005  15.895   6.466  0.00  0.00     0.164 C 
HETATM   15  O   UNK N   1      27.226  14.791   5.999  0.00  0.00    -0.648 OA
BRANCH  14  16
HETATM   16  O   UNK N   1      26.513  16.015   7.711  0.00  0.00    -0.775 OA
HETATM   17  H   UNK N   1      25.760  16.551   7.869  0.00  0.00     0.167 HD
ENDBRANCH  14  16
ENDBRANCH  13  14
ENDBRANCH  12  13
ENDBRANCH   9  12
BRANCH  10  18
HETATM   18  P   UNK N   1      29.029  17.917   9.381  0.00  0.00     0.273 P 
HETATM   19  O   UNK N   1      28.795  16.580  10.134  0.00  0.00    -0.650 OA
BRANCH  18  20
HETATM   20  O   UNK N   1      27.420  18.529   9.151  0.00  0.00    -0.326 OA
HETATM   21  H   UNK N   1      26.555  18.892   9.395  0.00  0.00     0.220 HD
ENDBRANCH  18  20
BRANCH  18  22
HETATM   22  O   UNK N   1      29.821  18.922  10.551  0.00  0.00    -0.326 OA
HETATM   23  H   UNK N   1      30.512  19.603  10.504  0.00  0.00     0.220 HD
ENDBRANCH  18  22
ENDBRANCH  10  18
ENDBRANCH   5   6
ENDBRANCH   4   5
BRANCH   4  24
HETATM   24  N   UNK N   1      34.407  15.668   9.304  0.00  0.00    -0.362 N 
HETATM   25  C   UNK N   1      34.468  15.459  10.583  0.00  0.00     0.107 C 
HETATM   26  C   UNK N   1      35.718  15.791  11.322  0.00  0.00     0.097 C 
ATOM     27  HN  UNK N   1      35.233  16.062   8.854  1.00  0.00     0.162 HD
BRANCH  25  28
HETATM   28  O   UNK N   1      33.436  14.908  11.254  0.00  0.00    -0.350 OA
HETATM   29  H   UNK N   1      33.039  14.122  11.573  0.00  0.00     0.219 HD
ENDBRANCH  25  28
ENDBRANCH   4  24
ENDBRANCH   1   4
BRANCH   1  30
HETATM   30  O   UNK N   1      32.076  13.331   9.136  0.00  0.00    -0.348 OA
HETATM   31  H   UNK N   1      31.447  13.417   9.825  0.00  0.00     0.219 HD
ENDBRANCH   1  30
BRANCH   2  32
HETATM   32  C   UNK N   1      34.126  11.748   7.795  0.00  0.00     0.112 C 
HETATM   33  C   UNK N   1      32.886  10.883   7.994  0.00  0.00     0.037 C 
BRANCH  32  34
HETATM   34  C   UNK N   1      35.051  11.619   8.969  0.00  0.00    -0.035 A 
HETATM   35  C   UNK N   1      34.526  11.243  10.207  0.00  0.00     0.012 A 
HETATM   36  C   UNK N   1      35.230  11.512  11.371  0.00  0.00     0.038 A 
HETATM   37  C   UNK N   1      36.470  12.154  11.338  0.00  0.00     0.083 A 
HETATM   38  C   UNK N   1      37.071  12.439  10.059  0.00  0.00     0.048 A 
HETATM   39  C   UNK N   1      36.324  12.166   8.902  0.00  0.00     0.027 A 
BRANCH  37  40
HETATM   40  O   UNK N   1      37.003  12.437  12.559  0.00  0.00    -0.350 OA
BRANCH  40  41
HETATM   41  C   UNK N   1      37.558  11.563  13.451  0.00  0.00     0.180 C 
BRANCH  41  42
HETATM   42  C   UNK N   1      37.001  11.848  14.823  0.00  0.00     0.010 C 
HETATM   43  C   UNK N   1      36.754  13.347  14.979  0.00  0.00     0.007 C 
HETATM   44  C   UNK N   1      35.894  13.590  16.210  0.00  0.00     0.000 C 
HETATM   45  C   UNK N   1      34.519  12.915  16.074  0.00  0.00     0.000 C 
HETATM   46  C   UNK N   1      34.478  11.800  15.022  0.00  0.00     0.000 C 
HETATM   47  C   UNK N   1      35.760  10.979  15.071  0.00  0.00     0.007 C 
ENDBRANCH  41  42
ENDBRANCH  40  41
ENDBRANCH  37  40
BRANCH  38  48
HETATM   48  C   UNK N   1      38.386  13.099   9.800  0.00  0.00     0.146 C 
HETATM   49  N   UNK N   1      38.806  13.222   8.597  0.00  0.00    -0.379 N 
HETATM   50  H   UNK N   1      39.735  12.989   8.369  0.00  0.00     0.158 HD
ATOM     51  HN  UNK N   1      38.175  13.563   7.871  1.00  0.00     0.158 HD
BRANCH  48  52
HETATM   52  O   UNK N   1      39.091  13.681  10.786  0.00  0.00    -0.346 OA
HETATM   53  H   UNK N   1      39.048  13.727  11.721  0.00  0.00     0.219 HD
ENDBRANCH  48  52
ENDBRANCH  38  48
ENDBRANCH  32  34
ENDBRANCH   2  32
TORSDOF 20
ENDMDL
MODEL 7
REMARK VINA RESULT:      -7.4      4.036      9.179
REMARK  20 active torsions:
REMARK  status: ('A' for Active; 'I' for Inactive)
REMARK    1  A    between atoms: C_20  and  C_12 
REMARK    2  A    between atoms: C_23  and  C_12 
REMARK    3  A    between atoms: C_19  and  C_15 
REMARK    4  A    between atoms: O_44  and  C_15 
REMARK    5  A    between atoms: C_27  and  C_16 
REMARK    6  A    between atoms: O_45  and  C_16 
REMARK    7  A    between atoms: C_21  and  C_17 
REMARK    8  A    between atoms: N_32  and  C_17 
REMARK    9  A    between atoms: O_36  and  C_18 
REMARK   10  A    between atoms: C_28  and  C_22 
REMARK   11  A    between atoms: C_29  and  C_23 
REMARK   12  A    between atoms: C_23  and  N_34 
REMARK   13  A    between atoms: O_44  and  C_24 
REMARK   14  A    between atoms: O_45  and  C_25 
REMARK   15  A    between atoms: P_46  and  C_26 
REMARK   16  A    between atoms: O_38  and  C_27 
REMARK   17  A    between atoms: O_39  and  C_28 
REMARK   18  A    between atoms: C_29  and  O_40 
REMARK   19  A    between atoms: P_46  and  O_41 
REMARK   20  A    between atoms: P_46  and  O_42 
ROOT
HETATM    1  C   UNK N   1      19.903  17.057   2.273  0.00  0.00     0.135 C 
HETATM    2  N   UNK N   1      20.588  17.822   3.051  0.00  0.00    -0.364 N 
ATOM      3  HN  UNK N   1      20.984  17.370   3.876  1.00  0.00     0.162 HD
ENDROOT
BRANCH   1   4
HETATM    4  C   UNK N   1      20.073  15.569   2.393  0.00  0.00     0.162 C 
BRANCH   4   5
HETATM    5  C   UNK N   1      21.538  15.077   2.508  0.00  0.00     0.072 C 
BRANCH   5   6
HETATM    6  C   UNK N   1      21.707  14.436   3.854  0.00  0.00    -0.054 A 
HETATM    7  C   UNK N   1      22.742  13.531   4.080  0.00  0.00     0.010 A 
HETATM    8  C   UNK N   1      23.052  13.147   5.388  0.00  0.00     0.038 A 
HETATM    9  C   UNK N   1      22.371  13.705   6.481  0.00  0.00     0.087 A 
HETATM   10  C   UNK N   1      21.279  14.583   6.237  0.00  0.00     0.083 A 
HETATM   11  C   UNK N   1      20.963  14.913   4.931  0.00  0.00     0.029 A 
BRANCH   9  12
HETATM   12  O   UNK N   1      22.804  13.390   7.723  0.00  0.00    -0.340 OA
BRANCH  12  13
HETATM   13  C   UNK N   1      22.544  12.170   8.300  0.00  0.00     0.285 C 
BRANCH  13  14
HETATM   14  C   UNK N   1      22.443  12.291   9.776  0.00  0.00     0.164 C 
HETATM   15  O   UNK N   1      22.253  13.385  10.280  0.00  0.00    -0.648 OA
BRANCH  14  16
HETATM   16  O   UNK N   1      22.589  11.206  10.556  0.00  0.00    -0.775 OA
HETATM   17  H   UNK N   1      22.710  11.305  11.480  0.00  0.00     0.167 HD
ENDBRANCH  14  16
ENDBRANCH  13  14
ENDBRANCH  12  13
ENDBRANCH   9  12
BRANCH  10  18
HETATM   18  P   UNK N   1      20.268  15.394   7.553  0.00  0.00     0.273 P 
HETATM   19  O   UNK N   1      18.910  15.851   6.957  0.00  0.00    -0.650 OA
BRANCH  18  20
HETATM   20  O   UNK N   1      20.943  16.868   8.174  0.00  0.00    -0.326 OA
HETATM   21  H   UNK N   1      21.508  17.438   8.720  0.00  0.00     0.220 HD
ENDBRANCH  18  20
BRANCH  18  22
HETATM   22  O   UNK N   1      19.821  14.401   8.901  0.00  0.00    -0.326 OA
HETATM   23  H   UNK N   1      18.976  14.085   9.261  0.00  0.00     0.220 HD
ENDBRANCH  18  22
ENDBRANCH  10  18
ENDBRANCH   5   6
ENDBRANCH   4   5
BRANCH   4  24
HETATM   24  N   UNK N   1      19.358  14.913   1.295  0.00  0.00    -0.362 N 
HETATM   25  C   UNK N   1      18.671  13.818   1.397  0.00  0.00     0.107 C 
HETATM   26  C   UNK N   1      17.987  13.267   0.195  0.00  0.00     0.097 C 
ATOM     27  HN  UNK N   1      19.403  15.355   0.378  1.00  0.00     0.162 HD
BRANCH  25  28
HETATM   28  O   UNK N   1      18.530  13.185   2.580  0.00  0.00    -0.350 OA
HETATM   29  H   UNK N   1      18.585  12.375   3.047  0.00  0.00     0.219 HD
ENDBRANCH  25  28
ENDBRANCH   4  24
ENDBRANCH   1   4
BRANCH   1  30
HETATM   30  O   UNK N   1      19.167  17.554   1.259  0.00  0.00    -0.348 OA
HETATM   31  H   UNK N   1      18.881  17.483   0.369  0.00  0.00     0.219 HD
ENDBRANCH   1  30
BRANCH   2  32
HETATM   32  C   UNK N   1      20.874  19.243   2.914  0.00  0.00     0.112 C 
HETATM   33  C   UNK N   1      20.771  19.808   1.502  0.00  0.00     0.037 C 
BRANCH  32  34
HETATM   34  C   UNK N   1      22.283  19.344   3.418  0.00  0.00    -0.035 A 
HETATM   35  C   UNK N   1      23.085  20.402   2.983  0.00  0.00     0.012 A 
HETATM   36  C   UNK N   1      24.466  20.311   3.075  0.00  0.00     0.038 A 
HETATM   37  C   UNK N   1      25.086  19.176   3.604  0.00  0.00     0.083 A 
HETATM   38  C   UNK N   1      24.264  18.132   4.163  0.00  0.00     0.048 A 
HETATM   39  C   UNK N   1      22.869  18.251   4.039  0.00  0.00     0.027 A 
BRANCH  37  40
HETATM   40  O   UNK N   1      26.446  19.187   3.548  0.00  0.00    -0.350 OA
BRANCH  40  41
HETATM   41  C   UNK N   1      27.286  20.230   3.819  0.00  0.00     0.180 C 
BRANCH  41  42
HETATM   42  C   UNK N   1      28.123  19.881   5.023  0.00  0.00     0.010 C 
HETATM   43  C   UNK N   1      27.292  20.040   6.294  0.00  0.00     0.007 C 
HETATM   44  C   UNK N   1      28.017  19.378   7.455  0.00  0.00     0.000 C 
HETATM   45  C   UNK N   1      28.194  17.869   7.216  0.00  0.00     0.000 C 
HETATM   46  C   UNK N   1      28.062  17.455   5.745  0.00  0.00     0.000 C 
HETATM   47  C   UNK N   1      28.734  18.484   4.844  0.00  0.00     0.007 C 
ENDBRANCH  41  42
ENDBRANCH  40  41
ENDBRANCH  37  40
BRANCH  38  48
HETATM   48  C   UNK N   1      24.718  16.854   4.787  0.00  0.00     0.146 C 
HETATM   49  N   UNK N   1      24.387  16.587   5.995  0.00  0.00    -0.379 N 
HETATM   50  H   UNK N   1      25.061  16.257   6.633  0.00  0.00     0.158 HD
ATOM     51  HN  UNK N   1      23.422  16.718   6.298  1.00  0.00     0.158 HD
BRANCH  48  52
HETATM   52  O   UNK N   1      25.365  15.912   4.078  0.00  0.00    -0.346 OA
HETATM   53  H   UNK N   1      26.039  15.889   3.427  0.00  0.00     0.219 HD
ENDBRANCH  48  52
ENDBRANCH  38  48
ENDBRANCH  32  34
ENDBRANCH   2  32
TORSDOF 20
ENDMDL
MODEL 8
REMARK VINA RESULT:      -7.3      6.508     11.587
REMARK  20 active torsions:
REMARK  status: ('A' for Active; 'I' for Inactive)
REMARK    1  A    between atoms: C_20  and  C_12 
REMARK    2  A    between atoms: C_23  and  C_12 
REMARK    3  A    between atoms: C_19  and  C_15 
REMARK    4  A    between atoms: O_44  and  C_15 
REMARK    5  A    between atoms: C_27  and  C_16 
REMARK    6  A    between atoms: O_45  and  C_16 
REMARK    7  A    between atoms: C_21  and  C_17 
REMARK    8  A    between atoms: N_32  and  C_17 
REMARK    9  A    between atoms: O_36  and  C_18 
REMARK   10  A    between atoms: C_28  and  C_22 
REMARK   11  A    between atoms: C_29  and  C_23 
REMARK   12  A    between atoms: C_23  and  N_34 
REMARK   13  A    between atoms: O_44  and  C_24 
REMARK   14  A    between atoms: O_45  and  C_25 
REMARK   15  A    between atoms: P_46  and  C_26 
REMARK   16  A    between atoms: O_38  and  C_27 
REMARK   17  A    between atoms: O_39  and  C_28 
REMARK   18  A    between atoms: C_29  and  O_40 
REMARK   19  A    between atoms: P_46  and  O_41 
REMARK   20  A    between atoms: P_46  and  O_42 
ROOT
HETATM    1  C   UNK N   1      34.943  15.161   6.431  0.00  0.00     0.135 C 
HETATM    2  N   UNK N   1      34.967  14.834   7.677  0.00  0.00    -0.364 N 
ATOM      3  HN  UNK N   1      34.068  14.872   8.159  1.00  0.00     0.162 HD
ENDROOT
BRANCH   1   4
HETATM    4  C   UNK N   1      33.624  15.165   5.712  0.00  0.00     0.162 C 
BRANCH   4   5
HETATM    5  C   UNK N   1      32.397  14.777   6.574  0.00  0.00     0.072 C 
BRANCH   5   6
HETATM    6  C   UNK N   1      31.407  15.902   6.504  0.00  0.00    -0.054 A 
HETATM    7  C   UNK N   1      30.840  16.267   5.285  0.00  0.00     0.010 A 
HETATM    8  C   UNK N   1      29.736  17.124   5.265  0.00  0.00     0.038 A 
HETATM    9  C   UNK N   1      29.156  17.576   6.460  0.00  0.00     0.087 A 
HETATM   10  C   UNK N   1      29.777  17.245   7.696  0.00  0.00     0.083 A 
HETATM   11  C   UNK N   1      30.896  16.430   7.686  0.00  0.00     0.029 A 
BRANCH   9  12
HETATM   12  O   UNK N   1      28.014  18.297   6.377  0.00  0.00    -0.340 OA
BRANCH  12  13
HETATM   13  C   UNK N   1      28.022  19.666   6.252  0.00  0.00     0.285 C 
BRANCH  13  14
HETATM   14  C   UNK N   1      27.401  20.086   4.971  0.00  0.00     0.164 C 
HETATM   15  O   UNK N   1      26.341  20.688   4.984  0.00  0.00    -0.648 OA
BRANCH  14  16
HETATM   16  O   UNK N   1      27.988  19.779   3.802  0.00  0.00    -0.775 OA
HETATM   17  H   UNK N   1      28.898  19.553   3.779  0.00  0.00     0.167 HD
ENDBRANCH  14  16
ENDBRANCH  13  14
ENDBRANCH  12  13
ENDBRANCH   9  12
BRANCH  10  18
HETATM   18  P   UNK N   1      29.158  17.764   9.357  0.00  0.00     0.273 P 
HETATM   19  O   UNK N   1      29.895  19.055   9.806  0.00  0.00    -0.650 OA
BRANCH  18  20
HETATM   20  O   UNK N   1      29.505  16.645  10.638  0.00  0.00    -0.326 OA
HETATM   21  H   UNK N   1      29.331  15.973  11.315  0.00  0.00     0.220 HD
ENDBRANCH  18  20
BRANCH  18  22
HETATM   22  O   UNK N   1      27.480  18.186   9.455  0.00  0.00    -0.326 OA
HETATM   23  H   UNK N   1      26.965  18.798  10.005  0.00  0.00     0.220 HD
ENDBRANCH  18  22
ENDBRANCH  10  18
ENDBRANCH   5   6
ENDBRANCH   4   5
BRANCH   4  24
HETATM   24  N   UNK N   1      33.732  14.339   4.506  0.00  0.00    -0.362 N 
HETATM   25  C   UNK N   1      33.651  14.776   3.288  0.00  0.00     0.107 C 
HETATM   26  C   UNK N   1      33.788  13.820   2.155  0.00  0.00     0.097 C 
ATOM     27  HN  UNK N   1      33.884  13.339   4.636  1.00  0.00     0.162 HD
BRANCH  25  28
HETATM   28  O   UNK N   1      33.487  16.088   3.023  0.00  0.00    -0.350 OA
HETATM   29  H   UNK N   1      33.882  16.883   2.721  0.00  0.00     0.219 HD
ENDBRANCH  25  28
ENDBRANCH   4  24
ENDBRANCH   1   4
BRANCH   1  30
HETATM   30  O   UNK N   1      36.077  15.342   5.725  0.00  0.00    -0.348 OA
HETATM   31  H   UNK N   1      36.917  15.017   5.465  0.00  0.00     0.219 HD
ENDBRANCH   1  30
BRANCH   2  32
HETATM   32  C   UNK N   1      36.100  14.418   8.491  0.00  0.00     0.112 C 
HETATM   33  C   UNK N   1      36.838  13.172   8.014  0.00  0.00     0.037 C 
BRANCH  32  34
HETATM   34  C   UNK N   1      35.469  14.174   9.830  0.00  0.00    -0.035 A 
HETATM   35  C   UNK N   1      35.592  15.146  10.825  0.00  0.00     0.012 A 
HETATM   36  C   UNK N   1      35.407  14.807  12.157  0.00  0.00     0.038 A 
HETATM   37  C   UNK N   1      35.091  13.499  12.535  0.00  0.00     0.083 A 
HETATM   38  C   UNK N   1      34.846  12.518  11.508  0.00  0.00     0.048 A 
HETATM   39  C   UNK N   1      35.058  12.893  10.171  0.00  0.00     0.027 A 
BRANCH  37  40
HETATM   40  O   UNK N   1      35.029  13.291  13.880  0.00  0.00    -0.350 OA
BRANCH  40  41
HETATM   41  C   UNK N   1      35.927  12.623  14.664  0.00  0.00     0.180 C 
BRANCH  41  42
HETATM   42  C   UNK N   1      35.204  12.059  15.860  0.00  0.00     0.010 C 
HETATM   43  C   UNK N   1      36.164  11.213  16.694  0.00  0.00     0.007 C 
HETATM   44  C   UNK N   1      35.537  10.928  18.050  0.00  0.00     0.000 C 
HETATM   45  C   UNK N   1      35.282  12.227  18.832  0.00  0.00     0.000 C 
HETATM   46  C   UNK N   1      35.250  13.484  17.953  0.00  0.00     0.000 C 
HETATM   47  C   UNK N   1      34.528  13.194  16.642  0.00  0.00     0.007 C 
ENDBRANCH  41  42
ENDBRANCH  40  41
ENDBRANCH  37  40
BRANCH  38  48
HETATM   48  C   UNK N   1      34.482  11.081  11.692  0.00  0.00     0.146 C 
HETATM   49  N   UNK N   1      35.001  10.194  10.929  0.00  0.00    -0.379 N 
HETATM   50  H   UNK N   1      34.436   9.500  10.518  0.00  0.00     0.158 HD
ATOM     51  HN  UNK N   1      36.005  10.206  10.745  1.00  0.00     0.158 HD
BRANCH  48  52
HETATM   52  O   UNK N   1      33.716  10.673  12.719  0.00  0.00    -0.346 OA
HETATM   53  H   UNK N   1      33.799  10.082  13.441  0.00  0.00     0.219 HD
ENDBRANCH  48  52
ENDBRANCH  38  48
ENDBRANCH  32  34
ENDBRANCH   2  32
TORSDOF 20
ENDMDL
MODEL 9
REMARK VINA RESULT:      -7.3      4.769      9.676
REMARK  20 active torsions:
REMARK  status: ('A' for Active; 'I' for Inactive)
REMARK    1  A    between atoms: C_20  and  C_12 
REMARK    2  A    between atoms: C_23  and  C_12 
REMARK    3  A    between atoms: C_19  and  C_15 
REMARK    4  A    between atoms: O_44  and  C_15 
REMARK    5  A    between atoms: C_27  and  C_16 
REMARK    6  A    between atoms: O_45  and  C_16 
REMARK    7  A    between atoms: C_21  and  C_17 
REMARK    8  A    between atoms: N_32  and  C_17 
REMARK    9  A    between atoms: O_36  and  C_18 
REMARK   10  A    between atoms: C_28  and  C_22 
REMARK   11  A    between atoms: C_29  and  C_23 
REMARK   12  A    between atoms: C_23  and  N_34 
REMARK   13  A    between atoms: O_44  and  C_24 
REMARK   14  A    between atoms: O_45  and  C_25 
REMARK   15  A    between atoms: P_46  and  C_26 
REMARK   16  A    between atoms: O_38  and  C_27 
REMARK   17  A    between atoms: O_39  and  C_28 
REMARK   18  A    between atoms: C_29  and  O_40 
REMARK   19  A    between atoms: P_46  and  O_41 
REMARK   20  A    between atoms: P_46  and  O_42 
ROOT
HETATM    1  C   UNK N   1      20.261  14.532   8.370  0.00  0.00     0.135 C 
HETATM    2  N   UNK N   1      21.166  13.800   7.818  0.00  0.00    -0.364 N 
ATOM      3  HN  UNK N   1      21.426  14.064   6.867  1.00  0.00     0.162 HD
ENDROOT
BRANCH   1   4
HETATM    4  C   UNK N   1      19.973  15.885   7.785  0.00  0.00     0.162 C 
BRANCH   4   5
HETATM    5  C   UNK N   1      21.219  16.745   7.457  0.00  0.00     0.072 C 
BRANCH   5   6
HETATM    6  C   UNK N   1      21.438  16.696   5.973  0.00  0.00    -0.054 A 
HETATM    7  C   UNK N   1      21.878  15.522   5.364  0.00  0.00     0.010 A 
HETATM    8  C   UNK N   1      21.825  15.403   3.972  0.00  0.00     0.038 A 
HETATM    9  C   UNK N   1      21.281  16.430   3.184  0.00  0.00     0.087 A 
HETATM   10  C   UNK N   1      20.888  17.645   3.810  0.00  0.00     0.083 A 
HETATM   11  C   UNK N   1      20.992  17.754   5.186  0.00  0.00     0.029 A 
BRANCH   9  12
HETATM   12  O   UNK N   1      21.139  16.202   1.858  0.00  0.00    -0.340 OA
BRANCH  12  13
HETATM   13  C   UNK N   1      19.968  15.726   1.320  0.00  0.00     0.285 C 
BRANCH  13  14
HETATM   14  C   UNK N   1      19.523  16.571   0.184  0.00  0.00     0.164 C 
HETATM   15  O   UNK N   1      20.307  17.350  -0.331  0.00  0.00    -0.648 OA
BRANCH  14  16
HETATM   16  O   UNK N   1      18.255  16.499  -0.257  0.00  0.00    -0.775 OA
HETATM   17  H   UNK N   1      17.991  16.996  -1.008  0.00  0.00     0.167 HD
ENDBRANCH  14  16
ENDBRANCH  13  14
ENDBRANCH  12  13
ENDBRANCH   9  12
BRANCH  10  18
HETATM   18  P   UNK N   1      20.168  19.098   2.927  0.00  0.00     0.273 P 
HETATM   19  O   UNK N   1      20.213  20.344   3.852  0.00  0.00    -0.650 OA
BRANCH  18  20
HETATM   20  O   UNK N   1      18.480  18.948   2.549  0.00  0.00    -0.326 OA
HETATM   21  H   UNK N   1      17.547  19.206   2.487  0.00  0.00     0.220 HD
ENDBRANCH  18  20
BRANCH  18  22
HETATM   22  O   UNK N   1      20.993  19.612   1.492  0.00  0.00    -0.326 OA
HETATM   23  H   UNK N   1      21.347  20.461   1.180  0.00  0.00     0.220 HD
ENDBRANCH  18  22
ENDBRANCH  10  18
ENDBRANCH   5   6
ENDBRANCH   4   5
BRANCH   4  24
HETATM   24  N   UNK N   1      19.030  16.594   8.654  0.00  0.00    -0.362 N 
HETATM   25  C   UNK N   1      17.795  16.859   8.362  0.00  0.00     0.107 C 
HETATM   26  C   UNK N   1      16.946  17.582   9.350  0.00  0.00     0.097 C 
ATOM     27  HN  UNK N   1      19.373  16.902   9.564  1.00  0.00     0.162 HD
BRANCH  25  28
HETATM   28  O   UNK N   1      17.248  16.458   7.196  0.00  0.00    -0.350 OA
HETATM   29  H   UNK N   1      16.767  16.704   6.430  0.00  0.00     0.219 HD
ENDBRANCH  25  28
ENDBRANCH   4  24
ENDBRANCH   1   4
BRANCH   1  30
HETATM   30  O   UNK N   1      19.686  14.186   9.540  0.00  0.00    -0.348 OA
HETATM   31  H   UNK N   1      19.267  14.453  10.334  0.00  0.00     0.219 HD
ENDBRANCH   1  30
BRANCH   2  32
HETATM   32  C   UNK N   1      21.868  12.648   8.365  0.00  0.00     0.112 C 
HETATM   33  C   UNK N   1      22.118  12.675   9.868  0.00  0.00     0.037 C 
BRANCH  32  34
HETATM   34  C   UNK N   1      23.168  12.670   7.616  0.00  0.00    -0.035 A 
HETATM   35  C   UNK N   1      24.167  13.559   8.019  0.00  0.00     0.012 A 
HETATM   36  C   UNK N   1      25.181  13.911   7.141  0.00  0.00     0.038 A 
HETATM   37  C   UNK N   1      25.233  13.389   5.846  0.00  0.00     0.083 A 
HETATM   38  C   UNK N   1      24.274  12.383   5.462  0.00  0.00     0.048 A 
HETATM   39  C   UNK N   1      23.254  12.062   6.372  0.00  0.00     0.027 A 
BRANCH  37  40
HETATM   40  O   UNK N   1      26.228  13.892   5.064  0.00  0.00    -0.350 OA
BRANCH  40  41
HETATM   41  C   UNK N   1      26.117  14.805   4.053  0.00  0.00     0.180 C 
BRANCH  41  42
HETATM   42  C   UNK N   1      26.469  16.169   4.588  0.00  0.00     0.010 C 
HETATM   43  C   UNK N   1      27.394  16.887   3.607  0.00  0.00     0.007 C 
HETATM   44  C   UNK N   1      27.475  18.360   3.977  0.00  0.00     0.000 C 
HETATM   45  C   UNK N   1      26.097  19.037   3.878  0.00  0.00     0.000 C 
HETATM   46  C   UNK N   1      24.920  18.054   3.912  0.00  0.00     0.000 C 
HETATM   47  C   UNK N   1      25.186  16.944   4.921  0.00  0.00     0.007 C 
ENDBRANCH  41  42
ENDBRANCH  40  41
ENDBRANCH  37  40
BRANCH  38  48
HETATM   48  C   UNK N   1      24.164  11.688   4.145  0.00  0.00     0.146 C 
HETATM   49  N   UNK N   1      23.057  11.139   3.810  0.00  0.00    -0.379 N 
HETATM   50  H   UNK N   1      23.048  10.228   3.435  0.00  0.00     0.158 HD
ATOM     51  HN  UNK N   1      22.180  11.647   3.931  1.00  0.00     0.158 HD
BRANCH  48  52
HETATM   52  O   UNK N   1      25.159  11.726   3.241  0.00  0.00    -0.346 OA
HETATM   53  H   UNK N   1      25.463  11.188   2.537  0.00  0.00     0.219 HD
ENDBRANCH  48  52
ENDBRANCH  38  48
ENDBRANCH  32  34
ENDBRANCH   2  32
TORSDOF 20
ENDMDL
