MODEL 1
REMARK VINA RESULT:      -4.1      0.000      0.000
REMARK  9 active torsions:
REMARK  status: ('A' for Active; 'I' for Inactive)
REMARK    1  A    between atoms: C_2  and  C_3 
REMARK    2  A    between atoms: C_3  and  C_4 
REMARK    3  A    between atoms: C_4  and  C_5 
REMARK    4  A    between atoms: C_5  and  C_6 
REMARK    5  A    between atoms: C_6  and  C_7 
REMARK    6  A    between atoms: C_7  and  C_8 
REMARK    7  A    between atoms: C_8  and  C_9 
REMARK    8  A    between atoms: C_9  and  C_10 
REMARK    9  A    between atoms: C_10  and  C_11 
ROOT
HETATM    1  C   UNK N   1      27.112  24.696  -6.042  0.00  0.00     0.000 C 
ENDROOT
BRANCH   1   2
HETATM    2  C   UNK N   1      25.793  25.145  -6.627  0.00  0.00     0.000 C 
BRANCH   2   3
HETATM    3  C   UNK N   1      25.738  26.654  -6.697  0.00  0.00     0.000 C 
BRANCH   3   4
HETATM    4  C   UNK N   1      24.749  27.132  -5.658  0.00  0.00    -0.000 C 
BRANCH   4   5
HETATM    5  C   UNK N   1      25.472  27.824  -4.526  0.00  0.00    -0.005 C 
HETATM    6  C   UNK N   1      26.755  28.425  -5.060  0.00  0.00     0.005 C 
ENDBRANCH   4   5
ENDBRANCH   3   4
ENDBRANCH   2   3
ENDBRANCH   1   2
BRANCH   1   7
HETATM    7  C   UNK N   1      26.864  24.185  -4.641  0.00  0.00     0.000 C 
BRANCH   7   8
HETATM    8  C   UNK N   1      28.155  24.227  -3.860  0.00  0.00     0.000 C 
BRANCH   8   9
HETATM    9  C   UNK N   1      29.216  23.436  -4.593  0.00  0.00     0.007 C 
BRANCH   9  10
HETATM   10  C   UNK N   1      29.953  22.573  -3.593  0.00  0.00     0.069 C 
BRANCH  10  11
HETATM   11  C   UNK N   1      29.598  22.992  -2.211  0.00  0.00     0.231 C 
HETATM   12  O   UNK N   1      30.455  23.015  -1.346  0.00  0.00    -0.307 OA
ENDBRANCH  10  11
ENDBRANCH   9  10
ENDBRANCH   8   9
ENDBRANCH   7   8
ENDBRANCH   1   7
TORSDOF 9
ENDMDL
MODEL 2
REMARK VINA RESULT:      -4.0     11.887     14.060
REMARK  9 active torsions:
REMARK  status: ('A' for Active; 'I' for Inactive)
REMARK    1  A    between atoms: C_2  and  C_3 
REMARK    2  A    between atoms: C_3  and  C_4 
REMARK    3  A    between atoms: C_4  and  C_5 
REMARK    4  A    between atoms: C_5  and  C_6 
REMARK    5  A    between atoms: C_6  and  C_7 
REMARK    6  A    between atoms: C_7  and  C_8 
REMARK    7  A    between atoms: C_8  and  C_9 
REMARK    8  A    between atoms: C_9  and  C_10 
REMARK    9  A    between atoms: C_10  and  C_11 
ROOT
HETATM    1  C   UNK N   1      29.722  17.384   7.594  0.00  0.00     0.000 C 
ENDROOT
BRANCH   1   2
HETATM    2  C   UNK N   1      28.260  17.766   7.580  0.00  0.00     0.000 C 
BRANCH   2   3
HETATM    3  C   UNK N   1      27.762  17.875   6.157  0.00  0.00     0.000 C 
BRANCH   3   4
HETATM    4  C   UNK N   1      27.920  19.315   5.719  0.00  0.00    -0.000 C 
BRANCH   4   5
HETATM    5  C   UNK N   1      27.369  20.247   6.773  0.00  0.00    -0.005 C 
HETATM    6  C   UNK N   1      27.141  21.608   6.152  0.00  0.00     0.005 C 
ENDBRANCH   4   5
ENDBRANCH   3   4
ENDBRANCH   2   3
ENDBRANCH   1   2
BRANCH   1   7
HETATM    7  C   UNK N   1      30.396  18.114   8.733  0.00  0.00     0.000 C 
BRANCH   7   8
HETATM    8  C   UNK N   1      31.892  17.949   8.615  0.00  0.00     0.000 C 
BRANCH   8   9
HETATM    9  C   UNK N   1      32.243  17.515   7.209  0.00  0.00     0.007 C 
BRANCH   9  10
HETATM   10  C   UNK N   1      33.714  17.779   6.976  0.00  0.00     0.069 C 
BRANCH  10  11
HETATM   11  C   UNK N   1      34.370  18.140   8.261  0.00  0.00     0.231 C 
HETATM   12  O   UNK N   1      35.078  19.130   8.323  0.00  0.00    -0.307 OA
ENDBRANCH  10  11
ENDBRANCH   9  10
ENDBRANCH   8   9
ENDBRANCH   7   8
ENDBRANCH   1   7
TORSDOF 9
ENDMDL
MODEL 3
REMARK VINA RESULT:      -4.0      1.946      3.789
REMARK  9 active torsions:
REMARK  status: ('A' for Active; 'I' for Inactive)
REMARK    1  A    between atoms: C_2  and  C_3 
REMARK    2  A    between atoms: C_3  and  C_4 
REMARK    3  A    between atoms: C_4  and  C_5 
REMARK    4  A    between atoms: C_5  and  C_6 
REMARK    5  A    between atoms: C_6  and  C_7 
REMARK    6  A    between atoms: C_7  and  C_8 
REMARK    7  A    between atoms: C_8  and  C_9 
REMARK    8  A    between atoms: C_9  and  C_10 
REMARK    9  A    between atoms: C_10  and  C_11 
ROOT
HETATM    1  C   UNK N   1      25.649  27.501  -3.672  0.00  0.00     0.000 C 
ENDROOT
BRANCH   1   2
HETATM    2  C   UNK N   1      26.831  28.440  -3.601  0.00  0.00     0.000 C 
BRANCH   2   3
HETATM    3  C   UNK N   1      26.529  29.720  -4.345  0.00  0.00     0.000 C 
BRANCH   3   4
HETATM    4  C   UNK N   1      27.793  30.158  -5.051  0.00  0.00    -0.000 C 
BRANCH   4   5
HETATM    5  C   UNK N   1      28.514  28.959  -5.624  0.00  0.00    -0.005 C 
HETATM    6  C   UNK N   1      28.153  28.825  -7.087  0.00  0.00     0.005 C 
ENDBRANCH   4   5
ENDBRANCH   3   4
ENDBRANCH   2   3
ENDBRANCH   1   2
BRANCH   1   7
HETATM    7  C   UNK N   1      25.116  27.510  -5.086  0.00  0.00     0.000 C 
BRANCH   7   8
HETATM    8  C   UNK N   1      25.682  26.330  -5.840  0.00  0.00     0.000 C 
BRANCH   8   9
HETATM    9  C   UNK N   1      25.659  25.105  -4.952  0.00  0.00     0.007 C 
BRANCH   9  10
HETATM   10  C   UNK N   1      27.010  24.428  -5.028  0.00  0.00     0.069 C 
BRANCH  10  11
HETATM   11  C   UNK N   1      27.510  24.150  -3.655  0.00  0.00     0.231 C 
HETATM   12  O   UNK N   1      26.726  24.082  -2.727  0.00  0.00    -0.307 OA
ENDBRANCH  10  11
ENDBRANCH   9  10
ENDBRANCH   8   9
ENDBRANCH   7   8
ENDBRANCH   1   7
TORSDOF 9
ENDMDL
MODEL 4
REMARK VINA RESULT:      -3.9     19.778     23.699
REMARK  9 active torsions:
REMARK  status: ('A' for Active; 'I' for Inactive)
REMARK    1  A    between atoms: C_2  and  C_3 
REMARK    2  A    between atoms: C_3  and  C_4 
REMARK    3  A    between atoms: C_4  and  C_5 
REMARK    4  A    between atoms: C_5  and  C_6 
REMARK    5  A    between atoms: C_6  and  C_7 
REMARK    6  A    between atoms: C_7  and  C_8 
REMARK    7  A    between atoms: C_8  and  C_9 
REMARK    8  A    between atoms: C_9  and  C_10 
REMARK    9  A    between atoms: C_10  and  C_11 
ROOT
HETATM    1  C   UNK N   1      36.633  13.196  15.264  0.00  0.00     0.000 C 
ENDROOT
BRANCH   1   2
HETATM    2  C   UNK N   1      35.318  13.067  15.998  0.00  0.00     0.000 C 
BRANCH   2   3
HETATM    3  C   UNK N   1      35.229  11.720  16.678  0.00  0.00     0.000 C 
BRANCH   3   4
HETATM    4  C   UNK N   1      35.077  10.665  15.604  0.00  0.00    -0.000 C 
BRANCH   4   5
HETATM    5  C   UNK N   1      33.746  10.819  14.905  0.00  0.00    -0.005 C 
HETATM    6  C   UNK N   1      33.924  10.498  13.437  0.00  0.00     0.005 C 
ENDBRANCH   4   5
ENDBRANCH   3   4
ENDBRANCH   2   3
ENDBRANCH   1   2
BRANCH   1   7
HETATM    7  C   UNK N   1      36.459  14.195  14.143  0.00  0.00     0.000 C 
BRANCH   7   8
HETATM    8  C   UNK N   1      35.424  13.678  13.172  0.00  0.00     0.000 C 
BRANCH   8   9
HETATM    9  C   UNK N   1      35.821  14.055  11.762  0.00  0.00     0.007 C 
BRANCH   9  10
HETATM   10  C   UNK N   1      34.772  14.986  11.197  0.00  0.00     0.069 C 
BRANCH  10  11
HETATM   11  C   UNK N   1      35.332  16.359  11.074  0.00  0.00     0.231 C 
HETATM   12  O   UNK N   1      36.482  16.513  10.705  0.00  0.00    -0.307 OA
ENDBRANCH  10  11
ENDBRANCH   9  10
ENDBRANCH   8   9
ENDBRANCH   7   8
ENDBRANCH   1   7
TORSDOF 9
ENDMDL
MODEL 5
REMARK VINA RESULT:      -3.8      2.553      4.828
REMARK  9 active torsions:
REMARK  status: ('A' for Active; 'I' for Inactive)
REMARK    1  A    between atoms: C_2  and  C_3 
REMARK    2  A    between atoms: C_3  and  C_4 
REMARK    3  A    between atoms: C_4  and  C_5 
REMARK    4  A    between atoms: C_5  and  C_6 
REMARK    5  A    between atoms: C_6  and  C_7 
REMARK    6  A    between atoms: C_7  and  C_8 
REMARK    7  A    between atoms: C_8  and  C_9 
REMARK    8  A    between atoms: C_9  and  C_10 
REMARK    9  A    between atoms: C_10  and  C_11 
ROOT
HETATM    1  C   UNK N   1      26.686  26.934  -6.886  0.00  0.00     0.000 C 
ENDROOT
BRANCH   1   2
HETATM    2  C   UNK N   1      25.630  25.914  -6.528  0.00  0.00     0.000 C 
BRANCH   2   3
HETATM    3  C   UNK N   1      26.087  24.528  -6.920  0.00  0.00     0.000 C 
BRANCH   3   4
HETATM    4  C   UNK N   1      25.901  23.621  -5.724  0.00  0.00    -0.000 C 
BRANCH   4   5
HETATM    5  C   UNK N   1      26.018  24.415  -4.443  0.00  0.00    -0.005 C 
HETATM    6  C   UNK N   1      27.398  24.202  -3.860  0.00  0.00     0.005 C 
ENDBRANCH   4   5
ENDBRANCH   3   4
ENDBRANCH   2   3
ENDBRANCH   1   2
BRANCH   1   7
HETATM    7  C   UNK N   1      26.635  28.052  -5.869  0.00  0.00     0.000 C 
BRANCH   7   8
HETATM    8  C   UNK N   1      25.441  27.851  -4.967  0.00  0.00     0.000 C 
BRANCH   8   9
HETATM    9  C   UNK N   1      25.851  28.073  -3.528  0.00  0.00     0.007 C 
BRANCH   9  10
HETATM   10  C   UNK N   1      26.515  29.427  -3.419  0.00  0.00     0.069 C 
BRANCH  10  11
HETATM   11  C   UNK N   1      27.753  29.315  -2.602  0.00  0.00     0.231 C 
HETATM   12  O   UNK N   1      27.691  29.422  -1.390  0.00  0.00    -0.307 OA
ENDBRANCH  10  11
ENDBRANCH   9  10
ENDBRANCH   8   9
ENDBRANCH   7   8
ENDBRANCH   1   7
TORSDOF 9
ENDMDL
MODEL 6
REMARK VINA RESULT:      -3.8      2.594      4.695
REMARK  9 active torsions:
REMARK  status: ('A' for Active; 'I' for Inactive)
REMARK    1  A    between atoms: C_2  and  C_3 
REMARK    2  A    between atoms: C_3  and  C_4 
REMARK    3  A    between atoms: C_4  and  C_5 
REMARK    4  A    between atoms: C_5  and  C_6 
REMARK    5  A    between atoms: C_6  and  C_7 
REMARK    6  A    between atoms: C_7  and  C_8 
REMARK    7  A    between atoms: C_8  and  C_9 
REMARK    8  A    between atoms: C_9  and  C_10 
REMARK    9  A    between atoms: C_10  and  C_11 
ROOT
HETATM    1  C   UNK N   1      25.639  26.257  -6.828  0.00  0.00     0.000 C 
ENDROOT
BRANCH   1   2
HETATM    2  C   UNK N   1      26.004  24.875  -6.340  0.00  0.00     0.000 C 
BRANCH   2   3
HETATM    3  C   UNK N   1      25.528  24.679  -4.919  0.00  0.00     0.000 C 
BRANCH   3   4
HETATM    4  C   UNK N   1      26.744  24.660  -4.020  0.00  0.00    -0.000 C 
BRANCH   4   5
HETATM    5  C   UNK N   1      27.976  24.291  -4.814  0.00  0.00    -0.005 C 
HETATM    6  C   UNK N   1      29.140  25.127  -4.326  0.00  0.00     0.005 C 
ENDBRANCH   4   5
ENDBRANCH   3   4
ENDBRANCH   2   3
ENDBRANCH   1   2
BRANCH   1   7
HETATM    7  C   UNK N   1      26.819  26.824  -7.586  0.00  0.00     0.000 C 
BRANCH   7   8
HETATM    8  C   UNK N   1      27.565  27.789  -6.696  0.00  0.00     0.000 C 
BRANCH   8   9
HETATM    9  C   UNK N   1      26.638  28.303  -5.617  0.00  0.00     0.007 C 
BRANCH   9  10
HETATM   10  C   UNK N   1      27.423  28.439  -4.331  0.00  0.00     0.069 C 
BRANCH  10  11
HETATM   11  C   UNK N   1      26.487  28.562  -3.182  0.00  0.00     0.231 C 
HETATM   12  O   UNK N   1      25.462  27.905  -3.162  0.00  0.00    -0.307 OA
ENDBRANCH  10  11
ENDBRANCH   9  10
ENDBRANCH   8   9
ENDBRANCH   7   8
ENDBRANCH   1   7
TORSDOF 9
ENDMDL
MODEL 7
REMARK VINA RESULT:      -3.7      1.519      2.163
REMARK  9 active torsions:
REMARK  status: ('A' for Active; 'I' for Inactive)
REMARK    1  A    between atoms: C_2  and  C_3 
REMARK    2  A    between atoms: C_3  and  C_4 
REMARK    3  A    between atoms: C_4  and  C_5 
REMARK    4  A    between atoms: C_5  and  C_6 
REMARK    5  A    between atoms: C_6  and  C_7 
REMARK    6  A    between atoms: C_7  and  C_8 
REMARK    7  A    between atoms: C_8  and  C_9 
REMARK    8  A    between atoms: C_9  and  C_10 
REMARK    9  A    between atoms: C_10  and  C_11 
ROOT
HETATM    1  C   UNK N   1      26.750  25.843  -4.591  0.00  0.00     0.000 C 
ENDROOT
BRANCH   1   2
HETATM    2  C   UNK N   1      26.661  26.882  -3.497  0.00  0.00     0.000 C 
BRANCH   2   3
HETATM    3  C   UNK N   1      25.605  27.909  -3.835  0.00  0.00     0.000 C 
BRANCH   3   4
HETATM    4  C   UNK N   1      26.261  29.272  -3.827  0.00  0.00    -0.000 C 
BRANCH   4   5
HETATM    5  C   UNK N   1      27.118  29.447  -5.060  0.00  0.00    -0.005 C 
HETATM    6  C   UNK N   1      27.946  30.704  -4.905  0.00  0.00     0.005 C 
ENDBRANCH   4   5
ENDBRANCH   3   4
ENDBRANCH   2   3
ENDBRANCH   1   2
BRANCH   1   7
HETATM    7  C   UNK N   1      26.369  24.501  -4.008  0.00  0.00     0.000 C 
BRANCH   7   8
HETATM    8  C   UNK N   1      27.491  24.004  -3.128  0.00  0.00     0.000 C 
BRANCH   8   9
HETATM    9  C   UNK N   1      28.722  23.754  -3.971  0.00  0.00     0.007 C 
BRANCH   9  10
HETATM   10  C   UNK N   1      29.948  24.042  -3.134  0.00  0.00     0.069 C 
BRANCH  10  11
HETATM   11  C   UNK N   1      30.178  22.925  -2.178  0.00  0.00     0.231 C 
HETATM   12  O   UNK N   1      31.288  22.434  -2.077  0.00  0.00    -0.307 OA
ENDBRANCH  10  11
ENDBRANCH   9  10
ENDBRANCH   8   9
ENDBRANCH   7   8
ENDBRANCH   1   7
TORSDOF 9
ENDMDL
MODEL 8
REMARK VINA RESULT:      -3.7      3.768      4.434
REMARK  9 active torsions:
REMARK  status: ('A' for Active; 'I' for Inactive)
REMARK    1  A    between atoms: C_2  and  C_3 
REMARK    2  A    between atoms: C_3  and  C_4 
REMARK    3  A    between atoms: C_4  and  C_5 
REMARK    4  A    between atoms: C_5  and  C_6 
REMARK    5  A    between atoms: C_6  and  C_7 
REMARK    6  A    between atoms: C_7  and  C_8 
REMARK    7  A    between atoms: C_8  and  C_9 
REMARK    8  A    between atoms: C_9  and  C_10 
REMARK    9  A    between atoms: C_10  and  C_11 
ROOT
HETATM    1  C   UNK N   1      25.019  26.346  -5.623  0.00  0.00     0.000 C 
ENDROOT
BRANCH   1   2
HETATM    2  C   UNK N   1      26.027  26.032  -4.542  0.00  0.00     0.000 C 
BRANCH   2   3
HETATM    3  C   UNK N   1      26.122  27.181  -3.565  0.00  0.00     0.000 C 
BRANCH   3   4
HETATM    4  C   UNK N   1      25.854  28.462  -4.325  0.00  0.00    -0.000 C 
BRANCH   4   5
HETATM    5  C   UNK N   1      27.139  29.232  -4.523  0.00  0.00    -0.005 C 
HETATM    6  C   UNK N   1      27.601  29.053  -5.953  0.00  0.00     0.005 C 
ENDBRANCH   4   5
ENDBRANCH   3   4
ENDBRANCH   2   3
ENDBRANCH   1   2
BRANCH   1   7
HETATM    7  C   UNK N   1      25.614  25.961  -6.958  0.00  0.00     0.000 C 
BRANCH   7   8
HETATM    8  C   UNK N   1      26.686  24.920  -6.744  0.00  0.00     0.000 C 
BRANCH   8   9
HETATM    9  C   UNK N   1      26.440  23.744  -7.664  0.00  0.00     0.007 C 
BRANCH   9  10
HETATM   10  C   UNK N   1      26.062  22.545  -6.824  0.00  0.00     0.069 C 
BRANCH  10  11
HETATM   11  C   UNK N   1      24.889  21.858  -7.428  0.00  0.00     0.231 C 
HETATM   12  O   UNK N   1      24.242  22.415  -8.296  0.00  0.00    -0.307 OA
ENDBRANCH  10  11
ENDBRANCH   9  10
ENDBRANCH   8   9
ENDBRANCH   7   8
ENDBRANCH   1   7
TORSDOF 9
ENDMDL
MODEL 9
REMARK VINA RESULT:      -3.7     13.073     15.278
REMARK  9 active torsions:
REMARK  status: ('A' for Active; 'I' for Inactive)
REMARK    1  A    between atoms: C_2  and  C_3 
REMARK    2  A    between atoms: C_3  and  C_4 
REMARK    3  A    between atoms: C_4  and  C_5 
REMARK    4  A    between atoms: C_5  and  C_6 
REMARK    5  A    between atoms: C_6  and  C_7 
REMARK    6  A    between atoms: C_7  and  C_8 
REMARK    7  A    between atoms: C_8  and  C_9 
REMARK    8  A    between atoms: C_9  and  C_10 
REMARK    9  A    between atoms: C_10  and  C_11 
ROOT
HETATM    1  C   UNK N   1      30.803  17.156   7.267  0.00  0.00     0.000 C 
ENDROOT
BRANCH   1   2
HETATM    2  C   UNK N   1      31.393  16.081   6.385  0.00  0.00     0.000 C 
BRANCH   2   3
HETATM    3  C   UNK N   1      30.765  16.127   5.011  0.00  0.00     0.000 C 
BRANCH   3   4
HETATM    4  C   UNK N   1      31.064  17.483   4.408  0.00  0.00    -0.000 C 
BRANCH   4   5
HETATM    5  C   UNK N   1      32.498  17.539   3.935  0.00  0.00    -0.005 C 
HETATM    6  C   UNK N   1      32.726  16.428   2.933  0.00  0.00     0.005 C 
ENDBRANCH   4   5
ENDBRANCH   3   4
ENDBRANCH   2   3
ENDBRANCH   1   2
BRANCH   1   7
HETATM    7  C   UNK N   1      31.889  17.673   8.183  0.00  0.00     0.000 C 
BRANCH   7   8
HETATM    8  C   UNK N   1      33.161  17.861   7.391  0.00  0.00     0.000 C 
BRANCH   8   9
HETATM    9  C   UNK N   1      34.352  17.777   8.320  0.00  0.00     0.007 C 
BRANCH   9  10
HETATM   10  C   UNK N   1      34.393  16.392   8.928  0.00  0.00     0.069 C 
BRANCH  10  11
HETATM   11  C   UNK N   1      35.054  16.447  10.260  0.00  0.00     0.231 C 
HETATM   12  O   UNK N   1      35.693  17.434  10.578  0.00  0.00    -0.307 OA
ENDBRANCH  10  11
ENDBRANCH   9  10
ENDBRANCH   8   9
ENDBRANCH   7   8
ENDBRANCH   1   7
TORSDOF 9
ENDMDL
