MODEL 1
REMARK VINA RESULT:      -6.3      0.000      0.000
REMARK  12 active torsions:
REMARK  status: ('A' for Active; 'I' for Inactive)
REMARK    1  A    between atoms: C_3  and  C_1 
REMARK    2  A    between atoms: O_13  and  C_1 
REMARK    3  A    between atoms: C_4  and  C_2 
REMARK    4  A    between atoms: O_21  and  C_2 
REMARK    5  A    between atoms: C_5  and  O_14 
REMARK    6  A    between atoms: C_6  and  O_15 
REMARK    7  A    between atoms: C_7  and  O_16 
REMARK    8  A    between atoms: C_8  and  O_17 
REMARK    9  A    between atoms: C_9  and  O_18 
REMARK   10  A    between atoms: C_10  and  O_19 
REMARK   11  A    between atoms: O_20  and  C_11 
REMARK   12  A    between atoms: C_12  and  O_21 
ROOT
HETATM    1  O   UNK N   1      22.193  17.160   5.471  0.00  0.00    -0.356 OA
ENDROOT
BRANCH   1   2
HETATM    2  C   UNK N   1      21.891  17.213   4.100  0.00  0.00     0.205 C 
BRANCH   2   3
HETATM    3  C   UNK N   1      20.473  16.709   3.782  0.00  0.00     0.180 C 
HETATM    4  C   UNK N   1      20.433  15.948   2.428  0.00  0.00     0.180 C 
HETATM    5  C   UNK N   1      20.227  16.887   1.210  0.00  0.00     0.183 C 
HETATM    6  C   UNK N   1      20.578  18.321   1.604  0.00  0.00     0.204 C 
HETATM    7  C   UNK N   1      19.677  18.743   2.805  0.00  0.00     0.288 C 
HETATM    8  O   UNK N   1      19.532  17.766   3.842  0.00  0.00    -0.349 OA
BRANCH   4   9
HETATM    9  O   UNK N   1      19.425  14.977   2.448  0.00  0.00    -0.390 OA
HETATM   10  H   UNK N   1      18.507  14.675   2.357  0.00  0.00     0.210 HD
ENDBRANCH   4   9
BRANCH   5  11
HETATM   11  O   UNK N   1      18.893  16.851   0.787  0.00  0.00    -0.390 OA
HETATM   12  H   UNK N   1      18.371  16.743  -0.024  0.00  0.00     0.210 HD
ENDBRANCH   5  11
BRANCH   6  13
HETATM   13  O   UNK N   1      20.404  19.196   0.527  0.00  0.00    -0.388 OA
HETATM   14  H   UNK N   1      21.039  19.327  -0.194  0.00  0.00     0.210 HD
ENDBRANCH   6  13
BRANCH   7  15
HETATM   15  O   UNK N   1      18.395  19.043   2.335  0.00  0.00    -0.369 OA
HETATM   16  H   UNK N   1      17.979  18.962   1.463  0.00  0.00     0.212 HD
ENDBRANCH   7  15
ENDBRANCH   2   3
ENDBRANCH   1   2
BRANCH   1  17
HETATM   17  C   UNK N   1      21.192  16.494   6.237  0.00  0.00     0.291 C 
HETATM   18  C   UNK N   1      21.594  15.092   6.815  0.00  0.00     0.204 C 
HETATM   19  C   UNK N   1      20.442  14.557   7.669  0.00  0.00     0.183 C 
HETATM   20  C   UNK N   1      20.084  15.579   8.745  0.00  0.00     0.180 C 
HETATM   21  C   UNK N   1      19.763  16.923   8.057  0.00  0.00     0.179 C 
HETATM   22  O   UNK N   1      20.890  17.364   7.318  0.00  0.00    -0.348 OA
BRANCH  18  23
HETATM   23  O   UNK N   1      21.841  14.155   5.807  0.00  0.00    -0.388 OA
HETATM   24  H   UNK N   1      21.267  14.052   5.031  0.00  0.00     0.210 HD
ENDBRANCH  18  23
BRANCH  19  25
HETATM   25  O   UNK N   1      20.803  13.342   8.257  0.00  0.00    -0.390 OA
HETATM   26  H   UNK N   1      20.188  12.607   8.404  0.00  0.00     0.210 HD
ENDBRANCH  19  25
BRANCH  20  27
HETATM   27  O   UNK N   1      18.985  15.116   9.474  0.00  0.00    -0.390 OA
HETATM   28  H   UNK N   1      18.748  14.189   9.632  0.00  0.00     0.210 HD
ENDBRANCH  20  27
BRANCH  21  29
HETATM   29  C   UNK N   1      19.444  18.004   9.087  0.00  0.00     0.198 C 
BRANCH  29  30
HETATM   30  O   UNK N   1      18.090  17.994   9.427  0.00  0.00    -0.398 OA
HETATM   31  H   UNK N   1      17.684  18.072  10.305  0.00  0.00     0.209 HD
ENDBRANCH  29  30
ENDBRANCH  21  29
ENDBRANCH   1  17
TORSDOF 12
ENDMDL
MODEL 2
REMARK VINA RESULT:      -6.3      3.508      5.653
REMARK  12 active torsions:
REMARK  status: ('A' for Active; 'I' for Inactive)
REMARK    1  A    between atoms: C_3  and  C_1 
REMARK    2  A    between atoms: O_13  and  C_1 
REMARK    3  A    between atoms: C_4  and  C_2 
REMARK    4  A    between atoms: O_21  and  C_2 
REMARK    5  A    between atoms: C_5  and  O_14 
REMARK    6  A    between atoms: C_6  and  O_15 
REMARK    7  A    between atoms: C_7  and  O_16 
REMARK    8  A    between atoms: C_8  and  O_17 
REMARK    9  A    between atoms: C_9  and  O_18 
REMARK   10  A    between atoms: C_10  and  O_19 
REMARK   11  A    between atoms: O_20  and  C_11 
REMARK   12  A    between atoms: C_12  and  O_21 
ROOT
HETATM    1  O   UNK N   1      23.499  16.831   4.638  0.00  0.00    -0.356 OA
ENDROOT
BRANCH   1   2
HETATM    2  C   UNK N   1      22.591  17.294   3.671  0.00  0.00     0.205 C 
BRANCH   2   3
HETATM    3  C   UNK N   1      21.199  17.593   4.255  0.00  0.00     0.180 C 
HETATM    4  C   UNK N   1      20.070  17.113   3.302  0.00  0.00     0.180 C 
HETATM    5  C   UNK N   1      19.696  18.165   2.224  0.00  0.00     0.183 C 
HETATM    6  C   UNK N   1      20.827  19.184   2.090  0.00  0.00     0.204 C 
HETATM    7  C   UNK N   1      21.063  19.853   3.479  0.00  0.00     0.288 C 
HETATM    8  O   UNK N   1      21.076  18.962   4.600  0.00  0.00    -0.349 OA
BRANCH   4   9
HETATM    9  O   UNK N   1      18.930  16.769   4.038  0.00  0.00    -0.390 OA
HETATM   10  H   UNK N   1      17.973  16.675   4.164  0.00  0.00     0.210 HD
ENDBRANCH   4   9
BRANCH   5  11
HETATM   11  O   UNK N   1      18.524  18.839   2.588  0.00  0.00    -0.390 OA
HETATM   12  H   UNK N   1      17.751  18.731   3.165  0.00  0.00     0.210 HD
ENDBRANCH   5  11
BRANCH   6  13
HETATM   13  O   UNK N   1      20.522  20.149   1.125  0.00  0.00    -0.388 OA
HETATM   14  H   UNK N   1      20.017  20.960   1.287  0.00  0.00     0.210 HD
ENDBRANCH   6  13
BRANCH   7  15
HETATM   15  O   UNK N   1      20.058  20.797   3.711  0.00  0.00    -0.369 OA
HETATM   16  H   UNK N   1      19.520  21.344   3.119  0.00  0.00     0.212 HD
ENDBRANCH   7  15
ENDBRANCH   2   3
ENDBRANCH   1   2
BRANCH   1  17
HETATM   17  C   UNK N   1      24.591  17.721   4.849  0.00  0.00     0.291 C 
HETATM   18  C   UNK N   1      25.979  17.044   5.131  0.00  0.00     0.204 C 
HETATM   19  C   UNK N   1      27.047  18.133   5.254  0.00  0.00     0.183 C 
HETATM   20  C   UNK N   1      27.038  19.005   4.001  0.00  0.00     0.180 C 
HETATM   21  C   UNK N   1      25.614  19.565   3.803  0.00  0.00     0.179 C 
HETATM   22  O   UNK N   1      24.694  18.495   3.663  0.00  0.00    -0.348 OA
BRANCH  18  23
HETATM   23  O   UNK N   1      25.979  16.317   6.325  0.00  0.00    -0.388 OA
HETATM   24  H   UNK N   1      26.765  15.861   6.664  0.00  0.00     0.210 HD
ENDBRANCH  18  23
BRANCH  19  25
HETATM   25  O   UNK N   1      28.306  17.554   5.432  0.00  0.00    -0.390 OA
HETATM   26  H   UNK N   1      28.926  17.372   4.708  0.00  0.00     0.210 HD
ENDBRANCH  19  25
BRANCH  20  27
HETATM   27  O   UNK N   1      27.966  20.040   4.152  0.00  0.00    -0.390 OA
HETATM   28  H   UNK N   1      28.228  20.461   4.985  0.00  0.00     0.210 HD
ENDBRANCH  20  27
BRANCH  21  29
HETATM   29  C   UNK N   1      25.528  20.408   2.533  0.00  0.00     0.198 C 
BRANCH  29  30
HETATM   30  O   UNK N   1      24.228  20.870   2.320  0.00  0.00    -0.398 OA
HETATM   31  H   UNK N   1      23.831  21.210   1.503  0.00  0.00     0.209 HD
ENDBRANCH  29  30
ENDBRANCH  21  29
ENDBRANCH   1  17
TORSDOF 12
ENDMDL
MODEL 3
REMARK VINA RESULT:      -6.2     11.037     13.534
REMARK  12 active torsions:
REMARK  status: ('A' for Active; 'I' for Inactive)
REMARK    1  A    between atoms: C_3  and  C_1 
REMARK    2  A    between atoms: O_13  and  C_1 
REMARK    3  A    between atoms: C_4  and  C_2 
REMARK    4  A    between atoms: O_21  and  C_2 
REMARK    5  A    between atoms: C_5  and  O_14 
REMARK    6  A    between atoms: C_6  and  O_15 
REMARK    7  A    between atoms: C_7  and  O_16 
REMARK    8  A    between atoms: C_8  and  O_17 
REMARK    9  A    between atoms: C_9  and  O_18 
REMARK   10  A    between atoms: C_10  and  O_19 
REMARK   11  A    between atoms: O_20  and  C_11 
REMARK   12  A    between atoms: C_12  and  O_21 
ROOT
HETATM    1  O   UNK N   1      32.054  17.961   7.970  0.00  0.00    -0.356 OA
ENDROOT
BRANCH   1   2
HETATM    2  C   UNK N   1      32.919  17.433   8.943  0.00  0.00     0.205 C 
BRANCH   2   3
HETATM    3  C   UNK N   1      34.347  17.212   8.414  0.00  0.00     0.180 C 
HETATM    4  C   UNK N   1      34.520  15.783   7.829  0.00  0.00     0.180 C 
HETATM    5  C   UNK N   1      34.898  14.729   8.904  0.00  0.00     0.183 C 
HETATM    6  C   UNK N   1      34.552  15.266  10.292  0.00  0.00     0.204 C 
HETATM    7  C   UNK N   1      35.320  16.605  10.515  0.00  0.00     0.288 C 
HETATM    8  O   UNK N   1      35.309  17.515   9.409  0.00  0.00    -0.349 OA
BRANCH   4   9
HETATM    9  O   UNK N   1      35.485  15.788   6.816  0.00  0.00    -0.390 OA
HETATM   10  H   UNK N   1      36.096  15.361   6.195  0.00  0.00     0.210 HD
ENDBRANCH   4   9
BRANCH   5  11
HETATM   11  O   UNK N   1      36.270  14.457   8.856  0.00  0.00    -0.390 OA
HETATM   12  H   UNK N   1      36.952  14.171   8.227  0.00  0.00     0.210 HD
ENDBRANCH   5  11
BRANCH   6  13
HETATM   13  O   UNK N   1      34.881  14.339  11.286  0.00  0.00    -0.388 OA
HETATM   14  H   UNK N   1      35.710  13.839  11.330  0.00  0.00     0.210 HD
ENDBRANCH   6  13
BRANCH   7  15
HETATM   15  O   UNK N   1      36.657  16.324  10.808  0.00  0.00    -0.369 OA
HETATM   16  H   UNK N   1      37.252  16.621  11.514  0.00  0.00     0.212 HD
ENDBRANCH   7  15
ENDBRANCH   2   3
ENDBRANCH   1   2
BRANCH   1  17
HETATM   17  C   UNK N   1      30.744  17.403   8.027  0.00  0.00     0.291 C 
HETATM   18  C   UNK N   1      29.673  18.250   8.800  0.00  0.00     0.204 C 
HETATM   19  C   UNK N   1      28.316  17.550   8.698  0.00  0.00     0.183 C 
HETATM   20  C   UNK N   1      27.967  17.321   7.230  0.00  0.00     0.180 C 
HETATM   21  C   UNK N   1      29.116  16.529   6.570  0.00  0.00     0.179 C 
HETATM   22  O   UNK N   1      30.325  17.260   6.678  0.00  0.00    -0.348 OA
BRANCH  18  23
HETATM   23  O   UNK N   1      29.980  18.377  10.159  0.00  0.00    -0.388 OA
HETATM   24  H   UNK N   1      30.204  19.226  10.572  0.00  0.00     0.210 HD
ENDBRANCH  18  23
BRANCH  19  25
HETATM   25  O   UNK N   1      27.329  18.322   9.315  0.00  0.00    -0.390 OA
HETATM   26  H   UNK N   1      27.455  19.243   9.592  0.00  0.00     0.210 HD
ENDBRANCH  19  25
BRANCH  20  27
HETATM   27  O   UNK N   1      26.762  16.617   7.146  0.00  0.00    -0.390 OA
HETATM   28  H   UNK N   1      26.263  16.425   6.337  0.00  0.00     0.210 HD
ENDBRANCH  20  27
BRANCH  21  29
HETATM   29  C   UNK N   1      28.847  16.310   5.083  0.00  0.00     0.198 C 
BRANCH  29  30
HETATM   30  O   UNK N   1      27.974  17.275   4.579  0.00  0.00    -0.398 OA
HETATM   31  H   UNK N   1      27.769  17.485   3.655  0.00  0.00     0.209 HD
ENDBRANCH  29  30
ENDBRANCH  21  29
ENDBRANCH   1  17
TORSDOF 12
ENDMDL
MODEL 4
REMARK VINA RESULT:      -6.2      1.608      6.573
REMARK  12 active torsions:
REMARK  status: ('A' for Active; 'I' for Inactive)
REMARK    1  A    between atoms: C_3  and  C_1 
REMARK    2  A    between atoms: O_13  and  C_1 
REMARK    3  A    between atoms: C_4  and  C_2 
REMARK    4  A    between atoms: O_21  and  C_2 
REMARK    5  A    between atoms: C_5  and  O_14 
REMARK    6  A    between atoms: C_6  and  O_15 
REMARK    7  A    between atoms: C_7  and  O_16 
REMARK    8  A    between atoms: C_8  and  O_17 
REMARK    9  A    between atoms: C_9  and  O_18 
REMARK   10  A    between atoms: C_10  and  O_19 
REMARK   11  A    between atoms: O_20  and  C_11 
REMARK   12  A    between atoms: C_12  and  O_21 
ROOT
HETATM    1  O   UNK N   1      21.688  16.458   5.005  0.00  0.00    -0.356 OA
ENDROOT
BRANCH   1   2
HETATM    2  C   UNK N   1      21.164  17.000   6.190  0.00  0.00     0.205 C 
BRANCH   2   3
HETATM    3  C   UNK N   1      19.915  16.253   6.686  0.00  0.00     0.180 C 
HETATM    4  C   UNK N   1      19.756  16.373   8.227  0.00  0.00     0.180 C 
HETATM    5  C   UNK N   1      20.549  15.290   9.005  0.00  0.00     0.183 C 
HETATM    6  C   UNK N   1      21.624  14.692   8.099  0.00  0.00     0.204 C 
HETATM    7  C   UNK N   1      20.935  14.093   6.835  0.00  0.00     0.288 C 
HETATM    8  O   UNK N   1      19.918  14.907   6.241  0.00  0.00    -0.349 OA
BRANCH   4   9
HETATM    9  O   UNK N   1      18.403  16.310   8.580  0.00  0.00    -0.390 OA
HETATM   10  H   UNK N   1      17.569  16.691   8.898  0.00  0.00     0.210 HD
ENDBRANCH   4   9
BRANCH   5  11
HETATM   11  O   UNK N   1      19.691  14.265   9.422  0.00  0.00    -0.390 OA
HETATM   12  H   UNK N   1      18.925  13.759   9.105  0.00  0.00     0.210 HD
ENDBRANCH   5  11
BRANCH   6  13
HETATM   13  O   UNK N   1      22.359  13.711   8.771  0.00  0.00    -0.388 OA
HETATM   14  H   UNK N   1      23.110  13.223   8.398  0.00  0.00     0.210 HD
ENDBRANCH   6  13
BRANCH   7  15
HETATM   15  O   UNK N   1      20.346  12.871   7.169  0.00  0.00    -0.369 OA
HETATM   16  H   UNK N   1      19.504  12.639   7.589  0.00  0.00     0.212 HD
ENDBRANCH   7  15
ENDBRANCH   2   3
ENDBRANCH   1   2
BRANCH   1  17
HETATM   17  C   UNK N   1      21.304  17.185   3.841  0.00  0.00     0.291 C 
HETATM   18  C   UNK N   1      19.766  17.457   3.682  0.00  0.00     0.204 C 
HETATM   19  C   UNK N   1      19.539  18.308   2.432  0.00  0.00     0.183 C 
HETATM   20  C   UNK N   1      20.375  19.582   2.519  0.00  0.00     0.180 C 
HETATM   21  C   UNK N   1      21.852  19.184   2.728  0.00  0.00     0.179 C 
HETATM   22  O   UNK N   1      21.981  18.430   3.921  0.00  0.00    -0.348 OA
BRANCH  18  23
HETATM   23  O   UNK N   1      19.034  16.275   3.526  0.00  0.00    -0.388 OA
HETATM   24  H   UNK N   1      18.362  15.984   4.162  0.00  0.00     0.210 HD
ENDBRANCH  18  23
BRANCH  19  25
HETATM   25  O   UNK N   1      18.184  18.627   2.307  0.00  0.00    -0.390 OA
HETATM   26  H   UNK N   1      17.562  18.141   1.743  0.00  0.00     0.210 HD
ENDBRANCH  19  25
BRANCH  20  27
HETATM   27  O   UNK N   1      20.218  20.320   1.342  0.00  0.00    -0.390 OA
HETATM   28  H   UNK N   1      19.722  21.146   1.243  0.00  0.00     0.210 HD
ENDBRANCH  20  27
BRANCH  21  29
HETATM   29  C   UNK N   1      22.738  20.420   2.873  0.00  0.00     0.198 C 
BRANCH  29  30
HETATM   30  O   UNK N   1      21.971  21.585   2.949  0.00  0.00    -0.398 OA
HETATM   31  H   UNK N   1      22.182  22.422   3.391  0.00  0.00     0.209 HD
ENDBRANCH  29  30
ENDBRANCH  21  29
ENDBRANCH   1  17
TORSDOF 12
ENDMDL
MODEL 5
REMARK VINA RESULT:      -6.1     13.593     16.413
REMARK  12 active torsions:
REMARK  status: ('A' for Active; 'I' for Inactive)
REMARK    1  A    between atoms: C_3  and  C_1 
REMARK    2  A    between atoms: O_13  and  C_1 
REMARK    3  A    between atoms: C_4  and  C_2 
REMARK    4  A    between atoms: O_21  and  C_2 
REMARK    5  A    between atoms: C_5  and  O_14 
REMARK    6  A    between atoms: C_6  and  O_15 
REMARK    7  A    between atoms: C_7  and  O_16 
REMARK    8  A    between atoms: C_8  and  O_17 
REMARK    9  A    between atoms: C_9  and  O_18 
REMARK   10  A    between atoms: C_10  and  O_19 
REMARK   11  A    between atoms: O_20  and  C_11 
REMARK   12  A    between atoms: C_12  and  O_21 
ROOT
HETATM    1  O   UNK N   1      32.984  14.308   9.271  0.00  0.00    -0.356 OA
ENDROOT
BRANCH   1   2
HETATM    2  C   UNK N   1      34.170  13.572   9.112  0.00  0.00     0.205 C 
BRANCH   2   3
HETATM    3  C   UNK N   1      34.642  12.912  10.419  0.00  0.00     0.180 C 
HETATM    4  C   UNK N   1      34.772  13.954  11.565  0.00  0.00     0.180 C 
HETATM    5  C   UNK N   1      36.151  14.667  11.584  0.00  0.00     0.183 C 
HETATM    6  C   UNK N   1      36.830  14.503  10.225  0.00  0.00     0.204 C 
HETATM    7  C   UNK N   1      36.982  12.980   9.923  0.00  0.00     0.288 C 
HETATM    8  O   UNK N   1      35.834  12.175  10.214  0.00  0.00    -0.349 OA
BRANCH   4   9
HETATM    9  O   UNK N   1      34.543  13.342  12.803  0.00  0.00    -0.390 OA
HETATM   10  H   UNK N   1      34.575  13.302  13.771  0.00  0.00     0.210 HD
ENDBRANCH   4   9
BRANCH   5  11
HETATM   11  O   UNK N   1      36.974  14.108  12.569  0.00  0.00    -0.390 OA
HETATM   12  H   UNK N   1      37.808  14.286  13.032  0.00  0.00     0.210 HD
ENDBRANCH   5  11
BRANCH   6  13
HETATM   13  O   UNK N   1      38.077  15.135  10.207  0.00  0.00    -0.388 OA
HETATM   14  H   UNK N   1      38.558  15.443  10.991  0.00  0.00     0.210 HD
ENDBRANCH   6  13
BRANCH   7  15
HETATM   15  O   UNK N   1      38.048  12.468  10.669  0.00  0.00    -0.369 OA
HETATM   16  H   UNK N   1      38.091  11.980  11.506  0.00  0.00     0.212 HD
ENDBRANCH   7  15
ENDBRANCH   2   3
ENDBRANCH   1   2
BRANCH   1  17
HETATM   17  C   UNK N   1      32.913  15.443   8.414  0.00  0.00     0.291 C 
HETATM   18  C   UNK N   1      34.040  16.519   8.608  0.00  0.00     0.204 C 
HETATM   19  C   UNK N   1      33.860  17.622   7.563  0.00  0.00     0.183 C 
HETATM   20  C   UNK N   1      33.839  17.007   6.166  0.00  0.00     0.180 C 
HETATM   21  C   UNK N   1      32.732  15.933   6.119  0.00  0.00     0.179 C 
HETATM   22  O   UNK N   1      32.992  14.934   7.091  0.00  0.00    -0.348 OA
BRANCH  18  23
HETATM   23  O   UNK N   1      33.985  17.120   9.869  0.00  0.00    -0.388 OA
HETATM   24  H   UNK N   1      33.215  17.047  10.455  0.00  0.00     0.210 HD
ENDBRANCH  18  23
BRANCH  19  25
HETATM   25  O   UNK N   1      34.894  18.555   7.666  0.00  0.00    -0.390 OA
HETATM   26  H   UNK N   1      35.110  19.203   6.977  0.00  0.00     0.210 HD
ENDBRANCH  19  25
BRANCH  20  27
HETATM   27  O   UNK N   1      33.602  18.012   5.223  0.00  0.00    -0.390 OA
HETATM   28  H   UNK N   1      33.125  18.842   5.374  0.00  0.00     0.210 HD
ENDBRANCH  20  27
BRANCH  21  29
HETATM   29  C   UNK N   1      32.694  15.244   4.757  0.00  0.00     0.198 C 
BRANCH  29  30
HETATM   30  O   UNK N   1      33.892  15.428   4.064  0.00  0.00    -0.398 OA
HETATM   31  H   UNK N   1      34.745  14.988   4.200  0.00  0.00     0.209 HD
ENDBRANCH  29  30
ENDBRANCH  21  29
ENDBRANCH   1  17
TORSDOF 12
ENDMDL
MODEL 6
REMARK VINA RESULT:      -6.0     10.077     12.675
REMARK  12 active torsions:
REMARK  status: ('A' for Active; 'I' for Inactive)
REMARK    1  A    between atoms: C_3  and  C_1 
REMARK    2  A    between atoms: O_13  and  C_1 
REMARK    3  A    between atoms: C_4  and  C_2 
REMARK    4  A    between atoms: O_21  and  C_2 
REMARK    5  A    between atoms: C_5  and  O_14 
REMARK    6  A    between atoms: C_6  and  O_15 
REMARK    7  A    between atoms: C_7  and  O_16 
REMARK    8  A    between atoms: C_8  and  O_17 
REMARK    9  A    between atoms: C_9  and  O_18 
REMARK   10  A    between atoms: C_10  and  O_19 
REMARK   11  A    between atoms: O_20  and  C_11 
REMARK   12  A    between atoms: C_12  and  O_21 
ROOT
HETATM    1  O   UNK N   1      31.309  15.578   6.045  0.00  0.00    -0.356 OA
ENDROOT
BRANCH   1   2
HETATM    2  C   UNK N   1      32.548  15.735   6.687  0.00  0.00     0.205 C 
BRANCH   2   3
HETATM    3  C   UNK N   1      32.475  16.675   7.902  0.00  0.00     0.180 C 
HETATM    4  C   UNK N   1      33.833  17.390   8.149  0.00  0.00     0.180 C 
HETATM    5  C   UNK N   1      34.808  16.556   9.022  0.00  0.00     0.183 C 
HETATM    6  C   UNK N   1      34.372  15.091   9.020  0.00  0.00     0.204 C 
HETATM    7  C   UNK N   1      32.911  15.005   9.560  0.00  0.00     0.288 C 
HETATM    8  O   UNK N   1      32.005  15.988   9.048  0.00  0.00    -0.349 OA
BRANCH   4   9
HETATM    9  O   UNK N   1      33.621  18.639   8.744  0.00  0.00    -0.390 OA
HETATM   10  H   UNK N   1      33.477  19.598   8.724  0.00  0.00     0.210 HD
ENDBRANCH   4   9
BRANCH   5  11
HETATM   11  O   UNK N   1      34.803  17.025  10.341  0.00  0.00    -0.390 OA
HETATM   12  H   UNK N   1      35.198  16.825  11.204  0.00  0.00     0.210 HD
ENDBRANCH   5  11
BRANCH   6  13
HETATM   13  O   UNK N   1      35.232  14.310   9.798  0.00  0.00    -0.388 OA
HETATM   14  H   UNK N   1      35.048  13.406  10.096  0.00  0.00     0.210 HD
ENDBRANCH   6  13
BRANCH   7  15
HETATM   15  O   UNK N   1      32.928  15.139  10.951  0.00  0.00    -0.369 OA
HETATM   16  H   UNK N   1      32.225  15.151  11.619  0.00  0.00     0.212 HD
ENDBRANCH   7  15
ENDBRANCH   2   3
ENDBRANCH   1   2
BRANCH   1  17
HETATM   17  C   UNK N   1      30.491  16.742   6.120  0.00  0.00     0.291 C 
HETATM   18  C   UNK N   1      29.783  17.168   4.785  0.00  0.00     0.204 C 
HETATM   19  C   UNK N   1      28.890  18.380   5.061  0.00  0.00     0.183 C 
HETATM   20  C   UNK N   1      27.915  18.052   6.189  0.00  0.00     0.180 C 
HETATM   21  C   UNK N   1      28.726  17.597   7.421  0.00  0.00     0.179 C 
HETATM   22  O   UNK N   1      29.496  16.454   7.091  0.00  0.00    -0.348 OA
BRANCH  18  23
HETATM   23  O   UNK N   1      30.700  17.537   3.796  0.00  0.00    -0.388 OA
HETATM   24  H   UNK N   1      31.362  18.234   3.924  0.00  0.00     0.210 HD
ENDBRANCH  18  23
BRANCH  19  25
HETATM   25  O   UNK N   1      28.190  18.734   3.905  0.00  0.00    -0.390 OA
HETATM   26  H   UNK N   1      28.505  18.555   3.005  0.00  0.00     0.210 HD
ENDBRANCH  19  25
BRANCH  20  27
HETATM   27  O   UNK N   1      27.152  19.186   6.484  0.00  0.00    -0.390 OA
HETATM   28  H   UNK N   1      27.462  19.988   6.933  0.00  0.00     0.210 HD
ENDBRANCH  20  27
BRANCH  21  29
HETATM   29  C   UNK N   1      27.801  17.207   8.572  0.00  0.00     0.198 C 
BRANCH  29  30
HETATM   30  O   UNK N   1      27.440  18.321   9.331  0.00  0.00    -0.398 OA
HETATM   31  H   UNK N   1      27.335  19.242   9.045  0.00  0.00     0.209 HD
ENDBRANCH  29  30
ENDBRANCH  21  29
ENDBRANCH   1  17
TORSDOF 12
ENDMDL
MODEL 7
REMARK VINA RESULT:      -6.0     13.985     15.529
REMARK  12 active torsions:
REMARK  status: ('A' for Active; 'I' for Inactive)
REMARK    1  A    between atoms: C_3  and  C_1 
REMARK    2  A    between atoms: O_13  and  C_1 
REMARK    3  A    between atoms: C_4  and  C_2 
REMARK    4  A    between atoms: O_21  and  C_2 
REMARK    5  A    between atoms: C_5  and  O_14 
REMARK    6  A    between atoms: C_6  and  O_15 
REMARK    7  A    between atoms: C_7  and  O_16 
REMARK    8  A    between atoms: C_8  and  O_17 
REMARK    9  A    between atoms: C_9  and  O_18 
REMARK   10  A    between atoms: C_10  and  O_19 
REMARK   11  A    between atoms: O_20  and  C_11 
REMARK   12  A    between atoms: C_12  and  O_21 
ROOT
HETATM    1  O   UNK N   1      28.479  23.340  -3.621  0.00  0.00    -0.356 OA
ENDROOT
BRANCH   1   2
HETATM    2  C   UNK N   1      28.137  24.682  -3.855  0.00  0.00     0.205 C 
BRANCH   2   3
HETATM    3  C   UNK N   1      26.618  24.901  -3.957  0.00  0.00     0.180 C 
HETATM    4  C   UNK N   1      26.191  25.245  -5.411  0.00  0.00     0.180 C 
HETATM    5  C   UNK N   1      26.296  26.760  -5.732  0.00  0.00     0.183 C 
HETATM    6  C   UNK N   1      27.211  27.437  -4.713  0.00  0.00     0.204 C 
HETATM    7  C   UNK N   1      26.632  27.198  -3.285  0.00  0.00     0.288 C 
HETATM    8  O   UNK N   1      26.180  25.866  -3.017  0.00  0.00    -0.349 OA
BRANCH   4   9
HETATM    9  O   UNK N   1      24.884  24.804  -5.648  0.00  0.00    -0.390 OA
HETATM   10  H   UNK N   1      24.087  24.701  -6.191  0.00  0.00     0.210 HD
ENDBRANCH   4   9
BRANCH   5  11
HETATM   11  O   UNK N   1      25.032  27.359  -5.669  0.00  0.00    -0.390 OA
HETATM   12  H   UNK N   1      24.161  27.310  -6.096  0.00  0.00     0.210 HD
ENDBRANCH   5  11
BRANCH   6  13
HETATM   13  O   UNK N   1      27.328  28.806  -4.974  0.00  0.00    -0.388 OA
HETATM   14  H   UNK N   1      28.111  29.345  -4.783  0.00  0.00     0.210 HD
ENDBRANCH   6  13
BRANCH   7  15
HETATM   15  O   UNK N   1      25.547  28.054  -3.080  0.00  0.00    -0.369 OA
HETATM   16  H   UNK N   1      24.901  28.453  -3.683  0.00  0.00     0.212 HD
ENDBRANCH   7  15
ENDBRANCH   2   3
ENDBRANCH   1   2
BRANCH   1  17
HETATM   17  C   UNK N   1      29.869  23.079  -3.801  0.00  0.00     0.291 C 
HETATM   18  C   UNK N   1      30.571  22.286  -2.642  0.00  0.00     0.204 C 
HETATM   19  C   UNK N   1      32.028  22.026  -3.030  0.00  0.00     0.183 C 
HETATM   20  C   UNK N   1      32.080  21.309  -4.376  0.00  0.00     0.180 C 
HETATM   21  C   UNK N   1      31.313  22.157  -5.414  0.00  0.00     0.179 C 
HETATM   22  O   UNK N   1      29.968  22.321  -4.997  0.00  0.00    -0.348 OA
BRANCH  18  23
HETATM   23  O   UNK N   1      30.576  23.002  -1.441  0.00  0.00    -0.388 OA
HETATM   24  H   UNK N   1      30.810  23.941  -1.387  0.00  0.00     0.210 HD
ENDBRANCH  18  23
BRANCH  19  25
HETATM   25  O   UNK N   1      32.657  21.257  -2.048  0.00  0.00    -0.390 OA
HETATM   26  H   UNK N   1      33.609  21.286  -1.864  0.00  0.00     0.210 HD
ENDBRANCH  19  25
BRANCH  20  27
HETATM   27  O   UNK N   1      33.415  21.140  -4.758  0.00  0.00    -0.390 OA
HETATM   28  H   UNK N   1      33.922  21.717  -5.349  0.00  0.00     0.210 HD
ENDBRANCH  20  27
BRANCH  21  29
HETATM   29  C   UNK N   1      31.288  21.466  -6.775  0.00  0.00     0.198 C 
BRANCH  29  30
HETATM   30  O   UNK N   1      31.490  20.091  -6.648  0.00  0.00    -0.398 OA
HETATM   31  H   UNK N   1      32.294  19.618  -6.383  0.00  0.00     0.209 HD
ENDBRANCH  29  30
ENDBRANCH  21  29
ENDBRANCH   1  17
TORSDOF 12
ENDMDL
MODEL 8
REMARK VINA RESULT:      -5.9      3.863      6.894
REMARK  12 active torsions:
REMARK  status: ('A' for Active; 'I' for Inactive)
REMARK    1  A    between atoms: C_3  and  C_1 
REMARK    2  A    between atoms: O_13  and  C_1 
REMARK    3  A    between atoms: C_4  and  C_2 
REMARK    4  A    between atoms: O_21  and  C_2 
REMARK    5  A    between atoms: C_5  and  O_14 
REMARK    6  A    between atoms: C_6  and  O_15 
REMARK    7  A    between atoms: C_7  and  O_16 
REMARK    8  A    between atoms: C_8  and  O_17 
REMARK    9  A    between atoms: C_9  and  O_18 
REMARK   10  A    between atoms: C_10  and  O_19 
REMARK   11  A    between atoms: O_20  and  C_11 
REMARK   12  A    between atoms: C_12  and  O_21 
ROOT
HETATM    1  O   UNK N   1      23.425  18.485   4.767  0.00  0.00    -0.356 OA
ENDROOT
BRANCH   1   2
HETATM    2  C   UNK N   1      24.318  19.389   4.167  0.00  0.00     0.205 C 
BRANCH   2   3
HETATM    3  C   UNK N   1      25.498  18.688   3.474  0.00  0.00     0.180 C 
HETATM    4  C   UNK N   1      25.932  17.410   4.245  0.00  0.00     0.180 C 
HETATM    5  C   UNK N   1      26.947  17.703   5.382  0.00  0.00     0.183 C 
HETATM    6  C   UNK N   1      26.899  19.187   5.742  0.00  0.00     0.204 C 
HETATM    7  C   UNK N   1      27.221  20.022   4.464  0.00  0.00     0.288 C 
HETATM    8  O   UNK N   1      26.571  19.589   3.263  0.00  0.00    -0.349 OA
BRANCH   4   9
HETATM    9  O   UNK N   1      26.475  16.472   3.360  0.00  0.00    -0.390 OA
HETATM   10  H   UNK N   1      26.846  16.194   2.508  0.00  0.00     0.210 HD
ENDBRANCH   4   9
BRANCH   5  11
HETATM   11  O   UNK N   1      28.246  17.383   4.969  0.00  0.00    -0.390 OA
HETATM   12  H   UNK N   1      29.143  17.293   5.330  0.00  0.00     0.210 HD
ENDBRANCH   5  11
BRANCH   6  13
HETATM   13  O   UNK N   1      27.803  19.486   6.765  0.00  0.00    -0.388 OA
HETATM   14  H   UNK N   1      28.458  18.870   7.129  0.00  0.00     0.210 HD
ENDBRANCH   6  13
BRANCH   7  15
HETATM   15  O   UNK N   1      28.598  19.985   4.227  0.00  0.00    -0.369 OA
HETATM   16  H   UNK N   1      29.191  19.292   3.899  0.00  0.00     0.212 HD
ENDBRANCH   7  15
ENDBRANCH   2   3
ENDBRANCH   1   2
BRANCH   1  17
HETATM   17  C   UNK N   1      22.342  18.122   3.915  0.00  0.00     0.291 C 
HETATM   18  C   UNK N   1      21.090  17.499   4.628  0.00  0.00     0.204 C 
HETATM   19  C   UNK N   1      20.001  17.242   3.585  0.00  0.00     0.183 C 
HETATM   20  C   UNK N   1      19.693  18.536   2.836  0.00  0.00     0.180 C 
HETATM   21  C   UNK N   1      21.006  19.075   2.229  0.00  0.00     0.179 C 
HETATM   22  O   UNK N   1      21.946  19.318   3.262  0.00  0.00    -0.348 OA
BRANCH  18  23
HETATM   23  O   UNK N   1      21.385  16.276   5.239  0.00  0.00    -0.388 OA
HETATM   24  H   UNK N   1      22.071  15.674   4.911  0.00  0.00     0.210 HD
ENDBRANCH  18  23
BRANCH  19  25
HETATM   25  O   UNK N   1      18.847  16.756   4.204  0.00  0.00    -0.390 OA
HETATM   26  H   UNK N   1      17.990  17.210   4.188  0.00  0.00     0.210 HD
ENDBRANCH  19  25
BRANCH  20  27
HETATM   27  O   UNK N   1      18.750  18.278   1.836  0.00  0.00    -0.390 OA
HETATM   28  H   UNK N   1      18.587  17.425   1.406  0.00  0.00     0.210 HD
ENDBRANCH  20  27
BRANCH  21  29
HETATM   29  C   UNK N   1      20.772  20.399   1.505  0.00  0.00     0.198 C 
BRANCH  29  30
HETATM   30  O   UNK N   1      20.628  20.206   0.130  0.00  0.00    -0.398 OA
HETATM   31  H   UNK N   1      21.116  20.624  -0.596  0.00  0.00     0.209 HD
ENDBRANCH  29  30
ENDBRANCH  21  29
ENDBRANCH   1  17
TORSDOF 12
ENDMDL
MODEL 9
REMARK VINA RESULT:      -5.9     13.895     16.577
REMARK  12 active torsions:
REMARK  status: ('A' for Active; 'I' for Inactive)
REMARK    1  A    between atoms: C_3  and  C_1 
REMARK    2  A    between atoms: O_13  and  C_1 
REMARK    3  A    between atoms: C_4  and  C_2 
REMARK    4  A    between atoms: O_21  and  C_2 
REMARK    5  A    between atoms: C_5  and  O_14 
REMARK    6  A    between atoms: C_6  and  O_15 
REMARK    7  A    between atoms: C_7  and  O_16 
REMARK    8  A    between atoms: C_8  and  O_17 
REMARK    9  A    between atoms: C_9  and  O_18 
REMARK   10  A    between atoms: C_10  and  O_19 
REMARK   11  A    between atoms: O_20  and  C_11 
REMARK   12  A    between atoms: C_12  and  O_21 
ROOT
HETATM    1  O   UNK N   1      33.695  13.468   9.113  0.00  0.00    -0.356 OA
ENDROOT
BRANCH   1   2
HETATM    2  C   UNK N   1      34.702  12.513   9.330  0.00  0.00     0.205 C 
BRANCH   2   3
HETATM    3  C   UNK N   1      35.088  12.380  10.813  0.00  0.00     0.180 C 
HETATM    4  C   UNK N   1      34.805  13.695  11.592  0.00  0.00     0.180 C 
HETATM    5  C   UNK N   1      35.977  14.710  11.516  0.00  0.00     0.183 C 
HETATM    6  C   UNK N   1      36.886  14.355  10.340  0.00  0.00     0.204 C 
HETATM    7  C   UNK N   1      37.408  12.898  10.534  0.00  0.00     0.288 C 
HETATM    8  O   UNK N   1      36.428  11.942  10.952  0.00  0.00    -0.349 OA
BRANCH   4   9
HETATM    9  O   UNK N   1      34.516  13.412  12.931  0.00  0.00    -0.390 OA
HETATM   10  H   UNK N   1      33.924  13.341  13.697  0.00  0.00     0.210 HD
ENDBRANCH   4   9
BRANCH   5  11
HETATM   11  O   UNK N   1      36.731  14.671  12.694  0.00  0.00    -0.390 OA
HETATM   12  H   UNK N   1      37.087  15.269  13.372  0.00  0.00     0.210 HD
ENDBRANCH   5  11
BRANCH   6  13
HETATM   13  O   UNK N   1      37.955  15.252  10.242  0.00  0.00    -0.388 OA
HETATM   14  H   UNK N   1      38.728  15.137   9.668  0.00  0.00     0.210 HD
ENDBRANCH   6  13
BRANCH   7  15
HETATM   15  O   UNK N   1      38.424  12.899  11.494  0.00  0.00    -0.369 OA
HETATM   16  H   UNK N   1      39.315  12.518  11.508  0.00  0.00     0.212 HD
ENDBRANCH   7  15
ENDBRANCH   2   3
ENDBRANCH   1   2
BRANCH   1  17
HETATM   17  C   UNK N   1      34.044  14.429   8.121  0.00  0.00     0.291 C 
HETATM   18  C   UNK N   1      33.120  14.468   6.852  0.00  0.00     0.204 C 
HETATM   19  C   UNK N   1      33.585  15.600   5.933  0.00  0.00     0.183 C 
HETATM   20  C   UNK N   1      33.608  16.914   6.709  0.00  0.00     0.180 C 
HETATM   21  C   UNK N   1      34.501  16.732   7.955  0.00  0.00     0.179 C 
HETATM   22  O   UNK N   1      33.983  15.692   8.767  0.00  0.00    -0.348 OA
BRANCH  18  23
HETATM   23  O   UNK N   1      33.179  13.279   6.119  0.00  0.00    -0.388 OA
HETATM   24  H   UNK N   1      32.388  12.794   5.835  0.00  0.00     0.210 HD
ENDBRANCH  18  23
BRANCH  19  25
HETATM   25  O   UNK N   1      32.734  15.704   4.831  0.00  0.00    -0.390 OA
HETATM   26  H   UNK N   1      31.772  15.582   4.875  0.00  0.00     0.210 HD
ENDBRANCH  19  25
BRANCH  20  27
HETATM   27  O   UNK N   1      34.103  17.929   5.884  0.00  0.00    -0.390 OA
HETATM   28  H   UNK N   1      33.664  18.300   5.103  0.00  0.00     0.210 HD
ENDBRANCH  20  27
BRANCH  21  29
HETATM   29  C   UNK N   1      34.526  18.002   8.802  0.00  0.00     0.198 C 
BRANCH  29  30
HETATM   30  O   UNK N   1      35.278  19.005   8.188  0.00  0.00    -0.398 OA
HETATM   31  H   UNK N   1      35.815  18.954   7.383  0.00  0.00     0.209 HD
ENDBRANCH  29  30
ENDBRANCH  21  29
ENDBRANCH   1  17
TORSDOF 12
ENDMDL
