MODEL 1
REMARK VINA RESULT:      -5.8      0.000      0.000
REMARK  6 active torsions:
REMARK  status: ('A' for Active; 'I' for Inactive)
REMARK    1  A    between atoms: N_18  and  Cu_13 
REMARK    2  A    between atoms: N_19  and  Cu_13 
REMARK    3  A    between atoms: N_20  and  Cu_13 
REMARK    4  A    between atoms: N_21  and  Cu_13 
REMARK    5  A    between atoms: O_22  and  Cu_13 
REMARK    6  A    between atoms: O_23  and  Cu_13 
ROOT
HETATM    1 Cu   UNK N   1      33.983  15.942   6.734  0.00  0.00     0.000 Cu
ENDROOT
BRANCH   1   2
HETATM    2  N   UNK N   1      33.087  15.580   4.980  0.00  0.00    -0.255 N 
HETATM    3  C   UNK N   1      32.311  14.540   4.637  0.00  0.00     0.135 A 
HETATM    4  C   UNK N   1      32.059  14.627   3.281  0.00  0.00     0.108 A 
HETATM    5  N   UNK N   1      32.691  15.710   2.793  0.00  0.00    -0.359 N 
HETATM    6  C   UNK N   1      33.321  16.266   3.843  0.00  0.00     0.206 A 
HETATM    7  H   UNK N   1      32.694  16.029   1.862  0.00  0.00     0.166 HD
ENDBRANCH   1   2
BRANCH   1   8
HETATM    8  N   UNK N   1      33.949  13.981   7.161  0.00  0.00    -0.255 N 
HETATM    9  C   UNK N   1      34.714  12.982   6.691  0.00  0.00     0.135 A 
HETATM   10  C   UNK N   1      34.156  11.787   7.107  0.00  0.00     0.108 A 
HETATM   11  N   UNK N   1      33.044  12.054   7.818  0.00  0.00    -0.359 N 
HETATM   12  C   UNK N   1      32.931  13.394   7.825  0.00  0.00     0.206 A 
HETATM   13  H   UNK N   1      32.439  11.405   8.244  0.00  0.00     0.166 HD
ENDBRANCH   1   8
BRANCH   1  14
HETATM   14  N   UNK N   1      32.162  16.421   7.445  0.00  0.00    -0.255 N 
HETATM   15  C   UNK N   1      31.185  17.142   6.871  0.00  0.00     0.135 A 
HETATM   16  C   UNK N   1      30.240  17.430   7.838  0.00  0.00     0.108 A 
HETATM   17  N   UNK N   1      30.646  16.900   9.006  0.00  0.00    -0.359 N 
HETATM   18  C   UNK N   1      31.824  16.306   8.746  0.00  0.00     0.206 A 
HETATM   19  H   UNK N   1      30.178  16.938   9.871  0.00  0.00     0.166 HD
ENDBRANCH   1  14
BRANCH   1  20
HETATM   20  N   UNK N   1      34.815  16.216   8.545  0.00  0.00    -0.255 N 
HETATM   21  C   UNK N   1      35.396  15.281   9.319  0.00  0.00     0.135 A 
HETATM   22  C   UNK N   1      35.725  15.867  10.525  0.00  0.00     0.108 A 
HETATM   23  N   UNK N   1      35.339  17.157  10.493  0.00  0.00    -0.359 N 
HETATM   24  C   UNK N   1      34.781  17.341   9.284  0.00  0.00     0.206 A 
HETATM   25  H   UNK N   1      35.443  17.826  11.207  0.00  0.00     0.166 HD
ENDBRANCH   1  20
BRANCH   1  26
HETATM   26  O   UNK N   1      34.185  17.780   6.296  0.00  0.00     0.000 OA
HETATM   27  H   UNK N   1      34.286  18.302   5.485  0.00  0.00     0.000 HD
HETATM   28  H   UNK N   1      34.186  18.341   7.087  0.00  0.00     0.000 HD
ENDBRANCH   1  26
BRANCH   1  29
HETATM   29  O   UNK N   1      35.701  15.644   5.982  0.00  0.00     0.000 OA
HETATM   30  H   UNK N   1      36.307  15.967   5.297  0.00  0.00     0.000 HD
HETATM   31  H   UNK N   1      36.124  14.906   6.450  0.00  0.00     0.000 HD
ENDBRANCH   1  29
TORSDOF 6
ENDMDL
MODEL 2
REMARK VINA RESULT:      -5.7      1.094      5.588
REMARK  6 active torsions:
REMARK  status: ('A' for Active; 'I' for Inactive)
REMARK    1  A    between atoms: N_18  and  Cu_13 
REMARK    2  A    between atoms: N_19  and  Cu_13 
REMARK    3  A    between atoms: N_20  and  Cu_13 
REMARK    4  A    between atoms: N_21  and  Cu_13 
REMARK    5  A    between atoms: O_22  and  Cu_13 
REMARK    6  A    between atoms: O_23  and  Cu_13 
ROOT
HETATM    1 Cu   UNK N   1      33.866  16.114   6.767  0.00  0.00     0.000 Cu
ENDROOT
BRANCH   1   2
HETATM    2  N   UNK N   1      34.264  15.828   8.709  0.00  0.00    -0.255 N 
HETATM    3  C   UNK N   1      33.841  14.839   9.512  0.00  0.00     0.135 A 
HETATM    4  C   UNK N   1      34.226  15.145  10.803  0.00  0.00     0.108 A 
HETATM    5  N   UNK N   1      34.872  16.326  10.792  0.00  0.00    -0.359 N 
HETATM    6  C   UNK N   1      34.870  16.728   9.509  0.00  0.00     0.206 A 
HETATM    7  H   UNK N   1      35.262  16.798  11.562  0.00  0.00     0.166 HD
ENDBRANCH   1   2
BRANCH   1   8
HETATM    8  N   UNK N   1      31.985  16.640   7.226  0.00  0.00    -0.255 N 
HETATM    9  C   UNK N   1      30.830  16.345   6.606  0.00  0.00     0.135 A 
HETATM   10  C   UNK N   1      29.834  17.126   7.165  0.00  0.00     0.108 A 
HETATM   11  N   UNK N   1      30.382  17.908   8.115  0.00  0.00    -0.359 N 
HETATM   12  C   UNK N   1      31.692  17.604   8.125  0.00  0.00     0.206 A 
HETATM   13  H   UNK N   1      29.920  18.564   8.685  0.00  0.00     0.166 HD
ENDBRANCH   1   8
BRANCH   1  14
HETATM   14  N   UNK N   1      33.584  14.125   6.641  0.00  0.00    -0.255 N 
HETATM   15  C   UNK N   1      34.484  13.146   6.457  0.00  0.00     0.135 A 
HETATM   16  C   UNK N   1      33.798  11.981   6.167  0.00  0.00     0.108 A 
HETATM   17  N   UNK N   1      32.480  12.251   6.157  0.00  0.00    -0.359 N 
HETATM   18  C   UNK N   1      32.375  13.563   6.431  0.00  0.00     0.206 A 
HETATM   19  H   UNK N   1      31.745  11.620   5.985  0.00  0.00     0.166 HD
ENDBRANCH   1  14
BRANCH   1  20
HETATM   20  N   UNK N   1      33.353  16.358   4.837  0.00  0.00    -0.255 N 
HETATM   21  C   UNK N   1      32.672  17.388   4.305  0.00  0.00     0.135 A 
HETATM   22  C   UNK N   1      32.432  17.101   2.976  0.00  0.00     0.108 A 
HETATM   23  N   UNK N   1      32.959  15.894   2.697  0.00  0.00    -0.359 N 
HETATM   24  C   UNK N   1      33.504  15.459   3.846  0.00  0.00     0.206 A 
HETATM   25  H   UNK N   1      32.947  15.426   1.830  0.00  0.00     0.166 HD
ENDBRANCH   1  20
BRANCH   1  26
HETATM   26  O   UNK N   1      35.680  15.784   6.308  0.00  0.00     0.000 OA
HETATM   27  H   UNK N   1      36.189  15.043   5.945  0.00  0.00     0.000 HD
HETATM   28  H   UNK N   1      36.242  16.556   6.480  0.00  0.00     0.000 HD
ENDBRANCH   1  26
BRANCH   1  29
HETATM   29  O   UNK N   1      34.303  17.958   6.891  0.00  0.00     0.000 OA
HETATM   30  H   UNK N   1      33.957  18.845   6.704  0.00  0.00     0.000 HD
HETATM   31  H   UNK N   1      35.188  18.044   7.279  0.00  0.00     0.000 HD
ENDBRANCH   1  29
TORSDOF 6
ENDMDL
MODEL 3
REMARK VINA RESULT:      -5.5      2.024      4.549
REMARK  6 active torsions:
REMARK  status: ('A' for Active; 'I' for Inactive)
REMARK    1  A    between atoms: N_18  and  Cu_13 
REMARK    2  A    between atoms: N_19  and  Cu_13 
REMARK    3  A    between atoms: N_20  and  Cu_13 
REMARK    4  A    between atoms: N_21  and  Cu_13 
REMARK    5  A    between atoms: O_22  and  Cu_13 
REMARK    6  A    between atoms: O_23  and  Cu_13 
ROOT
HETATM    1 Cu   UNK N   1      32.541  15.023   6.794  0.00  0.00     0.000 Cu
ENDROOT
BRANCH   1   2
HETATM    2  N   UNK N   1      30.818  16.043   6.735  0.00  0.00    -0.255 N 
HETATM    3  C   UNK N   1      30.395  17.016   7.557  0.00  0.00     0.135 A 
HETATM    4  C   UNK N   1      29.082  17.303   7.235  0.00  0.00     0.108 A 
HETATM    5  N   UNK N   1      28.699  16.497   6.227  0.00  0.00    -0.359 N 
HETATM    6  C   UNK N   1      29.768  15.731   5.949  0.00  0.00     0.206 A 
HETATM    7  H   UNK N   1      27.820  16.473   5.785  0.00  0.00     0.166 HD
ENDBRANCH   1   2
BRANCH   1   8
HETATM    8  N   UNK N   1      33.416  16.549   7.759  0.00  0.00    -0.255 N 
HETATM    9  C   UNK N   1      33.909  17.704   7.282  0.00  0.00     0.135 A 
HETATM   10  C   UNK N   1      34.613  18.320   8.300  0.00  0.00     0.108 A 
HETATM   11  N   UNK N   1      34.563  17.537   9.394  0.00  0.00    -0.359 N 
HETATM   12  C   UNK N   1      33.842  16.460   9.037  0.00  0.00     0.206 A 
HETATM   13  H   UNK N   1      34.969  17.715  10.273  0.00  0.00     0.166 HD
ENDBRANCH   1   8
BRANCH   1  14
HETATM   14  N   UNK N   1      32.859  15.656   4.911  0.00  0.00    -0.255 N 
HETATM   15  C   UNK N   1      32.807  16.901   4.409  0.00  0.00     0.135 A 
HETATM   16  C   UNK N   1      32.827  16.809   3.030  0.00  0.00     0.108 A 
HETATM   17  N   UNK N   1      32.874  15.508   2.687  0.00  0.00    -0.359 N 
HETATM   18  C   UNK N   1      32.876  14.827   3.846  0.00  0.00     0.206 A 
HETATM   19  H   UNK N   1      32.902  15.134   1.778  0.00  0.00     0.166 HD
ENDBRANCH   1  14
BRANCH   1  20
HETATM   20  N   UNK N   1      34.330  14.104   6.839  0.00  0.00    -0.255 N 
HETATM   21  C   UNK N   1      34.646  12.979   7.504  0.00  0.00     0.135 A 
HETATM   22  C   UNK N   1      36.003  12.764   7.362  0.00  0.00     0.108 A 
HETATM   23  N   UNK N   1      36.518  13.761   6.618  0.00  0.00    -0.359 N 
HETATM   24  C   UNK N   1      35.484  14.567   6.321  0.00  0.00     0.206 A 
HETATM   25  H   UNK N   1      37.458  13.876   6.348  0.00  0.00     0.166 HD
ENDBRANCH   1  20
BRANCH   1  26
HETATM   26  O   UNK N   1      31.707  13.495   6.033  0.00  0.00     0.000 OA
HETATM   27  H   UNK N   1      31.969  12.774   5.440  0.00  0.00     0.000 HD
HETATM   28  H   UNK N   1      30.780  13.415   6.309  0.00  0.00     0.000 HD
ENDBRANCH   1  26
BRANCH   1  29
HETATM   29  O   UNK N   1      32.126  14.312   8.506  0.00  0.00     0.000 OA
HETATM   30  H   UNK N   1      32.209  14.495   9.455  0.00  0.00     0.000 HD
HETATM   31  H   UNK N   1      31.668  13.465   8.390  0.00  0.00     0.000 HD
ENDBRANCH   1  29
TORSDOF 6
ENDMDL
MODEL 4
REMARK VINA RESULT:      -5.5      2.067      4.877
REMARK  6 active torsions:
REMARK  status: ('A' for Active; 'I' for Inactive)
REMARK    1  A    between atoms: N_18  and  Cu_13 
REMARK    2  A    between atoms: N_19  and  Cu_13 
REMARK    3  A    between atoms: N_20  and  Cu_13 
REMARK    4  A    between atoms: N_21  and  Cu_13 
REMARK    5  A    between atoms: O_22  and  Cu_13 
REMARK    6  A    between atoms: O_23  and  Cu_13 
ROOT
HETATM    1 Cu   UNK N   1      32.527  15.028   6.681  0.00  0.00     0.000 Cu
ENDROOT
BRANCH   1   2
HETATM    2  N   UNK N   1      34.345  14.187   6.689  0.00  0.00    -0.255 N 
HETATM    3  C   UNK N   1      34.726  13.027   7.248  0.00  0.00     0.135 A 
HETATM    4  C   UNK N   1      36.102  12.939   7.147  0.00  0.00     0.108 A 
HETATM    5  N   UNK N   1      36.562  14.049   6.540  0.00  0.00    -0.359 N 
HETATM    6  C   UNK N   1      35.476  14.798   6.283  0.00  0.00     0.206 A 
HETATM    7  H   UNK N   1      37.498  14.267   6.329  0.00  0.00     0.166 HD
ENDBRANCH   1   2
BRANCH   1   8
HETATM    8  N   UNK N   1      32.856  15.729   4.829  0.00  0.00    -0.255 N 
HETATM    9  C   UNK N   1      32.675  16.962   4.328  0.00  0.00     0.135 A 
HETATM   10  C   UNK N   1      32.821  16.890   2.955  0.00  0.00     0.108 A 
HETATM   11  N   UNK N   1      33.078  15.612   2.615  0.00  0.00    -0.359 N 
HETATM   12  C   UNK N   1      33.080  14.923   3.770  0.00  0.00     0.206 A 
HETATM   13  H   UNK N   1      33.231  15.256   1.711  0.00  0.00     0.166 HD
ENDBRANCH   1   8
BRANCH   1  14
HETATM   14  N   UNK N   1      33.343  16.551   7.712  0.00  0.00    -0.255 N 
HETATM   15  C   UNK N   1      33.912  17.681   7.259  0.00  0.00     0.135 A 
HETATM   16  C   UNK N   1      34.564  18.286   8.317  0.00  0.00     0.108 A 
HETATM   17  N   UNK N   1      34.409  17.520   9.412  0.00  0.00    -0.359 N 
HETATM   18  C   UNK N   1      33.678  16.464   9.016  0.00  0.00     0.206 A 
HETATM   19  H   UNK N   1      34.758  17.696  10.316  0.00  0.00     0.166 HD
ENDBRANCH   1  14
BRANCH   1  20
HETATM   20  N   UNK N   1      30.749  15.965   6.608  0.00  0.00    -0.255 N 
HETATM   21  C   UNK N   1      30.316  16.943   7.424  0.00  0.00     0.135 A 
HETATM   22  C   UNK N   1      29.001  17.218   7.103  0.00  0.00     0.108 A 
HETATM   23  N   UNK N   1      28.628  16.404   6.097  0.00  0.00    -0.359 N 
HETATM   24  C   UNK N   1      29.704  15.647   5.821  0.00  0.00     0.206 A 
HETATM   25  H   UNK N   1      27.749  16.371   5.655  0.00  0.00     0.166 HD
ENDBRANCH   1  20
BRANCH   1  26
HETATM   26  O   UNK N   1      32.114  14.243   8.361  0.00  0.00     0.000 OA
HETATM   27  H   UNK N   1      32.516  13.581   8.946  0.00  0.00     0.000 HD
HETATM   28  H   UNK N   1      31.289  14.594   8.730  0.00  0.00     0.000 HD
ENDBRANCH   1  26
BRANCH   1  29
HETATM   29  O   UNK N   1      31.762  13.498   5.855  0.00  0.00     0.000 OA
HETATM   30  H   UNK N   1      30.994  13.206   5.339  0.00  0.00     0.000 HD
HETATM   31  H   UNK N   1      32.347  12.738   6.000  0.00  0.00     0.000 HD
ENDBRANCH   1  29
TORSDOF 6
ENDMDL
MODEL 5
REMARK VINA RESULT:      -5.4      3.600      5.104
REMARK  6 active torsions:
REMARK  status: ('A' for Active; 'I' for Inactive)
REMARK    1  A    between atoms: N_18  and  Cu_13 
REMARK    2  A    between atoms: N_19  and  Cu_13 
REMARK    3  A    between atoms: N_20  and  Cu_13 
REMARK    4  A    between atoms: N_21  and  Cu_13 
REMARK    5  A    between atoms: O_22  and  Cu_13 
REMARK    6  A    between atoms: O_23  and  Cu_13 
ROOT
HETATM    1 Cu   UNK N   1      35.652  14.511  10.436  0.00  0.00     0.000 Cu
ENDROOT
BRANCH   1   2
HETATM    2  N   UNK N   1      35.077  15.306   8.689  0.00  0.00    -0.255 N 
HETATM    3  C   UNK N   1      35.334  14.868   7.447  0.00  0.00     0.135 A 
HETATM    4  C   UNK N   1      34.883  15.823   6.557  0.00  0.00     0.108 A 
HETATM    5  N   UNK N   1      34.362  16.850   7.255  0.00  0.00    -0.359 N 
HETATM    6  C   UNK N   1      34.504  16.518   8.549  0.00  0.00     0.206 A 
HETATM    7  H   UNK N   1      33.962  17.673   6.893  0.00  0.00     0.166 HD
ENDBRANCH   1   2
BRANCH   1   8
HETATM    8  N   UNK N   1      37.255  13.700   9.543  0.00  0.00    -0.255 N 
HETATM    9  C   UNK N   1      38.482  14.210   9.341  0.00  0.00     0.135 A 
HETATM   10  C   UNK N   1      39.159  13.362   8.483  0.00  0.00     0.108 A 
HETATM   11  N   UNK N   1      38.344  12.344   8.150  0.00  0.00    -0.359 N 
HETATM   12  C   UNK N   1      37.188  12.578   8.796  0.00  0.00     0.206 A 
HETATM   13  H   UNK N   1      38.551  11.585   7.558  0.00  0.00     0.166 HD
ENDBRANCH   1   8
BRANCH   1  14
HETATM   14  N   UNK N   1      34.341  13.029  10.072  0.00  0.00    -0.255 N 
HETATM   15  C   UNK N   1      34.455  11.711  10.309  0.00  0.00     0.135 A 
HETATM   16  C   UNK N   1      33.427  11.066   9.648  0.00  0.00     0.108 A 
HETATM   17  N   UNK N   1      32.693  11.985   8.994  0.00  0.00    -0.359 N 
HETATM   18  C   UNK N   1      33.278  13.168   9.253  0.00  0.00     0.206 A 
HETATM   19  H   UNK N   1      31.895  11.825   8.441  0.00  0.00     0.166 HD
ENDBRANCH   1  14
BRANCH   1  20
HETATM   20  N   UNK N   1      36.269  13.616  12.128  0.00  0.00    -0.255 N 
HETATM   21  C   UNK N   1      35.884  13.905  13.384  0.00  0.00     0.135 A 
HETATM   22  C   UNK N   1      36.637  13.137  14.250  0.00  0.00     0.108 A 
HETATM   23  N   UNK N   1      37.487  12.385  13.526  0.00  0.00    -0.359 N 
HETATM   24  C   UNK N   1      37.251  12.701  12.241  0.00  0.00     0.206 A 
HETATM   25  H   UNK N   1      38.146  11.737  13.867  0.00  0.00     0.166 HD
ENDBRANCH   1  20
BRANCH   1  26
HETATM   26  O   UNK N   1      34.241  15.399  11.348  0.00  0.00     0.000 OA
HETATM   27  H   UNK N   1      33.369  15.755  11.116  0.00  0.00     0.000 HD
HETATM   28  H   UNK N   1      34.445  15.531  12.287  0.00  0.00     0.000 HD
ENDBRANCH   1  26
BRANCH   1  29
HETATM   29  O   UNK N   1      36.752  16.011  10.820  0.00  0.00     0.000 OA
HETATM   30  H   UNK N   1      37.065  16.851  10.448  0.00  0.00     0.000 HD
HETATM   31  H   UNK N   1      37.140  15.897  11.702  0.00  0.00     0.000 HD
ENDBRANCH   1  29
TORSDOF 6
ENDMDL
MODEL 6
REMARK VINA RESULT:      -5.4      3.575      6.652
REMARK  6 active torsions:
REMARK  status: ('A' for Active; 'I' for Inactive)
REMARK    1  A    between atoms: N_18  and  Cu_13 
REMARK    2  A    between atoms: N_19  and  Cu_13 
REMARK    3  A    between atoms: N_20  and  Cu_13 
REMARK    4  A    between atoms: N_21  and  Cu_13 
REMARK    5  A    between atoms: O_22  and  Cu_13 
REMARK    6  A    between atoms: O_23  and  Cu_13 
ROOT
HETATM    1 Cu   UNK N   1      35.703  14.519  10.331  0.00  0.00     0.000 Cu
ENDROOT
BRANCH   1   2
HETATM    2  N   UNK N   1      36.240  13.642  12.050  0.00  0.00    -0.255 N 
HETATM    3  C   UNK N   1      35.822  13.919  13.295  0.00  0.00     0.135 A 
HETATM    4  C   UNK N   1      36.588  13.178  14.175  0.00  0.00     0.108 A 
HETATM    5  N   UNK N   1      37.481  12.459  13.470  0.00  0.00    -0.359 N 
HETATM    6  C   UNK N   1      37.259  12.769  12.180  0.00  0.00     0.206 A 
HETATM    7  H   UNK N   1      38.157  11.838  13.823  0.00  0.00     0.166 HD
ENDBRANCH   1   2
BRANCH   1   8
HETATM    8  N   UNK N   1      34.369  13.057   9.998  0.00  0.00    -0.255 N 
HETATM    9  C   UNK N   1      34.448  11.741  10.255  0.00  0.00     0.135 A 
HETATM   10  C   UNK N   1      33.378  11.121   9.636  0.00  0.00     0.108 A 
HETATM   11  N   UNK N   1      32.654  12.054   8.989  0.00  0.00    -0.359 N 
HETATM   12  C   UNK N   1      33.284  13.221   9.212  0.00  0.00     0.206 A 
HETATM   13  H   UNK N   1      31.835  11.913   8.462  0.00  0.00     0.166 HD
ENDBRANCH   1   8
BRANCH   1  14
HETATM   14  N   UNK N   1      37.309  13.634   9.501  0.00  0.00    -0.255 N 
HETATM   15  C   UNK N   1      38.534  14.135   9.270  0.00  0.00     0.135 A 
HETATM   16  C   UNK N   1      39.208  13.255   8.443  0.00  0.00     0.108 A 
HETATM   17  N   UNK N   1      38.391  12.225   8.155  0.00  0.00    -0.359 N 
HETATM   18  C   UNK N   1      37.238  12.486   8.795  0.00  0.00     0.206 A 
HETATM   19  H   UNK N   1      38.594  11.443   7.593  0.00  0.00     0.166 HD
ENDBRANCH   1  14
BRANCH   1  20
HETATM   20  N   UNK N   1      35.149  15.287   8.556  0.00  0.00    -0.255 N 
HETATM   21  C   UNK N   1      35.440  14.800   7.337  0.00  0.00     0.135 A 
HETATM   22  C   UNK N   1      34.971  15.694   6.395  0.00  0.00     0.108 A 
HETATM   23  N   UNK N   1      34.400  16.731   7.037  0.00  0.00    -0.359 N 
HETATM   24  C   UNK N   1      34.529  16.464   8.349  0.00  0.00     0.206 A 
HETATM   25  H   UNK N   1      33.975  17.521   6.631  0.00  0.00     0.166 HD
ENDBRANCH   1  20
BRANCH   1  26
HETATM   26  O   UNK N   1      36.833  16.004  10.691  0.00  0.00     0.000 OA
HETATM   27  H   UNK N   1      37.111  16.805  10.221  0.00  0.00     0.000 HD
HETATM   28  H   UNK N   1      37.235  15.946  11.572  0.00  0.00     0.000 HD
ENDBRANCH   1  26
BRANCH   1  29
HETATM   29  O   UNK N   1      34.298  15.466  11.188  0.00  0.00     0.000 OA
HETATM   30  H   UNK N   1      33.390  15.782  11.054  0.00  0.00     0.000 HD
HETATM   31  H   UNK N   1      34.593  15.728  12.074  0.00  0.00     0.000 HD
ENDBRANCH   1  29
TORSDOF 6
ENDMDL
MODEL 7
REMARK VINA RESULT:      -5.4     14.661     17.615
REMARK  6 active torsions:
REMARK  status: ('A' for Active; 'I' for Inactive)
REMARK    1  A    between atoms: N_18  and  Cu_13 
REMARK    2  A    between atoms: N_19  and  Cu_13 
REMARK    3  A    between atoms: N_20  and  Cu_13 
REMARK    4  A    between atoms: N_21  and  Cu_13 
REMARK    5  A    between atoms: O_22  and  Cu_13 
REMARK    6  A    between atoms: O_23  and  Cu_13 
ROOT
HETATM    1 Cu   UNK N   1      26.746  25.239  -5.193  0.00  0.00     0.000 Cu
ENDROOT
BRANCH   1   2
HETATM    2  N   UNK N   1      26.881  23.512  -6.198  0.00  0.00    -0.255 N 
HETATM    3  C   UNK N   1      27.978  22.913  -6.688  0.00  0.00     0.135 A 
HETATM    4  C   UNK N   1      27.571  21.835  -7.449  0.00  0.00     0.108 A 
HETATM    5  N   UNK N   1      26.226  21.782  -7.437  0.00  0.00    -0.359 N 
HETATM    6  C   UNK N   1      25.829  22.820  -6.680  0.00  0.00     0.206 A 
HETATM    7  H   UNK N   1      25.652  21.122  -7.888  0.00  0.00     0.166 HD
ENDBRANCH   1   2
BRANCH   1   8
HETATM    8  N   UNK N   1      27.434  26.231  -6.796  0.00  0.00    -0.255 N 
HETATM    9  C   UNK N   1      28.207  27.327  -6.867  0.00  0.00     0.135 A 
HETATM   10  C   UNK N   1      28.214  27.759  -8.181  0.00  0.00     0.108 A 
HETATM   11  N   UNK N   1      27.435  26.937  -8.910  0.00  0.00    -0.359 N 
HETATM   12  C   UNK N   1      26.961  26.024  -8.044  0.00  0.00     0.206 A 
HETATM   13  H   UNK N   1      27.251  26.992  -9.875  0.00  0.00     0.166 HD
ENDBRANCH   1   8
BRANCH   1  14
HETATM   14  N   UNK N   1      28.519  24.773  -4.364  0.00  0.00    -0.255 N 
HETATM   15  C   UNK N   1      29.761  24.948  -4.848  0.00  0.00     0.135 A 
HETATM   16  C   UNK N   1      30.636  24.232  -4.053  0.00  0.00     0.108 A 
HETATM   17  N   UNK N   1      29.930  23.606  -3.093  0.00  0.00    -0.359 N 
HETATM   18  C   UNK N   1      28.646  23.936  -3.313  0.00  0.00     0.206 A 
HETATM   19  H   UNK N   1      30.282  23.027  -2.379  0.00  0.00     0.166 HD
ENDBRANCH   1  14
BRANCH   1  20
HETATM   20  N   UNK N   1      26.712  27.011  -4.241  0.00  0.00    -0.255 N 
HETATM   21  C   UNK N   1      27.700  27.555  -3.508  0.00  0.00     0.135 A 
HETATM   22  C   UNK N   1      27.220  28.716  -2.937  0.00  0.00     0.108 A 
HETATM   23  N   UNK N   1      25.937  28.879  -3.313  0.00  0.00    -0.359 N 
HETATM   24  C   UNK N   1      25.650  27.825  -4.096  0.00  0.00     0.206 A 
HETATM   25  H   UNK N   1      25.334  29.617  -3.064  0.00  0.00     0.166 HD
ENDBRANCH   1  20
BRANCH   1  26
HETATM   26  O   UNK N   1      25.938  24.359  -3.715  0.00  0.00     0.000 OA
HETATM   27  H   UNK N   1      26.209  23.705  -3.053  0.00  0.00     0.000 HD
HETATM   28  H   UNK N   1      25.016  24.637  -3.591  0.00  0.00     0.000 HD
ENDBRANCH   1  26
BRANCH   1  29
HETATM   29  O   UNK N   1      25.001  25.561  -5.869  0.00  0.00     0.000 OA
HETATM   30  H   UNK N   1      24.419  25.366  -6.621  0.00  0.00     0.000 HD
HETATM   31  H   UNK N   1      24.520  26.120  -5.239  0.00  0.00     0.000 HD
ENDBRANCH   1  29
TORSDOF 6
ENDMDL
MODEL 8
REMARK VINA RESULT:      -5.3     14.709     17.801
REMARK  6 active torsions:
REMARK  status: ('A' for Active; 'I' for Inactive)
REMARK    1  A    between atoms: N_18  and  Cu_13 
REMARK    2  A    between atoms: N_19  and  Cu_13 
REMARK    3  A    between atoms: N_20  and  Cu_13 
REMARK    4  A    between atoms: N_21  and  Cu_13 
REMARK    5  A    between atoms: O_22  and  Cu_13 
REMARK    6  A    between atoms: O_23  and  Cu_13 
ROOT
HETATM    1 Cu   UNK N   1      26.832  25.325  -5.304  0.00  0.00     0.000 Cu
ENDROOT
BRANCH   1   2
HETATM    2  N   UNK N   1      26.738  27.073  -4.331  0.00  0.00    -0.255 N 
HETATM    3  C   UNK N   1      27.658  27.635  -3.532  0.00  0.00     0.135 A 
HETATM    4  C   UNK N   1      27.091  28.753  -2.951  0.00  0.00     0.108 A 
HETATM    5  N   UNK N   1      25.821  28.867  -3.384  0.00  0.00    -0.359 N 
HETATM    6  C   UNK N   1      25.626  27.826  -4.212  0.00  0.00     0.206 A 
HETATM    7  H   UNK N   1      25.171  29.566  -3.145  0.00  0.00     0.166 HD
ENDBRANCH   1   2
BRANCH   1   8
HETATM    8  N   UNK N   1      28.550  24.889  -4.363  0.00  0.00    -0.255 N 
HETATM    9  C   UNK N   1      29.819  25.156  -4.715  0.00  0.00     0.135 A 
HETATM   10  C   UNK N   1      30.654  24.454  -3.864  0.00  0.00     0.108 A 
HETATM   11  N   UNK N   1      29.897  23.748  -3.003  0.00  0.00    -0.359 N 
HETATM   12  C   UNK N   1      28.622  24.018  -3.334  0.00  0.00     0.206 A 
HETATM   13  H   UNK N   1      30.210  23.157  -2.281  0.00  0.00     0.166 HD
ENDBRANCH   1   8
BRANCH   1  14
HETATM   14  N   UNK N   1      27.607  26.349  -6.853  0.00  0.00    -0.255 N 
HETATM   15  C   UNK N   1      28.280  27.512  -6.856  0.00  0.00     0.135 A 
HETATM   16  C   UNK N   1      28.369  27.953  -8.164  0.00  0.00     0.108 A 
HETATM   17  N   UNK N   1      27.737  27.069  -8.958  0.00  0.00    -0.359 N 
HETATM   18  C   UNK N   1      27.268  26.113  -8.138  0.00  0.00     0.206 A 
HETATM   19  H   UNK N   1      27.639  27.114  -9.936  0.00  0.00     0.166 HD
ENDBRANCH   1  14
BRANCH   1  20
HETATM   20  N   UNK N   1      27.049  23.582  -6.286  0.00  0.00    -0.255 N 
HETATM   21  C   UNK N   1      28.201  23.023  -6.698  0.00  0.00     0.135 A 
HETATM   22  C   UNK N   1      27.891  21.896  -7.432  0.00  0.00     0.108 A 
HETATM   23  N   UNK N   1      26.551  21.769  -7.476  0.00  0.00    -0.359 N 
HETATM   24  C   UNK N   1      26.062  22.811  -6.781  0.00  0.00     0.206 A 
HETATM   25  H   UNK N   1      26.035  21.061  -7.926  0.00  0.00     0.166 HD
ENDBRANCH   1  20
BRANCH   1  26
HETATM   26  O   UNK N   1      25.127  25.625  -6.088  0.00  0.00     0.000 OA
HETATM   27  H   UNK N   1      24.591  26.396  -6.328  0.00  0.00     0.000 HD
HETATM   28  H   UNK N   1      24.678  24.793  -6.303  0.00  0.00     0.000 HD
ENDBRANCH   1  26
BRANCH   1  29
HETATM   29  O   UNK N   1      25.946  24.424  -3.886  0.00  0.00     0.000 OA
HETATM   30  H   UNK N   1      25.104  24.005  -3.649  0.00  0.00     0.000 HD
HETATM   31  H   UNK N   1      26.551  24.359  -3.130  0.00  0.00     0.000 HD
ENDBRANCH   1  29
TORSDOF 6
ENDMDL
MODEL 9
REMARK VINA RESULT:      -5.2      3.046      5.520
REMARK  6 active torsions:
REMARK  status: ('A' for Active; 'I' for Inactive)
REMARK    1  A    between atoms: N_18  and  Cu_13 
REMARK    2  A    between atoms: N_19  and  Cu_13 
REMARK    3  A    between atoms: N_20  and  Cu_13 
REMARK    4  A    between atoms: N_21  and  Cu_13 
REMARK    5  A    between atoms: O_22  and  Cu_13 
REMARK    6  A    between atoms: O_23  and  Cu_13 
ROOT
HETATM    1 Cu   UNK N   1      34.324  13.529   9.593  0.00  0.00     0.000 Cu
ENDROOT
BRANCH   1   2
HETATM    2  N   UNK N   1      34.178  15.513   9.357  0.00  0.00    -0.255 N 
HETATM    3  C   UNK N   1      33.325  16.201   8.583  0.00  0.00     0.135 A 
HETATM    4  C   UNK N   1      33.704  17.530   8.609  0.00  0.00     0.108 A 
HETATM    5  N   UNK N   1      34.796  17.651   9.387  0.00  0.00    -0.359 N 
HETATM    6  C   UNK N   1      35.073  16.409   9.820  0.00  0.00     0.206 A 
HETATM    7  H   UNK N   1      35.290  18.476   9.595  0.00  0.00     0.166 HD
ENDBRANCH   1   2
BRANCH   1   8
HETATM    8  N   UNK N   1      36.289  13.712   9.954  0.00  0.00    -0.255 N 
HETATM    9  C   UNK N   1      37.316  13.849   9.099  0.00  0.00     0.135 A 
HETATM   10  C   UNK N   1      38.490  13.703   9.815  0.00  0.00     0.108 A 
HETATM   11  N   UNK N   1      38.182  13.463  11.104  0.00  0.00    -0.359 N 
HETATM   12  C   UNK N   1      36.839  13.460  11.161  0.00  0.00     0.206 A 
HETATM   13  H   UNK N   1      38.809  13.321  11.849  0.00  0.00     0.166 HD
ENDBRANCH   1   8
BRANCH   1  14
HETATM   14  N   UNK N   1      34.413  13.403   7.586  0.00  0.00    -0.255 N 
HETATM   15  C   UNK N   1      35.287  13.966   6.734  0.00  0.00     0.135 A 
HETATM   16  C   UNK N   1      34.790  13.819   5.452  0.00  0.00     0.108 A 
HETATM   17  N   UNK N   1      33.606  13.182   5.521  0.00  0.00    -0.359 N 
HETATM   18  C   UNK N   1      33.391  12.955   6.828  0.00  0.00     0.206 A 
HETATM   19  H   UNK N   1      33.020  12.935   4.770  0.00  0.00     0.166 HD
ENDBRANCH   1  14
BRANCH   1  20
HETATM   20  N   UNK N   1      34.581  11.542   9.777  0.00  0.00    -0.255 N 
HETATM   21  C   UNK N   1      34.172  10.764  10.795  0.00  0.00     0.135 A 
HETATM   22  C   UNK N   1      34.656   9.489  10.581  0.00  0.00     0.108 A 
HETATM   23  N   UNK N   1      35.368   9.488   9.438  0.00  0.00    -0.359 N 
HETATM   24  C   UNK N   1      35.315  10.749   8.974  0.00  0.00     0.206 A 
HETATM   25  H   UNK N   1      35.831   8.723   9.027  0.00  0.00     0.166 HD
ENDBRANCH   1  20
BRANCH   1  26
HETATM   26  O   UNK N   1      32.442  13.332   9.421  0.00  0.00     0.000 OA
HETATM   27  H   UNK N   1      31.738  12.866   9.898  0.00  0.00     0.000 HD
HETATM   28  H   UNK N   1      32.096  13.824   8.660  0.00  0.00     0.000 HD
ENDBRANCH   1  26
BRANCH   1  29
HETATM   29  O   UNK N   1      34.069  13.677  11.469  0.00  0.00     0.000 OA
HETATM   30  H   UNK N   1      34.517  13.542  12.319  0.00  0.00     0.000 HD
HETATM   31  H   UNK N   1      33.171  14.002  11.638  0.00  0.00     0.000 HD
ENDBRANCH   1  29
TORSDOF 6
ENDMDL
