MODEL 1
REMARK VINA RESULT:      -4.0      0.000      0.000
REMARK  6 active torsions:
REMARK  status: ('A' for Active; 'I' for Inactive)
REMARK    1  A    between atoms: C_5  and  C_2 
REMARK    2  A    between atoms: C_4  and  C_3 
REMARK    3  A    between atoms: C_5  and  C_3 
REMARK    4  A    between atoms: C_6  and  C_4 
REMARK    5  A    between atoms: C_5  and  N_7 
REMARK    6  A    between atoms: O_9  and  C_6 
ROOT
HETATM    1  C   UNK N   1      22.644  11.495  10.379  0.00  0.00     0.035 C 
ENDROOT
BRANCH   1   2
HETATM    2  C   UNK N   1      22.401  11.876  11.838  0.00  0.00     0.112 C 
BRANCH   2   3
HETATM    3  C   UNK N   1      23.693  12.105  12.574  0.00  0.00     0.139 C 
HETATM    4  O   UNK N   1      23.725  12.140  13.793  0.00  0.00    -0.650 OA
BRANCH   3   5
HETATM    5  O   UNK N   1      24.829  12.286  11.873  0.00  0.00    -0.776 OA
HETATM    6  H   UNK N   1      24.919  11.917  11.017  0.00  0.00     0.167 HD
ENDBRANCH   3   5
ENDBRANCH   2   3
ENDBRANCH   1   2
BRANCH   1   7
HETATM    7  C   UNK N   1      22.233  12.585   9.399  0.00  0.00     0.074 C 
BRANCH   7   8
HETATM    8  C   UNK N   1      21.062  13.398   9.944  0.00  0.00     0.020 C 
HETATM    9  C   UNK N   1      20.990  14.770   9.291  0.00  0.00     0.007 C 
ENDBRANCH   7   8
BRANCH   7  10
HETATM   10  N   UNK N   1      23.377  13.457   9.194  0.00  0.00    -0.426 N 
HETATM   11  H   UNK N   1      23.296  14.268   8.581  0.00  0.00     0.150 HD
HETATM   12  H   UNK N   1      24.261  13.257   9.662  0.00  0.00     0.150 HD
ENDBRANCH   7  10
ENDBRANCH   1   7
TORSDOF 6
ENDMDL
MODEL 2
REMARK VINA RESULT:      -3.9     12.267     13.055
REMARK  6 active torsions:
REMARK  status: ('A' for Active; 'I' for Inactive)
REMARK    1  A    between atoms: C_5  and  C_2 
REMARK    2  A    between atoms: C_4  and  C_3 
REMARK    3  A    between atoms: C_5  and  C_3 
REMARK    4  A    between atoms: C_6  and  C_4 
REMARK    5  A    between atoms: C_5  and  N_7 
REMARK    6  A    between atoms: O_9  and  C_6 
ROOT
HETATM    1  C   UNK N   1      34.612  16.556   9.871  0.00  0.00     0.035 C 
ENDROOT
BRANCH   1   2
HETATM    2  C   UNK N   1      33.727  17.343   8.907  0.00  0.00     0.112 C 
BRANCH   2   3
HETATM    3  C   UNK N   1      34.539  18.253   8.026  0.00  0.00     0.139 C 
HETATM    4  O   UNK N   1      35.227  19.142   8.504  0.00  0.00    -0.650 OA
BRANCH   3   5
HETATM    5  O   UNK N   1      34.495  18.092   6.690  0.00  0.00    -0.776 OA
HETATM    6  H   UNK N   1      33.950  17.430   6.313  0.00  0.00     0.167 HD
ENDBRANCH   3   5
ENDBRANCH   2   3
ENDBRANCH   1   2
BRANCH   1   7
HETATM    7  C   UNK N   1      34.093  15.152  10.150  0.00  0.00     0.074 C 
BRANCH   7   8
HETATM    8  C   UNK N   1      34.741  14.568  11.401  0.00  0.00     0.020 C 
HETATM    9  C   UNK N   1      35.904  15.427  11.873  0.00  0.00     0.007 C 
ENDBRANCH   7   8
BRANCH   7  10
HETATM   10  N   UNK N   1      32.655  15.236  10.340  0.00  0.00    -0.426 N 
HETATM   11  H   UNK N   1      32.125  15.990   9.904  0.00  0.00     0.150 HD
HETATM   12  H   UNK N   1      32.174  14.539  10.910  0.00  0.00     0.150 HD
ENDBRANCH   7  10
ENDBRANCH   1   7
TORSDOF 6
ENDMDL
MODEL 3
REMARK VINA RESULT:      -3.8     10.939     11.422
REMARK  6 active torsions:
REMARK  status: ('A' for Active; 'I' for Inactive)
REMARK    1  A    between atoms: C_5  and  C_2 
REMARK    2  A    between atoms: C_4  and  C_3 
REMARK    3  A    between atoms: C_5  and  C_3 
REMARK    4  A    between atoms: C_6  and  C_4 
REMARK    5  A    between atoms: C_5  and  N_7 
REMARK    6  A    between atoms: O_9  and  C_6 
ROOT
HETATM    1  C   UNK N   1      31.936  18.067   8.520  0.00  0.00     0.035 C 
ENDROOT
BRANCH   1   2
HETATM    2  C   UNK N   1      33.335  17.478   8.682  0.00  0.00     0.112 C 
BRANCH   2   3
HETATM    3  C   UNK N   1      34.353  18.239   7.877  0.00  0.00     0.139 C 
HETATM    4  O   UNK N   1      35.048  19.100   8.393  0.00  0.00    -0.650 OA
BRANCH   3   5
HETATM    5  O   UNK N   1      34.489  17.975   6.563  0.00  0.00    -0.776 OA
HETATM    6  H   UNK N   1      33.790  17.568   6.090  0.00  0.00     0.167 HD
ENDBRANCH   3   5
ENDBRANCH   2   3
ENDBRANCH   1   2
BRANCH   1   7
HETATM    7  C   UNK N   1      30.875  17.016   8.220  0.00  0.00     0.074 C 
BRANCH   7   8
HETATM    8  C   UNK N   1      29.513  17.446   8.756  0.00  0.00     0.020 C 
HETATM    9  C   UNK N   1      29.644  18.605   9.733  0.00  0.00     0.007 C 
ENDBRANCH   7   8
BRANCH   7  10
HETATM   10  N   UNK N   1      30.802  16.852   6.779  0.00  0.00    -0.426 N 
HETATM   11  H   UNK N   1      30.688  15.923   6.376  0.00  0.00     0.150 HD
HETATM   12  H   UNK N   1      30.865  17.668   6.169  0.00  0.00     0.150 HD
ENDBRANCH   7  10
ENDBRANCH   1   7
TORSDOF 6
ENDMDL
MODEL 4
REMARK VINA RESULT:      -3.8      9.562     10.094
REMARK  6 active torsions:
REMARK  status: ('A' for Active; 'I' for Inactive)
REMARK    1  A    between atoms: C_5  and  C_2 
REMARK    2  A    between atoms: C_4  and  C_3 
REMARK    3  A    between atoms: C_5  and  C_3 
REMARK    4  A    between atoms: C_6  and  C_4 
REMARK    5  A    between atoms: C_5  and  N_7 
REMARK    6  A    between atoms: O_9  and  C_6 
ROOT
HETATM    1  C   UNK N   1      30.527  18.624   8.777  0.00  0.00     0.035 C 
ENDROOT
BRANCH   1   2
HETATM    2  C   UNK N   1      29.548  18.154   9.851  0.00  0.00     0.112 C 
BRANCH   2   3
HETATM    3  C   UNK N   1      28.157  17.994   9.301  0.00  0.00     0.139 C 
HETATM    4  O   UNK N   1      27.548  16.944   9.424  0.00  0.00    -0.650 OA
BRANCH   3   5
HETATM    5  O   UNK N   1      27.581  19.024   8.652  0.00  0.00    -0.776 OA
HETATM    6  H   UNK N   1      27.777  19.181   7.750  0.00  0.00     0.167 HD
ENDBRANCH   3   5
ENDBRANCH   2   3
ENDBRANCH   1   2
BRANCH   1   7
HETATM    7  C   UNK N   1      31.477  17.529   8.312  0.00  0.00     0.074 C 
BRANCH   7   8
HETATM    8  C   UNK N   1      32.909  18.049   8.222  0.00  0.00     0.020 C 
HETATM    9  C   UNK N   1      33.571  17.620   6.921  0.00  0.00     0.007 C 
ENDBRANCH   7   8
BRANCH   7  10
HETATM   10  N   UNK N   1      31.414  16.443   9.275  0.00  0.00    -0.426 N 
HETATM   11  H   UNK N   1      31.777  15.522   9.031  0.00  0.00     0.150 HD
HETATM   12  H   UNK N   1      31.006  16.601  10.197  0.00  0.00     0.150 HD
ENDBRANCH   7  10
ENDBRANCH   1   7
TORSDOF 6
ENDMDL
MODEL 5
REMARK VINA RESULT:      -3.7      3.385      4.460
REMARK  6 active torsions:
REMARK  status: ('A' for Active; 'I' for Inactive)
REMARK    1  A    between atoms: C_5  and  C_2 
REMARK    2  A    between atoms: C_4  and  C_3 
REMARK    3  A    between atoms: C_5  and  C_3 
REMARK    4  A    between atoms: C_6  and  C_4 
REMARK    5  A    between atoms: C_5  and  N_7 
REMARK    6  A    between atoms: O_9  and  C_6 
ROOT
HETATM    1  C   UNK N   1      22.189  13.367  10.085  0.00  0.00     0.035 C 
ENDROOT
BRANCH   1   2
HETATM    2  C   UNK N   1      21.109  13.488   9.013  0.00  0.00     0.112 C 
BRANCH   2   3
HETATM    3  C   UNK N   1      20.215  14.674   9.259  0.00  0.00     0.139 C 
HETATM    4  O   UNK N   1      19.086  14.530   9.700  0.00  0.00    -0.650 OA
BRANCH   3   5
HETATM    5  O   UNK N   1      20.664  15.910   8.973  0.00  0.00    -0.776 OA
HETATM    6  H   UNK N   1      21.353  16.291   9.482  0.00  0.00     0.167 HD
ENDBRANCH   3   5
ENDBRANCH   2   3
ENDBRANCH   1   2
BRANCH   1   7
HETATM    7  C   UNK N   1      22.156  12.035  10.821  0.00  0.00     0.074 C 
BRANCH   7   8
HETATM    8  C   UNK N   1      23.364  11.888  11.742  0.00  0.00     0.020 C 
HETATM    9  C   UNK N   1      24.663  12.142  10.994  0.00  0.00     0.007 C 
ENDBRANCH   7   8
BRANCH   7  10
HETATM   10  N   UNK N   1      20.935  11.987  11.607  0.00  0.00    -0.426 N 
HETATM   11  H   UNK N   1      20.237  12.725  11.511  0.00  0.00     0.150 HD
HETATM   12  H   UNK N   1      20.776  11.216  12.255  0.00  0.00     0.150 HD
ENDBRANCH   7  10
ENDBRANCH   1   7
TORSDOF 6
ENDMDL
MODEL 6
REMARK VINA RESULT:      -3.7     11.264     11.775
REMARK  6 active torsions:
REMARK  status: ('A' for Active; 'I' for Inactive)
REMARK    1  A    between atoms: C_5  and  C_2 
REMARK    2  A    between atoms: C_4  and  C_3 
REMARK    3  A    between atoms: C_5  and  C_3 
REMARK    4  A    between atoms: C_6  and  C_4 
REMARK    5  A    between atoms: C_5  and  N_7 
REMARK    6  A    between atoms: O_9  and  C_6 
ROOT
HETATM    1  C   UNK N   1      32.627  16.448   8.422  0.00  0.00     0.035 C 
ENDROOT
BRANCH   1   2
HETATM    2  C   UNK N   1      32.875  17.954   8.387  0.00  0.00     0.112 C 
BRANCH   2   3
HETATM    3  C   UNK N   1      34.204  18.283   7.762  0.00  0.00     0.139 C 
HETATM    4  O   UNK N   1      34.536  17.795   6.694  0.00  0.00    -0.650 OA
BRANCH   3   5
HETATM    5  O   UNK N   1      35.045  19.119   8.401  0.00  0.00    -0.776 OA
HETATM    6  H   UNK N   1      35.582  18.804   9.100  0.00  0.00     0.167 HD
ENDBRANCH   3   5
ENDBRANCH   2   3
ENDBRANCH   1   2
BRANCH   1   7
HETATM    7  C   UNK N   1      31.640  15.979   7.362  0.00  0.00     0.074 C 
BRANCH   7   8
HETATM    8  C   UNK N   1      30.687  17.103   6.966  0.00  0.00     0.020 C 
HETATM    9  C   UNK N   1      30.581  17.231   5.454  0.00  0.00     0.007 C 
ENDBRANCH   7   8
BRANCH   7  10
HETATM   10  N   UNK N   1      32.401  15.553   6.199  0.00  0.00    -0.426 N 
HETATM   11  H   UNK N   1      33.035  16.205   5.737  0.00  0.00     0.150 HD
HETATM   12  H   UNK N   1      32.300  14.602   5.844  0.00  0.00     0.150 HD
ENDBRANCH   7  10
ENDBRANCH   1   7
TORSDOF 6
ENDMDL
MODEL 7
REMARK VINA RESULT:      -3.6     10.527     11.394
REMARK  6 active torsions:
REMARK  status: ('A' for Active; 'I' for Inactive)
REMARK    1  A    between atoms: C_5  and  C_2 
REMARK    2  A    between atoms: C_4  and  C_3 
REMARK    3  A    between atoms: C_5  and  C_3 
REMARK    4  A    between atoms: C_6  and  C_4 
REMARK    5  A    between atoms: C_5  and  N_7 
REMARK    6  A    between atoms: O_9  and  C_6 
ROOT
HETATM    1  C   UNK N   1      20.178  18.309   2.251  0.00  0.00     0.035 C 
ENDROOT
BRANCH   1   2
HETATM    2  C   UNK N   1      20.622  19.671   1.724  0.00  0.00     0.112 C 
BRANCH   2   3
HETATM    3  C   UNK N   1      20.858  20.648   2.844  0.00  0.00     0.139 C 
HETATM    4  O   UNK N   1      20.344  20.487   3.939  0.00  0.00    -0.650 OA
BRANCH   3   5
HETATM    5  O   UNK N   1      21.638  21.724   2.627  0.00  0.00    -0.776 OA
HETATM    6  H   UNK N   1      21.806  22.332   3.320  0.00  0.00     0.167 HD
ENDBRANCH   3   5
ENDBRANCH   2   3
ENDBRANCH   1   2
BRANCH   1   7
HETATM    7  C   UNK N   1      20.182  17.223   1.184  0.00  0.00     0.074 C 
BRANCH   7   8
HETATM    8  C   UNK N   1      20.521  15.863   1.788  0.00  0.00     0.020 C 
HETATM    9  C   UNK N   1      19.946  14.729   0.953  0.00  0.00     0.007 C 
ENDBRANCH   7   8
BRANCH   7  10
HETATM   10  N   UNK N   1      18.858  17.175   0.588  0.00  0.00    -0.426 N 
HETATM   11  H   UNK N   1      18.420  18.031   0.249  0.00  0.00     0.150 HD
HETATM   12  H   UNK N   1      18.366  16.285   0.509  0.00  0.00     0.150 HD
ENDBRANCH   7  10
ENDBRANCH   1   7
TORSDOF 6
ENDMDL
MODEL 8
REMARK VINA RESULT:      -3.6     13.281     13.974
REMARK  6 active torsions:
REMARK  status: ('A' for Active; 'I' for Inactive)
REMARK    1  A    between atoms: C_5  and  C_2 
REMARK    2  A    between atoms: C_4  and  C_3 
REMARK    3  A    between atoms: C_5  and  C_3 
REMARK    4  A    between atoms: C_6  and  C_4 
REMARK    5  A    between atoms: C_5  and  N_7 
REMARK    6  A    between atoms: O_9  and  C_6 
ROOT
HETATM    1  C   UNK N   1      36.286  14.018  12.667  0.00  0.00     0.035 C 
ENDROOT
BRANCH   1   2
HETATM    2  C   UNK N   1      35.236  14.817  11.898  0.00  0.00     0.112 C 
BRANCH   2   3
HETATM    3  C   UNK N   1      35.846  15.999  11.193  0.00  0.00     0.139 C 
HETATM    4  O   UNK N   1      35.180  16.987  10.930  0.00  0.00    -0.650 OA
BRANCH   3   5
HETATM    5  O   UNK N   1      37.144  15.956  10.835  0.00  0.00    -0.776 OA
HETATM    6  H   UNK N   1      37.767  15.509  11.373  0.00  0.00     0.167 HD
ENDBRANCH   3   5
ENDBRANCH   2   3
ENDBRANCH   1   2
BRANCH   1   7
HETATM    7  C   UNK N   1      36.022  13.970  14.166  0.00  0.00     0.074 C 
BRANCH   7   8
HETATM    8  C   UNK N   1      35.072  12.828  14.517  0.00  0.00     0.020 C 
HETATM    9  C   UNK N   1      34.639  12.899  15.974  0.00  0.00     0.007 C 
ENDBRANCH   7   8
BRANCH   7  10
HETATM   10  N   UNK N   1      37.294  13.770  14.838  0.00  0.00    -0.426 N 
HETATM   11  H   UNK N   1      37.836  14.573  15.154  0.00  0.00     0.150 HD
HETATM   12  H   UNK N   1      37.645  12.824  14.994  0.00  0.00     0.150 HD
ENDBRANCH   7  10
ENDBRANCH   1   7
TORSDOF 6
ENDMDL
MODEL 9
REMARK VINA RESULT:      -3.6     12.652     13.517
REMARK  6 active torsions:
REMARK  status: ('A' for Active; 'I' for Inactive)
REMARK    1  A    between atoms: C_5  and  C_2 
REMARK    2  A    between atoms: C_4  and  C_3 
REMARK    3  A    between atoms: C_5  and  C_3 
REMARK    4  A    between atoms: C_6  and  C_4 
REMARK    5  A    between atoms: C_5  and  N_7 
REMARK    6  A    between atoms: O_9  and  C_6 
ROOT
HETATM    1  C   UNK N   1      35.468  16.771  10.091  0.00  0.00     0.035 C 
ENDROOT
BRANCH   1   2
HETATM    2  C   UNK N   1      34.292  17.156   9.198  0.00  0.00     0.112 C 
BRANCH   2   3
HETATM    3  C   UNK N   1      34.680  18.206   8.192  0.00  0.00     0.139 C 
HETATM    4  O   UNK N   1      34.411  18.074   7.009  0.00  0.00    -0.650 OA
BRANCH   3   5
HETATM    5  O   UNK N   1      35.348  19.300   8.603  0.00  0.00    -0.776 OA
HETATM    6  H   UNK N   1      35.487  19.452   9.517  0.00  0.00     0.167 HD
ENDBRANCH   3   5
ENDBRANCH   2   3
ENDBRANCH   1   2
BRANCH   1   7
HETATM    7  C   UNK N   1      35.067  15.877  11.257  0.00  0.00     0.074 C 
BRANCH   7   8
HETATM    8  C   UNK N   1      34.233  14.693  10.776  0.00  0.00     0.020 C 
HETATM    9  C   UNK N   1      34.963  13.377  10.998  0.00  0.00     0.007 C 
ENDBRANCH   7   8
BRANCH   7  10
HETATM   10  N   UNK N   1      36.283  15.392  11.888  0.00  0.00    -0.426 N 
HETATM   11  H   UNK N   1      36.325  15.290  12.902  0.00  0.00     0.150 HD
HETATM   12  H   UNK N   1      37.094  15.155  11.317  0.00  0.00     0.150 HD
ENDBRANCH   7  10
ENDBRANCH   1   7
TORSDOF 6
ENDMDL
