MODEL 1
REMARK VINA RESULT:      -8.4      0.000      0.000
REMARK  8 active torsions:
REMARK  status: ('A' for Active; 'I' for Inactive)
REMARK    1  A    between atoms: C_17  and  C_14 
REMARK    2  A    between atoms: C_22  and  C_14 
REMARK    3  A    between atoms: C_18  and  C_15 
REMARK    4  A    between atoms: C_26  and  C_15 
REMARK    5  A    between atoms: C_23  and  C_19 
REMARK    6  A    between atoms: O_32  and  C_21 
REMARK    7  A    between atoms: C_26  and  O_35 
REMARK    8  A    between atoms: O_35  and  O_34 
ROOT
HETATM    1  C   UNK N   1      27.651  23.377  -5.952  0.00  0.00     0.131 A 
HETATM    2  C   UNK N   1      29.889  25.139  -5.178  0.00  0.00     0.154 A 
HETATM    3  C   UNK N   1      28.914  22.976  -6.171  0.00  0.00     0.055 A 
HETATM    4  C   UNK N   1      28.445  25.450  -4.882  0.00  0.00     0.112 A 
HETATM    5  C   UNK N   1      26.276  25.205  -5.028  0.00  0.00     0.288 A 
HETATM    6  C   UNK N   1      26.523  26.504  -4.283  0.00  0.00     0.255 A 
HETATM    7  N   UNK N   1      30.009  23.836  -5.827  0.00  0.00    -0.376 N 
HETATM    8  N   UNK N   1      27.995  26.511  -4.307  0.00  0.00    -0.336 N 
ATOM      9  HN  UNK N   1      28.578  27.255  -3.921  1.00  0.00     0.164 HD
HETATM   10  N   UNK N   1      27.432  24.621  -5.324  0.00  0.00    -0.274 N 
HETATM   11  O   UNK N   1      25.185  24.730  -5.310  0.00  0.00    -0.267 OA
HETATM   12  H   UNK N   1      30.916  23.520  -6.044  0.00  0.00     0.160 HD
ENDROOT
BRANCH   6  13
HETATM   13  C   UNK N   1      25.974  27.720  -5.058  0.00  0.00     0.113 C 
BRANCH  13  14
HETATM   14  C   UNK N   1      27.025  28.512  -5.775  0.00  0.00    -0.053 A 
HETATM   15  C   UNK N   1      27.563  28.080  -6.997  0.00  0.00     0.008 A 
HETATM   16  C   UNK N   1      28.589  28.813  -7.605  0.00  0.00     0.019 A 
HETATM   17  C   UNK N   1      29.080  29.972  -6.992  0.00  0.00     0.006 A 
HETATM   18  C   UNK N   1      28.538  30.405  -5.781  0.00  0.00     0.019 A 
HETATM   19  I   UNK N   1      30.648  31.062  -7.874  0.00  0.00    -0.045 I 
HETATM   20  C   UNK N   1      27.512  29.677  -5.176  0.00  0.00     0.008 A 
ENDBRANCH  13  14
ENDBRANCH   6  13
BRANCH   6  21
HETATM   21  O   UNK N   1      26.065  26.426  -2.947  0.00  0.00    -0.199 OA
BRANCH  21  22
HETATM   22  O   UNK N   1      25.912  27.663  -2.506  0.00  0.00    -0.247 OA
HETATM   23  H   UNK N   1      25.512  27.823  -1.638  0.00  0.00     0.253 HD
ENDBRANCH  21  22
ENDBRANCH   6  21
BRANCH   2  24
HETATM   24  C   UNK N   1      30.797  25.179  -3.946  0.00  0.00     0.071 C 
BRANCH  24  25
HETATM   25  C   UNK N   1      31.530  23.869  -3.823  0.00  0.00    -0.056 A 
HETATM   26  C   UNK N   1      32.628  23.608  -4.651  0.00  0.00     0.007 A 
HETATM   27  C   UNK N   1      33.261  22.360  -4.606  0.00  0.00     0.001 A 
HETATM   28  C   UNK N   1      32.796  21.369  -3.737  0.00  0.00     0.000 A 
HETATM   29  C   UNK N   1      31.705  21.627  -2.904  0.00  0.00     0.001 A 
HETATM   30  C   UNK N   1      31.071  22.873  -2.949  0.00  0.00     0.007 A 
ENDBRANCH  24  25
ENDBRANCH   2  24
BRANCH   3  31
HETATM   31  C   UNK N   1      29.188  21.642  -6.752  0.00  0.00    -0.008 A 
HETATM   32  C   UNK N   1      30.325  20.906  -6.374  0.00  0.00     0.016 A 
HETATM   33  C   UNK N   1      30.581  19.658  -6.948  0.00  0.00     0.037 A 
HETATM   34  C   UNK N   1      29.711  19.140  -7.910  0.00  0.00     0.065 A 
HETATM   35  C   UNK N   1      28.582  19.866  -8.295  0.00  0.00     0.037 A 
HETATM   36  C   UNK N   1      28.320  21.111  -7.718  0.00  0.00     0.016 A 
BRANCH  34  37
HETATM   37  O   UNK N   1      29.960  17.942  -8.464  0.00  0.00    -0.361 OA
HETATM   38  H   UNK N   1      29.497  17.677  -9.234  0.00  0.00     0.217 HD
ENDBRANCH  34  37
ENDBRANCH   3  31
TORSDOF 8
ENDMDL
MODEL 2
REMARK VINA RESULT:      -8.3     20.939     24.279
REMARK  8 active torsions:
REMARK  status: ('A' for Active; 'I' for Inactive)
REMARK    1  A    between atoms: C_17  and  C_14 
REMARK    2  A    between atoms: C_22  and  C_14 
REMARK    3  A    between atoms: C_18  and  C_15 
REMARK    4  A    between atoms: C_26  and  C_15 
REMARK    5  A    between atoms: C_23  and  C_19 
REMARK    6  A    between atoms: O_32  and  C_21 
REMARK    7  A    between atoms: C_26  and  O_35 
REMARK    8  A    between atoms: O_35  and  O_34 
ROOT
HETATM    1  C   UNK N   1      35.643  12.969  15.327  0.00  0.00     0.131 A 
HETATM    2  C   UNK N   1      34.136  10.970  13.763  0.00  0.00     0.154 A 
HETATM    3  C   UNK N   1      35.188  11.862  15.934  0.00  0.00     0.055 A 
HETATM    4  C   UNK N   1      34.775  12.191  13.155  0.00  0.00     0.112 A 
HETATM    5  C   UNK N   1      35.765  14.141  13.160  0.00  0.00     0.288 A 
HETATM    6  C   UNK N   1      35.380  13.847  11.722  0.00  0.00     0.255 A 
HETATM    7  N   UNK N   1      34.429  10.897  15.193  0.00  0.00    -0.376 N 
HETATM    8  N   UNK N   1      34.721  12.544  11.918  0.00  0.00    -0.336 N 
ATOM      9  HN  UNK N   1      34.281  11.999  11.176  1.00  0.00     0.164 HD
HETATM   10  N   UNK N   1      35.414  13.128  13.944  0.00  0.00    -0.274 N 
HETATM   11  O   UNK N   1      36.332  15.147  13.564  0.00  0.00    -0.267 OA
HETATM   12  H   UNK N   1      34.078  10.121  15.687  0.00  0.00     0.160 HD
ENDROOT
BRANCH   6  13
HETATM   13  C   UNK N   1      34.368  14.877  11.178  0.00  0.00     0.113 C 
BRANCH  13  14
HETATM   14  C   UNK N   1      34.278  14.912   9.681  0.00  0.00    -0.053 A 
HETATM   15  C   UNK N   1      34.876  15.938   8.936  0.00  0.00     0.008 A 
HETATM   16  C   UNK N   1      34.716  15.973   7.545  0.00  0.00     0.019 A 
HETATM   17  C   UNK N   1      33.956  14.988   6.902  0.00  0.00     0.006 A 
HETATM   18  C   UNK N   1      33.369  13.963   7.646  0.00  0.00     0.019 A 
HETATM   19  I   UNK N   1      33.674  15.049   4.819  0.00  0.00    -0.045 I 
HETATM   20  C   UNK N   1      33.532  13.925   9.032  0.00  0.00     0.008 A 
ENDBRANCH  13  14
ENDBRANCH   6  13
BRANCH   6  21
HETATM   21  O   UNK N   1      36.523  13.687  10.905  0.00  0.00    -0.199 OA
BRANCH  21  22
HETATM   22  O   UNK N   1      37.568  13.550  11.705  0.00  0.00    -0.247 OA
HETATM   23  H   UNK N   1      38.448  13.827  11.406  0.00  0.00     0.253 HD
ENDBRANCH  21  22
ENDBRANCH   6  21
BRANCH   2  24
HETATM   24  C   UNK N   1      34.547   9.656  13.093  0.00  0.00     0.071 C 
BRANCH  24  25
HETATM   25  C   UNK N   1      35.830   9.162  13.706  0.00  0.00    -0.056 A 
HETATM   26  C   UNK N   1      35.796   8.133  14.654  0.00  0.00     0.007 A 
HETATM   27  C   UNK N   1      36.973   7.727  15.295  0.00  0.00     0.001 A 
HETATM   28  C   UNK N   1      38.187   8.351  14.993  0.00  0.00     0.000 A 
HETATM   29  C   UNK N   1      38.227   9.375  14.043  0.00  0.00     0.001 A 
HETATM   30  C   UNK N   1      37.052   9.782  13.403  0.00  0.00     0.007 A 
ENDBRANCH  24  25
ENDBRANCH   2  24
BRANCH   3  31
HETATM   31  C   UNK N   1      35.478  11.617  17.366  0.00  0.00    -0.008 A 
HETATM   32  C   UNK N   1      35.133  12.563  18.347  0.00  0.00     0.016 A 
HETATM   33  C   UNK N   1      35.433  12.326  19.692  0.00  0.00     0.037 A 
HETATM   34  C   UNK N   1      36.088  11.150  20.065  0.00  0.00     0.065 A 
HETATM   35  C   UNK N   1      36.440  10.208  19.095  0.00  0.00     0.037 A 
HETATM   36  C   UNK N   1      36.134  10.439  17.752  0.00  0.00     0.016 A 
BRANCH  34  37
HETATM   37  O   UNK N   1      36.380  10.926  21.356  0.00  0.00    -0.361 OA
HETATM   38  H   UNK N   1      37.029  11.447  21.787  0.00  0.00     0.217 HD
ENDBRANCH  34  37
ENDBRANCH   3  31
TORSDOF 8
ENDMDL
MODEL 3
REMARK VINA RESULT:      -8.2      3.921      6.570
REMARK  8 active torsions:
REMARK  status: ('A' for Active; 'I' for Inactive)
REMARK    1  A    between atoms: C_17  and  C_14 
REMARK    2  A    between atoms: C_22  and  C_14 
REMARK    3  A    between atoms: C_18  and  C_15 
REMARK    4  A    between atoms: C_26  and  C_15 
REMARK    5  A    between atoms: C_23  and  C_19 
REMARK    6  A    between atoms: O_32  and  C_21 
REMARK    7  A    between atoms: C_26  and  O_35 
REMARK    8  A    between atoms: O_35  and  O_34 
ROOT
HETATM    1  C   UNK N   1      29.051  21.875  -7.068  0.00  0.00     0.131 A 
HETATM    2  C   UNK N   1      27.153  24.070  -6.530  0.00  0.00     0.154 A 
HETATM    3  C   UNK N   1      29.117  22.533  -5.900  0.00  0.00     0.055 A 
HETATM    4  C   UNK N   1      27.096  23.204  -7.762  0.00  0.00     0.112 A 
HETATM    5  C   UNK N   1      27.818  21.722  -9.199  0.00  0.00     0.288 A 
HETATM    6  C   UNK N   1      26.584  22.362  -9.808  0.00  0.00     0.255 A 
HETATM    7  N   UNK N   1      28.220  23.621  -5.638  0.00  0.00    -0.376 N 
HETATM    8  N   UNK N   1      26.266  23.323  -8.739  0.00  0.00    -0.336 N 
ATOM      9  HN  UNK N   1      25.495  23.990  -8.770  1.00  0.00     0.164 HD
HETATM   10  N   UNK N   1      28.049  22.232  -7.994  0.00  0.00    -0.274 N 
HETATM   11  O   UNK N   1      28.507  20.850  -9.710  0.00  0.00    -0.267 OA
HETATM   12  H   UNK N   1      28.331  24.103  -4.787  0.00  0.00     0.160 HD
ENDROOT
BRANCH   6  13
HETATM   13  C   UNK N   1      26.915  23.112 -11.115  0.00  0.00     0.113 C 
BRANCH  13  14
HETATM   14  C   UNK N   1      25.960  24.222 -11.441  0.00  0.00    -0.053 A 
HETATM   15  C   UNK N   1      25.797  25.322 -10.586  0.00  0.00     0.008 A 
HETATM   16  C   UNK N   1      24.849  26.307 -10.891  0.00  0.00     0.019 A 
HETATM   17  C   UNK N   1      24.063  26.189 -12.044  0.00  0.00     0.006 A 
HETATM   18  C   UNK N   1      24.233  25.098 -12.897  0.00  0.00     0.019 A 
HETATM   19  I   UNK N   1      22.608  27.640 -12.495  0.00  0.00    -0.045 I 
HETATM   20  C   UNK N   1      25.181  24.118 -12.596  0.00  0.00     0.008 A 
ENDBRANCH  13  14
ENDBRANCH   6  13
BRANCH   6  21
HETATM   21  O   UNK N   1      25.532  21.426  -9.940  0.00  0.00    -0.199 OA
BRANCH  21  22
HETATM   22  O   UNK N   1      24.670  21.655  -8.964  0.00  0.00    -0.247 OA
HETATM   23  H   UNK N   1      24.441  22.566  -8.722  0.00  0.00     0.253 HD
ENDBRANCH  21  22
ENDBRANCH   6  21
BRANCH   2  24
HETATM   24  C   UNK N   1      25.835  24.131  -5.753  0.00  0.00     0.071 C 
BRANCH  24  25
HETATM   25  C   UNK N   1      25.728  25.460  -5.054  0.00  0.00    -0.056 A 
HETATM   26  C   UNK N   1      25.094  26.532  -5.692  0.00  0.00     0.007 A 
HETATM   27  C   UNK N   1      25.067  27.795  -5.087  0.00  0.00     0.001 A 
HETATM   28  C   UNK N   1      25.678  27.990  -3.845  0.00  0.00     0.000 A 
HETATM   29  C   UNK N   1      26.308  26.922  -3.201  0.00  0.00     0.001 A 
HETATM   30  C   UNK N   1      26.336  25.661  -3.805  0.00  0.00     0.007 A 
ENDBRANCH  24  25
ENDBRANCH   2  24
BRANCH   3  31
HETATM   31  C   UNK N   1      30.101  22.134  -4.867  0.00  0.00    -0.008 A 
HETATM   32  C   UNK N   1      30.226  22.856  -3.668  0.00  0.00     0.016 A 
HETATM   33  C   UNK N   1      31.174  22.479  -2.712  0.00  0.00     0.037 A 
HETATM   34  C   UNK N   1      32.010  21.386  -2.952  0.00  0.00     0.065 A 
HETATM   35  C   UNK N   1      31.897  20.667  -4.144  0.00  0.00     0.037 A 
HETATM   36  C   UNK N   1      30.945  21.037  -5.096  0.00  0.00     0.016 A 
BRANCH  34  37
HETATM   37  O   UNK N   1      32.924  21.028  -2.035  0.00  0.00    -0.361 OA
HETATM   38  H   UNK N   1      33.818  20.907  -2.288  0.00  0.00     0.217 HD
ENDBRANCH  34  37
ENDBRANCH   3  31
TORSDOF 8
ENDMDL
MODEL 4
REMARK VINA RESULT:      -8.1      3.070      5.781
REMARK  8 active torsions:
REMARK  status: ('A' for Active; 'I' for Inactive)
REMARK    1  A    between atoms: C_17  and  C_14 
REMARK    2  A    between atoms: C_22  and  C_14 
REMARK    3  A    between atoms: C_18  and  C_15 
REMARK    4  A    between atoms: C_26  and  C_15 
REMARK    5  A    between atoms: C_23  and  C_19 
REMARK    6  A    between atoms: O_32  and  C_21 
REMARK    7  A    between atoms: C_26  and  O_35 
REMARK    8  A    between atoms: O_35  and  O_34 
ROOT
HETATM    1  C   UNK N   1      28.200  22.529  -6.412  0.00  0.00     0.131 A 
HETATM    2  C   UNK N   1      27.208  25.274  -5.972  0.00  0.00     0.154 A 
HETATM    3  C   UNK N   1      28.738  23.276  -5.435  0.00  0.00     0.055 A 
HETATM    4  C   UNK N   1      26.604  24.321  -6.970  0.00  0.00     0.112 A 
HETATM    5  C   UNK N   1      26.492  22.510  -8.192  0.00  0.00     0.288 A 
HETATM    6  C   UNK N   1      25.386  23.432  -8.669  0.00  0.00     0.255 A 
HETATM    7  N   UNK N   1      28.285  24.622  -5.229  0.00  0.00    -0.376 N 
HETATM    8  N   UNK N   1      25.630  24.576  -7.774  0.00  0.00    -0.336 N 
ATOM      9  HN  UNK N   1      25.102  25.448  -7.789  1.00  0.00     0.164 HD
HETATM   10  N   UNK N   1      27.149  23.069  -7.181  0.00  0.00    -0.274 N 
HETATM   11  O   UNK N   1      26.753  21.402  -8.640  0.00  0.00    -0.267 OA
HETATM   12  H   UNK N   1      28.736  25.148  -4.530  0.00  0.00     0.160 HD
ENDROOT
BRANCH   6  13
HETATM   13  C   UNK N   1      25.588  23.856 -10.139  0.00  0.00     0.113 C 
BRANCH  13  14
HETATM   14  C   UNK N   1      26.716  24.823 -10.345  0.00  0.00    -0.053 A 
HETATM   15  C   UNK N   1      26.494  26.207 -10.394  0.00  0.00     0.008 A 
HETATM   16  C   UNK N   1      27.563  27.075 -10.652  0.00  0.00     0.019 A 
HETATM   17  C   UNK N   1      28.847  26.560 -10.868  0.00  0.00     0.006 A 
HETATM   18  C   UNK N   1      29.066  25.183 -10.811  0.00  0.00     0.019 A 
HETATM   19  I   UNK N   1      30.453  27.848 -11.297  0.00  0.00    -0.045 I 
HETATM   20  C   UNK N   1      28.003  24.317 -10.548  0.00  0.00     0.008 A 
ENDBRANCH  13  14
ENDBRANCH   6  13
BRANCH   6  21
HETATM   21  O   UNK N   1      24.109  22.882  -8.406  0.00  0.00    -0.199 OA
BRANCH  21  22
HETATM   22  O   UNK N   1      24.278  21.856  -7.590  0.00  0.00    -0.247 OA
HETATM   23  H   UNK N   1      24.745  21.063  -7.897  0.00  0.00     0.253 HD
ENDBRANCH  21  22
ENDBRANCH   6  21
BRANCH   2  24
HETATM   24  C   UNK N   1      26.196  25.863  -4.985  0.00  0.00     0.071 C 
BRANCH  24  25
HETATM   25  C   UNK N   1      26.428  27.346  -4.858  0.00  0.00    -0.056 A 
HETATM   26  C   UNK N   1      27.196  28.014  -5.819  0.00  0.00     0.007 A 
HETATM   27  C   UNK N   1      27.490  29.374  -5.663  0.00  0.00     0.001 A 
HETATM   28  C   UNK N   1      27.021  30.068  -4.544  0.00  0.00     0.000 A 
HETATM   29  C   UNK N   1      26.249  29.408  -3.585  0.00  0.00     0.001 A 
HETATM   30  C   UNK N   1      25.955  28.050  -3.740  0.00  0.00     0.007 A 
ENDBRANCH  24  25
ENDBRANCH   2  24
BRANCH   3  31
HETATM   31  C   UNK N   1      29.786  22.717  -4.551  0.00  0.00    -0.008 A 
HETATM   32  C   UNK N   1      30.445  21.518  -4.875  0.00  0.00     0.016 A 
HETATM   33  C   UNK N   1      31.417  20.993  -4.020  0.00  0.00     0.037 A 
HETATM   34  C   UNK N   1      31.731  21.653  -2.830  0.00  0.00     0.065 A 
HETATM   35  C   UNK N   1      31.078  22.842  -2.497  0.00  0.00     0.037 A 
HETATM   36  C   UNK N   1      30.111  23.373  -3.354  0.00  0.00     0.016 A 
BRANCH  34  37
HETATM   37  O   UNK N   1      32.662  21.145  -2.007  0.00  0.00    -0.361 OA
HETATM   38  H   UNK N   1      33.271  21.714  -1.580  0.00  0.00     0.217 HD
ENDBRANCH  34  37
ENDBRANCH   3  31
TORSDOF 8
ENDMDL
MODEL 5
REMARK VINA RESULT:      -8.1     15.456     17.333
REMARK  8 active torsions:
REMARK  status: ('A' for Active; 'I' for Inactive)
REMARK    1  A    between atoms: C_17  and  C_14 
REMARK    2  A    between atoms: C_22  and  C_14 
REMARK    3  A    between atoms: C_18  and  C_15 
REMARK    4  A    between atoms: C_26  and  C_15 
REMARK    5  A    between atoms: C_23  and  C_19 
REMARK    6  A    between atoms: O_32  and  C_21 
REMARK    7  A    between atoms: C_26  and  O_35 
REMARK    8  A    between atoms: O_35  and  O_34 
ROOT
HETATM    1  C   UNK N   1      21.275  14.906   8.186  0.00  0.00     0.131 A 
HETATM    2  C   UNK N   1      23.489  14.839   6.236  0.00  0.00     0.154 A 
HETATM    3  C   UNK N   1      22.326  14.100   8.408  0.00  0.00     0.055 A 
HETATM    4  C   UNK N   1      22.318  15.780   6.132  0.00  0.00     0.112 A 
HETATM    5  C   UNK N   1      20.342  16.576   6.629  0.00  0.00     0.288 A 
HETATM    6  C   UNK N   1      20.806  17.300   5.379  0.00  0.00     0.255 A 
HETATM    7  N   UNK N   1      23.395  14.036   7.453  0.00  0.00    -0.376 N 
HETATM    8  N   UNK N   1      22.104  16.630   5.188  0.00  0.00    -0.336 N 
ATOM      9  HN  UNK N   1      22.743  16.814   4.415  1.00  0.00     0.164 HD
HETATM   10  N   UNK N   1      21.277  15.725   7.038  0.00  0.00    -0.274 N 
HETATM   11  O   UNK N   1      19.278  16.744   7.208  0.00  0.00    -0.267 OA
HETATM   12  H   UNK N   1      24.125  13.401   7.634  0.00  0.00     0.160 HD
ENDROOT
BRANCH   6  13
HETATM   13  C   UNK N   1      19.881  17.017   4.177  0.00  0.00     0.113 C 
BRANCH  13  14
HETATM   14  C   UNK N   1      20.308  15.848   3.340  0.00  0.00    -0.053 A 
HETATM   15  C   UNK N   1      19.892  14.542   3.640  0.00  0.00     0.008 A 
HETATM   16  C   UNK N   1      20.363  13.469   2.874  0.00  0.00     0.019 A 
HETATM   17  C   UNK N   1      21.250  13.699   1.816  0.00  0.00     0.006 A 
HETATM   18  C   UNK N   1      21.656  15.000   1.515  0.00  0.00     0.019 A 
HETATM   19  I   UNK N   1      21.997  12.092   0.681  0.00  0.00    -0.045 I 
HETATM   20  C   UNK N   1      21.183  16.072   2.274  0.00  0.00     0.008 A 
ENDBRANCH  13  14
ENDBRANCH   6  13
BRANCH   6  21
HETATM   21  O   UNK N   1      21.010  18.677   5.628  0.00  0.00    -0.199 OA
BRANCH  21  22
HETATM   22  O   UNK N   1      20.981  18.854   6.939  0.00  0.00    -0.247 OA
HETATM   23  H   UNK N   1      20.131  18.894   7.404  0.00  0.00     0.253 HD
ENDBRANCH  21  22
ENDBRANCH   6  21
BRANCH   2  24
HETATM   24  C   UNK N   1      24.852  15.536   6.191  0.00  0.00     0.071 C 
BRANCH  24  25
HETATM   25  C   UNK N   1      25.400  15.473   4.790  0.00  0.00    -0.056 A 
HETATM   26  C   UNK N   1      26.472  16.296   4.426  0.00  0.00     0.007 A 
HETATM   27  C   UNK N   1      26.931  16.308   3.104  0.00  0.00     0.001 A 
HETATM   28  C   UNK N   1      26.319  15.501   2.141  0.00  0.00     0.000 A 
HETATM   29  C   UNK N   1      25.253  14.673   2.501  0.00  0.00     0.001 A 
HETATM   30  C   UNK N   1      24.793  14.660   3.821  0.00  0.00     0.007 A 
ENDBRANCH  24  25
ENDBRANCH   2  24
BRANCH   3  31
HETATM   31  C   UNK N   1      22.402  13.286   9.643  0.00  0.00    -0.008 A 
HETATM   32  C   UNK N   1      21.243  12.955  10.366  0.00  0.00     0.016 A 
HETATM   33  C   UNK N   1      21.333  12.204  11.540  0.00  0.00     0.037 A 
HETATM   34  C   UNK N   1      22.582  11.787  12.008  0.00  0.00     0.065 A 
HETATM   35  C   UNK N   1      23.740  12.116  11.299  0.00  0.00     0.037 A 
HETATM   36  C   UNK N   1      23.651  12.860  10.120  0.00  0.00     0.016 A 
BRANCH  34  37
HETATM   37  O   UNK N   1      22.669  11.070  13.140  0.00  0.00    -0.361 OA
HETATM   38  H   UNK N   1      23.313  10.394  13.218  0.00  0.00     0.217 HD
ENDBRANCH  34  37
ENDBRANCH   3  31
TORSDOF 8
ENDMDL
MODEL 6
REMARK VINA RESULT:      -8.1      2.547      3.815
REMARK  8 active torsions:
REMARK  status: ('A' for Active; 'I' for Inactive)
REMARK    1  A    between atoms: C_17  and  C_14 
REMARK    2  A    between atoms: C_22  and  C_14 
REMARK    3  A    between atoms: C_18  and  C_15 
REMARK    4  A    between atoms: C_26  and  C_15 
REMARK    5  A    between atoms: C_23  and  C_19 
REMARK    6  A    between atoms: O_32  and  C_21 
REMARK    7  A    between atoms: C_26  and  O_35 
REMARK    8  A    between atoms: O_35  and  O_34 
ROOT
HETATM    1  C   UNK N   1      27.948  20.993  -8.962  0.00  0.00     0.131 A 
HETATM    2  C   UNK N   1      29.476  22.290  -6.796  0.00  0.00     0.154 A 
HETATM    3  C   UNK N   1      29.178  20.546  -8.663  0.00  0.00     0.055 A 
HETATM    4  C   UNK N   1      28.054  22.648  -7.140  0.00  0.00     0.112 A 
HETATM    5  C   UNK N   1      26.227  22.648  -8.342  0.00  0.00     0.288 A 
HETATM    6  C   UNK N   1      26.038  23.689  -7.255  0.00  0.00     0.255 A 
HETATM    7  N   UNK N   1      29.942  21.186  -7.633  0.00  0.00    -0.376 N 
HETATM    8  N   UNK N   1      27.343  23.567  -6.584  0.00  0.00    -0.336 N 
ATOM      9  HN  UNK N   1      27.642  24.133  -5.790  1.00  0.00     0.164 HD
HETATM   10  N   UNK N   1      27.407  22.053  -8.206  0.00  0.00    -0.274 N 
HETATM   11  O   UNK N   1      25.421  22.362  -9.217  0.00  0.00    -0.267 OA
HETATM   12  H   UNK N   1      30.856  20.854  -7.475  0.00  0.00     0.160 HD
ENDROOT
BRANCH   6  13
HETATM   13  C   UNK N   1      25.874  25.107  -7.843  0.00  0.00     0.113 C 
BRANCH  13  14
HETATM   14  C   UNK N   1      26.083  26.208  -6.847  0.00  0.00    -0.053 A 
HETATM   15  C   UNK N   1      25.188  26.418  -5.788  0.00  0.00     0.008 A 
HETATM   16  C   UNK N   1      25.381  27.496  -4.916  0.00  0.00     0.019 A 
HETATM   17  C   UNK N   1      26.462  28.365  -5.105  0.00  0.00     0.006 A 
HETATM   18  C   UNK N   1      27.356  28.150  -6.154  0.00  0.00     0.019 A 
HETATM   19  I   UNK N   1      26.742  30.012  -3.826  0.00  0.00    -0.045 I 
HETATM   20  C   UNK N   1      27.168  27.072  -7.022  0.00  0.00     0.008 A 
ENDBRANCH  13  14
ENDBRANCH   6  13
BRANCH   6  21
HETATM   21  O   UNK N   1      25.004  23.320  -6.363  0.00  0.00    -0.199 OA
BRANCH  21  22
HETATM   22  O   UNK N   1      24.665  22.073  -6.641  0.00  0.00    -0.247 OA
HETATM   23  H   UNK N   1      24.201  21.537  -5.979  0.00  0.00     0.253 HD
ENDBRANCH  21  22
ENDBRANCH   6  21
BRANCH   2  24
HETATM   24  C   UNK N   1      29.688  21.935  -5.322  0.00  0.00     0.071 C 
BRANCH  24  25
HETATM   25  C   UNK N   1      31.143  21.628  -5.086  0.00  0.00    -0.056 A 
HETATM   26  C   UNK N   1      31.532  20.328  -4.745  0.00  0.00     0.007 A 
HETATM   27  C   UNK N   1      32.870  20.052  -4.437  0.00  0.00     0.001 A 
HETATM   28  C   UNK N   1      33.822  21.076  -4.467  0.00  0.00     0.000 A 
HETATM   29  C   UNK N   1      33.439  22.374  -4.812  0.00  0.00     0.001 A 
HETATM   30  C   UNK N   1      32.103  22.651  -5.119  0.00  0.00     0.007 A 
ENDBRANCH  24  25
ENDBRANCH   2  24
BRANCH   3  31
HETATM   31  C   UNK N   1      29.749  19.381  -9.378  0.00  0.00    -0.008 A 
HETATM   32  C   UNK N   1      29.596  19.237 -10.767  0.00  0.00     0.016 A 
HETATM   33  C   UNK N   1      30.123  18.122 -11.424  0.00  0.00     0.037 A 
HETATM   34  C   UNK N   1      30.796  17.137 -10.697  0.00  0.00     0.065 A 
HETATM   35  C   UNK N   1      30.947  17.269  -9.314  0.00  0.00     0.037 A 
HETATM   36  C   UNK N   1      30.428  18.387  -8.657  0.00  0.00     0.016 A 
BRANCH  34  37
HETATM   37  O   UNK N   1      31.297  16.063 -11.327  0.00  0.00    -0.361 OA
HETATM   38  H   UNK N   1      31.950  16.170 -11.990  0.00  0.00     0.217 HD
ENDBRANCH  34  37
ENDBRANCH   3  31
TORSDOF 8
ENDMDL
MODEL 7
REMARK VINA RESULT:      -7.9     19.554     23.150
REMARK  8 active torsions:
REMARK  status: ('A' for Active; 'I' for Inactive)
REMARK    1  A    between atoms: C_17  and  C_14 
REMARK    2  A    between atoms: C_22  and  C_14 
REMARK    3  A    between atoms: C_18  and  C_15 
REMARK    4  A    between atoms: C_26  and  C_15 
REMARK    5  A    between atoms: C_23  and  C_19 
REMARK    6  A    between atoms: O_32  and  C_21 
REMARK    7  A    between atoms: C_26  and  O_35 
REMARK    8  A    between atoms: O_35  and  O_34 
ROOT
HETATM    1  C   UNK N   1      38.080  12.702  11.127  0.00  0.00     0.131 A 
HETATM    2  C   UNK N   1      35.850  14.531  10.498  0.00  0.00     0.154 A 
HETATM    3  C   UNK N   1      37.996  13.245   9.901  0.00  0.00     0.055 A 
HETATM    4  C   UNK N   1      36.090  13.953  11.868  0.00  0.00     0.112 A 
HETATM    5  C   UNK N   1      37.004  12.625  13.345  0.00  0.00     0.288 A 
HETATM    6  C   UNK N   1      35.853  13.329  14.039  0.00  0.00     0.255 A 
HETATM    7  N   UNK N   1      36.902  14.112   9.574  0.00  0.00    -0.376 N 
HETATM    8  N   UNK N   1      35.358  14.136  12.912  0.00  0.00    -0.336 N 
ATOM      9  HN  UNK N   1      34.547  14.753  12.952  1.00  0.00     0.164 HD
HETATM   10  N   UNK N   1      37.112  13.051  12.092  0.00  0.00    -0.274 N 
HETATM   11  O   UNK N   1      37.752  11.796  13.846  0.00  0.00    -0.267 OA
HETATM   12  H   UNK N   1      36.856  14.453   8.652  0.00  0.00     0.160 HD
ENDROOT
BRANCH   6  13
HETATM   13  C   UNK N   1      34.767  12.334  14.498  0.00  0.00     0.113 C 
BRANCH  13  14
HETATM   14  C   UNK N   1      34.943  11.842  15.903  0.00  0.00    -0.053 A 
HETATM   15  C   UNK N   1      34.957  12.726  16.992  0.00  0.00     0.008 A 
HETATM   16  C   UNK N   1      35.189  12.237  18.284  0.00  0.00     0.019 A 
HETATM   17  C   UNK N   1      35.411  10.870  18.486  0.00  0.00     0.006 A 
HETATM   18  C   UNK N   1      35.388   9.991  17.401  0.00  0.00     0.019 A 
HETATM   19  I   UNK N   1      35.799  10.126  20.415  0.00  0.00    -0.045 I 
HETATM   20  C   UNK N   1      35.153  10.477  16.114  0.00  0.00     0.008 A 
ENDBRANCH  13  14
ENDBRANCH   6  13
BRANCH   6  21
HETATM   21  O   UNK N   1      36.317  14.179  15.070  0.00  0.00    -0.199 OA
BRANCH  21  22
HETATM   22  O   UNK N   1      37.633  14.062  15.121  0.00  0.00    -0.247 OA
HETATM   23  H   UNK N   1      38.198  14.804  14.853  0.00  0.00     0.253 HD
ENDBRANCH  21  22
ENDBRANCH   6  21
BRANCH   2  24
HETATM   24  C   UNK N   1      35.737  16.058  10.479  0.00  0.00     0.071 C 
BRANCH  24  25
HETATM   25  C   UNK N   1      34.628  16.466   9.546  0.00  0.00    -0.056 A 
HETATM   26  C   UNK N   1      34.697  17.695   8.879  0.00  0.00     0.007 A 
HETATM   27  C   UNK N   1      33.632  18.122   8.078  0.00  0.00     0.001 A 
HETATM   28  C   UNK N   1      32.491  17.324   7.945  0.00  0.00     0.000 A 
HETATM   29  C   UNK N   1      32.419  16.094   8.603  0.00  0.00     0.001 A 
HETATM   30  C   UNK N   1      33.483  15.667   9.404  0.00  0.00     0.007 A 
ENDBRANCH  24  25
ENDBRANCH   2  24
BRANCH   3  31
HETATM   31  C   UNK N   1      39.038  12.970   8.885  0.00  0.00    -0.008 A 
HETATM   32  C   UNK N   1      39.182  13.790   7.753  0.00  0.00     0.016 A 
HETATM   33  C   UNK N   1      40.156  13.505   6.793  0.00  0.00     0.037 A 
HETATM   34  C   UNK N   1      40.986  12.392   6.950  0.00  0.00     0.065 A 
HETATM   35  C   UNK N   1      40.846  11.568   8.069  0.00  0.00     0.037 A 
HETATM   36  C   UNK N   1      39.879  11.856   9.034  0.00  0.00     0.016 A 
BRANCH  34  37
HETATM   37  O   UNK N   1      41.918  12.115   6.024  0.00  0.00    -0.361 OA
HETATM   38  H   UNK N   1      42.737  12.570   6.033  0.00  0.00     0.217 HD
ENDBRANCH  34  37
ENDBRANCH   3  31
TORSDOF 8
ENDMDL
MODEL 8
REMARK VINA RESULT:      -7.9      1.824      2.507
REMARK  8 active torsions:
REMARK  status: ('A' for Active; 'I' for Inactive)
REMARK    1  A    between atoms: C_17  and  C_14 
REMARK    2  A    between atoms: C_22  and  C_14 
REMARK    3  A    between atoms: C_18  and  C_15 
REMARK    4  A    between atoms: C_26  and  C_15 
REMARK    5  A    between atoms: C_23  and  C_19 
REMARK    6  A    between atoms: O_32  and  C_21 
REMARK    7  A    between atoms: C_26  and  O_35 
REMARK    8  A    between atoms: O_35  and  O_34 
ROOT
HETATM    1  C   UNK N   1      27.599  21.966  -7.865  0.00  0.00     0.131 A 
HETATM    2  C   UNK N   1      29.392  23.421  -6.026  0.00  0.00     0.154 A 
HETATM    3  C   UNK N   1      28.855  21.529  -7.684  0.00  0.00     0.055 A 
HETATM    4  C   UNK N   1      27.939  23.768  -6.218  0.00  0.00     0.112 A 
HETATM    5  C   UNK N   1      25.975  23.691  -7.178  0.00  0.00     0.288 A 
HETATM    6  C   UNK N   1      25.928  24.824  -6.169  0.00  0.00     0.255 A 
HETATM    7  N   UNK N   1      29.746  22.244  -6.816  0.00  0.00    -0.376 N 
HETATM    8  N   UNK N   1      27.306  24.741  -5.658  0.00  0.00    -0.336 N 
ATOM      9  HN  UNK N   1      27.705  25.367  -4.959  1.00  0.00     0.164 HD
HETATM   10  N   UNK N   1      27.161  23.094  -7.140  0.00  0.00    -0.274 N 
HETATM   11  O   UNK N   1      25.064  23.344  -7.917  0.00  0.00    -0.267 OA
HETATM   12  H   UNK N   1      30.670  21.914  -6.747  0.00  0.00     0.160 HD
ENDROOT
BRANCH   6  13
HETATM   13  C   UNK N   1      25.695  26.188  -6.851  0.00  0.00     0.113 C 
BRANCH  13  14
HETATM   14  C   UNK N   1      26.121  27.364  -6.023  0.00  0.00    -0.053 A 
HETATM   15  C   UNK N   1      27.235  28.141  -6.372  0.00  0.00     0.008 A 
HETATM   16  C   UNK N   1      27.640  29.193  -5.540  0.00  0.00     0.019 A 
HETATM   17  C   UNK N   1      26.937  29.462  -4.360  0.00  0.00     0.006 A 
HETATM   18  C   UNK N   1      25.824  28.693  -4.019  0.00  0.00     0.019 A 
HETATM   19  I   UNK N   1      27.557  31.012  -3.080  0.00  0.00    -0.045 I 
HETATM   20  C   UNK N   1      25.416  27.648  -4.850  0.00  0.00     0.008 A 
ENDBRANCH  13  14
ENDBRANCH   6  13
BRANCH   6  21
HETATM   21  O   UNK N   1      25.013  24.546  -5.126  0.00  0.00    -0.199 OA
BRANCH  21  22
HETATM   22  O   UNK N   1      25.714  24.360  -4.021  0.00  0.00    -0.247 OA
HETATM   23  H   UNK N   1      26.017  25.122  -3.503  0.00  0.00     0.253 HD
ENDBRANCH  21  22
ENDBRANCH   6  21
BRANCH   2  24
HETATM   24  C   UNK N   1      29.786  23.189  -4.565  0.00  0.00     0.071 C 
BRANCH  24  25
HETATM   25  C   UNK N   1      31.214  22.714  -4.502  0.00  0.00    -0.056 A 
HETATM   26  C   UNK N   1      32.236  23.516  -5.021  0.00  0.00     0.007 A 
HETATM   27  C   UNK N   1      33.555  23.046  -5.047  0.00  0.00     0.001 A 
HETATM   28  C   UNK N   1      33.854  21.771  -4.558  0.00  0.00     0.000 A 
HETATM   29  C   UNK N   1      32.838  20.968  -4.034  0.00  0.00     0.001 A 
HETATM   30  C   UNK N   1      31.521  21.437  -4.008  0.00  0.00     0.007 A 
ENDBRANCH  24  25
ENDBRANCH   2  24
BRANCH   3  31
HETATM   31  C   UNK N   1      29.328  20.301  -8.363  0.00  0.00    -0.008 A 
HETATM   32  C   UNK N   1      29.491  19.098  -7.654  0.00  0.00     0.016 A 
HETATM   33  C   UNK N   1      29.958  17.953  -8.305  0.00  0.00     0.037 A 
HETATM   34  C   UNK N   1      30.277  18.003  -9.664  0.00  0.00     0.065 A 
HETATM   35  C   UNK N   1      30.123  19.195 -10.375  0.00  0.00     0.037 A 
HETATM   36  C   UNK N   1      29.649  20.339  -9.728  0.00  0.00     0.016 A 
BRANCH  34  37
HETATM   37  O   UNK N   1      30.731  16.903 -10.287  0.00  0.00    -0.361 OA
HETATM   38  H   UNK N   1      31.641  16.684 -10.248  0.00  0.00     0.217 HD
ENDBRANCH  34  37
ENDBRANCH   3  31
TORSDOF 8
ENDMDL
MODEL 9
REMARK VINA RESULT:      -7.9     14.120     16.492
REMARK  8 active torsions:
REMARK  status: ('A' for Active; 'I' for Inactive)
REMARK    1  A    between atoms: C_17  and  C_14 
REMARK    2  A    between atoms: C_22  and  C_14 
REMARK    3  A    between atoms: C_18  and  C_15 
REMARK    4  A    between atoms: C_26  and  C_15 
REMARK    5  A    between atoms: C_23  and  C_19 
REMARK    6  A    between atoms: O_32  and  C_21 
REMARK    7  A    between atoms: C_26  and  O_35 
REMARK    8  A    between atoms: O_35  and  O_34 
ROOT
HETATM    1  C   UNK N   1      24.375  13.702   6.555  0.00  0.00     0.131 A 
HETATM    2  C   UNK N   1      22.515  15.859   5.783  0.00  0.00     0.154 A 
HETATM    3  C   UNK N   1      23.433  14.103   7.423  0.00  0.00     0.055 A 
HETATM    4  C   UNK N   1      23.536  15.268   4.847  0.00  0.00     0.112 A 
HETATM    5  C   UNK N   1      25.275  14.065   4.288  0.00  0.00     0.288 A 
HETATM    6  C   UNK N   1      24.903  14.893   3.072  0.00  0.00     0.255 A 
HETATM    7  N   UNK N   1      22.542  15.171   7.072  0.00  0.00    -0.376 N 
HETATM    8  N   UNK N   1      23.762  15.636   3.634  0.00  0.00    -0.336 N 
ATOM      9  HN  UNK N   1      23.227  16.344   3.132  1.00  0.00     0.164 HD
HETATM   10  N   UNK N   1      24.426  14.303   5.280  0.00  0.00    -0.274 N 
HETATM   11  O   UNK N   1      26.204  13.273   4.365  0.00  0.00    -0.267 OA
HETATM   12  H   UNK N   1      21.894  15.462   7.754  0.00  0.00     0.160 HD
ENDROOT
BRANCH   6  13
HETATM   13  C   UNK N   1      26.031  15.871   2.678  0.00  0.00     0.113 C 
BRANCH  13  14
HETATM   14  C   UNK N   1      26.133  17.074   3.567  0.00  0.00    -0.053 A 
HETATM   15  C   UNK N   1      25.378  18.231   3.324  0.00  0.00     0.008 A 
HETATM   16  C   UNK N   1      25.548  19.357   4.139  0.00  0.00     0.019 A 
HETATM   17  C   UNK N   1      26.473  19.330   5.188  0.00  0.00     0.006 A 
HETATM   18  C   UNK N   1      27.217  18.175   5.433  0.00  0.00     0.019 A 
HETATM   19  I   UNK N   1      26.767  21.028   6.395  0.00  0.00    -0.045 I 
HETATM   20  C   UNK N   1      27.045  17.049   4.626  0.00  0.00     0.008 A 
ENDBRANCH  13  14
ENDBRANCH   6  13
BRANCH   6  21
HETATM   21  O   UNK N   1      24.463  14.074   2.006  0.00  0.00    -0.199 OA
BRANCH  21  22
HETATM   22  O   UNK N   1      25.486  13.322   1.634  0.00  0.00    -0.247 OA
HETATM   23  H   UNK N   1      25.333  12.422   1.308  0.00  0.00     0.253 HD
ENDBRANCH  21  22
ENDBRANCH   6  21
BRANCH   2  24
HETATM   24  C   UNK N   1      21.086  15.847   5.230  0.00  0.00     0.071 C 
BRANCH  24  25
HETATM   25  C   UNK N   1      20.871  17.067   4.374  0.00  0.00    -0.056 A 
HETATM   26  C   UNK N   1      21.434  18.290   4.755  0.00  0.00     0.007 A 
HETATM   27  C   UNK N   1      21.167  19.448   4.014  0.00  0.00     0.001 A 
HETATM   28  C   UNK N   1      20.334  19.386   2.893  0.00  0.00     0.000 A 
HETATM   29  C   UNK N   1      19.775  18.167   2.505  0.00  0.00     0.001 A 
HETATM   30  C   UNK N   1      20.040  17.010   3.245  0.00  0.00     0.007 A 
ENDBRANCH  24  25
ENDBRANCH   2  24
BRANCH   3  31
HETATM   31  C   UNK N   1      23.293  13.441   8.740  0.00  0.00    -0.008 A 
HETATM   32  C   UNK N   1      24.400  12.860   9.381  0.00  0.00     0.016 A 
HETATM   33  C   UNK N   1      24.247  12.219  10.614  0.00  0.00     0.037 A 
HETATM   34  C   UNK N   1      22.986  12.145  11.210  0.00  0.00     0.065 A 
HETATM   35  C   UNK N   1      21.879  12.714  10.577  0.00  0.00     0.037 A 
HETATM   36  C   UNK N   1      22.031  13.362   9.349  0.00  0.00     0.016 A 
BRANCH  34  37
HETATM   37  O   UNK N   1      22.839  11.525  12.392  0.00  0.00    -0.361 OA
HETATM   38  H   UNK N   1      23.364  11.781  13.124  0.00  0.00     0.217 HD
ENDBRANCH  34  37
ENDBRANCH   3  31
TORSDOF 8
ENDMDL
