MODEL 1
REMARK VINA RESULT:      -4.1      0.000      0.000
REMARK  7 active torsions:
REMARK  status: ('A' for Active; 'I' for Inactive)
REMARK    1  A    between atoms: C_2  and  C_3 
REMARK    2  A    between atoms: C_3  and  C_4 
REMARK    3  A    between atoms: C_4  and  C_5 
REMARK    4  A    between atoms: C_5  and  C_6 
REMARK    5  A    between atoms: C_6  and  C_7 
REMARK    6  A    between atoms: C_7  and  N_8 
REMARK    7  A    between atoms: N_8  and  C_9 
ROOT
HETATM    1  C   UNK N   1      20.425  14.590   9.488  0.00  0.00     0.020 C 
ENDROOT
BRANCH   1   2
HETATM    2  C   UNK N   1      21.793  13.956   9.573  0.00  0.00     0.002 C 
BRANCH   2   3
HETATM    3  C   UNK N   1      21.703  12.455   9.711  0.00  0.00     0.000 C 
BRANCH   3   4
HETATM    4  C   UNK N   1      21.774  12.148  11.189  0.00  0.00    -0.000 C 
BRANCH   4   5
HETATM    5  C   UNK N   1      23.201  11.923  11.625  0.00  0.00    -0.005 C 
HETATM    6  C   UNK N   1      23.249  11.931  13.139  0.00  0.00     0.005 C 
ENDBRANCH   4   5
ENDBRANCH   3   4
ENDBRANCH   2   3
ENDBRANCH   1   2
BRANCH   1   7
HETATM    7  C   UNK N   1      20.595  15.908   8.770  0.00  0.00     0.122 C 
BRANCH   7   8
HETATM    8  N   UNK N   1      19.348  16.613   8.715  0.00  0.00    -0.368 N 
HETATM    9  H   UNK N   1      18.531  16.154   8.411  0.00  0.00     0.161 HD
BRANCH   8  10
HETATM   10  C   UNK N   1      19.304  17.908   9.081  0.00  0.00     0.348 C 
HETATM   11  O   UNK N   1      20.170  18.679   8.708  0.00  0.00    -0.284 OA
ENDBRANCH   8  10
ENDBRANCH   7   8
ENDBRANCH   1   7
TORSDOF 7
ENDMDL
MODEL 2
REMARK VINA RESULT:      -4.1     12.027     12.884
REMARK  7 active torsions:
REMARK  status: ('A' for Active; 'I' for Inactive)
REMARK    1  A    between atoms: C_2  and  C_3 
REMARK    2  A    between atoms: C_3  and  C_4 
REMARK    3  A    between atoms: C_4  and  C_5 
REMARK    4  A    between atoms: C_5  and  C_6 
REMARK    5  A    between atoms: C_6  and  C_7 
REMARK    6  A    between atoms: C_7  and  N_8 
REMARK    7  A    between atoms: N_8  and  C_9 
ROOT
HETATM    1  C   UNK N   1      33.093  18.035   8.162  0.00  0.00     0.020 C 
ENDROOT
BRANCH   1   2
HETATM    2  C   UNK N   1      32.344  16.726   8.085  0.00  0.00     0.002 C 
BRANCH   2   3
HETATM    3  C   UNK N   1      30.925  16.867   8.580  0.00  0.00     0.000 C 
BRANCH   3   4
HETATM    4  C   UNK N   1      30.701  18.338   8.849  0.00  0.00    -0.000 C 
BRANCH   4   5
HETATM    5  C   UNK N   1      29.547  18.542   9.801  0.00  0.00    -0.005 C 
HETATM    6  C   UNK N   1      28.269  18.125   9.105  0.00  0.00     0.005 C 
ENDBRANCH   4   5
ENDBRANCH   3   4
ENDBRANCH   2   3
ENDBRANCH   1   2
BRANCH   1   7
HETATM    7  C   UNK N   1      34.517  17.704   8.547  0.00  0.00     0.122 C 
BRANCH   7   8
HETATM    8  N   UNK N   1      34.580  17.284   9.915  0.00  0.00    -0.368 N 
HETATM    9  H   UNK N   1      34.047  17.746  10.602  0.00  0.00     0.161 HD
BRANCH   8  10
HETATM   10  C   UNK N   1      35.376  16.251  10.254  0.00  0.00     0.348 C 
HETATM   11  O   UNK N   1      36.466  16.459  10.757  0.00  0.00    -0.284 OA
ENDBRANCH   8  10
ENDBRANCH   7   8
ENDBRANCH   1   7
TORSDOF 7
ENDMDL
MODEL 3
REMARK VINA RESULT:      -4.1      3.701      5.908
REMARK  7 active torsions:
REMARK  status: ('A' for Active; 'I' for Inactive)
REMARK    1  A    between atoms: C_2  and  C_3 
REMARK    2  A    between atoms: C_3  and  C_4 
REMARK    3  A    between atoms: C_4  and  C_5 
REMARK    4  A    between atoms: C_5  and  C_6 
REMARK    5  A    between atoms: C_6  and  C_7 
REMARK    6  A    between atoms: C_7  and  N_8 
REMARK    7  A    between atoms: N_8  and  C_9 
ROOT
HETATM    1  C   UNK N   1      21.571  12.399  10.823  0.00  0.00     0.020 C 
ENDROOT
BRANCH   1   2
HETATM    2  C   UNK N   1      21.239  12.937   9.452  0.00  0.00     0.002 C 
BRANCH   2   3
HETATM    3  C   UNK N   1      20.751  14.364   9.518  0.00  0.00     0.000 C 
BRANCH   3   4
HETATM    4  C   UNK N   1      21.267  15.060   8.279  0.00  0.00    -0.000 C 
BRANCH   4   5
HETATM    5  C   UNK N   1      20.547  16.369   8.056  0.00  0.00    -0.005 C 
HETATM    6  C   UNK N   1      19.296  16.380   8.908  0.00  0.00     0.005 C 
ENDBRANCH   4   5
ENDBRANCH   3   4
ENDBRANCH   2   3
ENDBRANCH   1   2
BRANCH   1   7
HETATM    7  C   UNK N   1      22.983  11.863  10.754  0.00  0.00     0.122 C 
BRANCH   7   8
HETATM    8  N   UNK N   1      23.714  12.227  11.931  0.00  0.00    -0.368 N 
HETATM    9  H   UNK N   1      24.562  12.723  11.856  0.00  0.00     0.161 HD
BRANCH   8  10
HETATM   10  C   UNK N   1      23.233  11.885  13.141  0.00  0.00     0.348 C 
HETATM   11  O   UNK N   1      23.726  12.356  14.151  0.00  0.00    -0.284 OA
ENDBRANCH   8  10
ENDBRANCH   7   8
ENDBRANCH   1   7
TORSDOF 7
ENDMDL
MODEL 4
REMARK VINA RESULT:      -4.0      9.417      9.793
REMARK  7 active torsions:
REMARK  status: ('A' for Active; 'I' for Inactive)
REMARK    1  A    between atoms: C_2  and  C_3 
REMARK    2  A    between atoms: C_3  and  C_4 
REMARK    3  A    between atoms: C_4  and  C_5 
REMARK    4  A    between atoms: C_5  and  C_6 
REMARK    5  A    between atoms: C_6  and  C_7 
REMARK    6  A    between atoms: C_7  and  N_8 
REMARK    7  A    between atoms: N_8  and  C_9 
ROOT
HETATM    1  C   UNK N   1      23.638  20.754   2.909  0.00  0.00     0.020 C 
ENDROOT
BRANCH   1   2
HETATM    2  C   UNK N   1      24.550  19.822   3.671  0.00  0.00     0.002 C 
BRANCH   2   3
HETATM    3  C   UNK N   1      26.003  20.180   3.473  0.00  0.00     0.000 C 
BRANCH   3   4
HETATM    4  C   UNK N   1      26.757  19.617   4.657  0.00  0.00    -0.000 C 
BRANCH   4   5
HETATM    5  C   UNK N   1      27.581  20.689   5.329  0.00  0.00    -0.005 C 
HETATM    6  C   UNK N   1      26.696  21.435   6.304  0.00  0.00     0.005 C 
ENDBRANCH   4   5
ENDBRANCH   3   4
ENDBRANCH   2   3
ENDBRANCH   1   2
BRANCH   1   7
HETATM    7  C   UNK N   1      22.279  20.095   2.859  0.00  0.00     0.122 C 
BRANCH   7   8
HETATM    8  N   UNK N   1      21.278  21.043   2.468  0.00  0.00    -0.368 N 
HETATM    9  H   UNK N   1      21.053  21.799   3.057  0.00  0.00     0.161 HD
BRANCH   8  10
HETATM   10  C   UNK N   1      20.647  20.890   1.288  0.00  0.00     0.348 C 
HETATM   11  O   UNK N   1      21.292  20.713   0.269  0.00  0.00    -0.284 OA
ENDBRANCH   8  10
ENDBRANCH   7   8
ENDBRANCH   1   7
TORSDOF 7
ENDMDL
MODEL 5
REMARK VINA RESULT:      -4.0     14.736     15.388
REMARK  7 active torsions:
REMARK  status: ('A' for Active; 'I' for Inactive)
REMARK    1  A    between atoms: C_2  and  C_3 
REMARK    2  A    between atoms: C_3  and  C_4 
REMARK    3  A    between atoms: C_4  and  C_5 
REMARK    4  A    between atoms: C_5  and  C_6 
REMARK    5  A    between atoms: C_6  and  C_7 
REMARK    6  A    between atoms: C_7  and  N_8 
REMARK    7  A    between atoms: N_8  and  C_9 
ROOT
HETATM    1  C   UNK N   1      35.689  13.881  13.369  0.00  0.00     0.020 C 
ENDROOT
BRANCH   1   2
HETATM    2  C   UNK N   1      36.602  14.642  14.301  0.00  0.00     0.002 C 
BRANCH   2   3
HETATM    3  C   UNK N   1      36.646  14.014  15.673  0.00  0.00     0.000 C 
BRANCH   3   4
HETATM    4  C   UNK N   1      35.662  12.865  15.659  0.00  0.00    -0.000 C 
BRANCH   4   5
HETATM    5  C   UNK N   1      35.085  12.633  17.034  0.00  0.00    -0.005 C 
HETATM    6  C   UNK N   1      35.279  13.890  17.855  0.00  0.00     0.005 C 
ENDBRANCH   4   5
ENDBRANCH   3   4
ENDBRANCH   2   3
ENDBRANCH   1   2
BRANCH   1   7
HETATM    7  C   UNK N   1      36.146  14.185  11.961  0.00  0.00     0.122 C 
BRANCH   7   8
HETATM    8  N   UNK N   1      36.271  15.600  11.771  0.00  0.00    -0.368 N 
HETATM    9  H   UNK N   1      37.015  16.094  12.188  0.00  0.00     0.161 HD
BRANCH   8  10
HETATM   10  C   UNK N   1      35.364  16.249  11.017  0.00  0.00     0.348 C 
HETATM   11  O   UNK N   1      35.647  17.318  10.505  0.00  0.00    -0.284 OA
ENDBRANCH   8  10
ENDBRANCH   7   8
ENDBRANCH   1   7
TORSDOF 7
ENDMDL
MODEL 6
REMARK VINA RESULT:      -3.9     18.181     20.373
REMARK  7 active torsions:
REMARK  status: ('A' for Active; 'I' for Inactive)
REMARK    1  A    between atoms: C_2  and  C_3 
REMARK    2  A    between atoms: C_3  and  C_4 
REMARK    3  A    between atoms: C_4  and  C_5 
REMARK    4  A    between atoms: C_5  and  C_6 
REMARK    5  A    between atoms: C_6  and  C_7 
REMARK    6  A    between atoms: C_7  and  N_8 
REMARK    7  A    between atoms: N_8  and  C_9 
ROOT
HETATM    1  C   UNK N   1      25.618  26.016  -6.254  0.00  0.00     0.020 C 
ENDROOT
BRANCH   1   2
HETATM    2  C   UNK N   1      24.726  27.051  -5.610  0.00  0.00     0.002 C 
BRANCH   2   3
HETATM    3  C   UNK N   1      25.503  27.957  -4.685  0.00  0.00     0.000 C 
BRANCH   3   4
HETATM    4  C   UNK N   1      26.792  28.303  -5.395  0.00  0.00    -0.000 C 
BRANCH   4   5
HETATM    5  C   UNK N   1      27.271  29.680  -5.002  0.00  0.00    -0.005 C 
HETATM    6  C   UNK N   1      26.476  30.140  -3.799  0.00  0.00     0.005 C 
ENDBRANCH   4   5
ENDBRANCH   3   4
ENDBRANCH   2   3
ENDBRANCH   1   2
BRANCH   1   7
HETATM    7  C   UNK N   1      25.573  24.788  -5.374  0.00  0.00     0.122 C 
BRANCH   7   8
HETATM    8  N   UNK N   1      26.872  24.509  -4.837  0.00  0.00    -0.368 N 
HETATM    9  H   UNK N   1      27.580  24.140  -5.414  0.00  0.00     0.161 HD
BRANCH   8  10
HETATM   10  C   UNK N   1      27.117  24.756  -3.536  0.00  0.00     0.348 C 
HETATM   11  O   UNK N   1      26.753  23.965  -2.684  0.00  0.00    -0.284 OA
ENDBRANCH   8  10
ENDBRANCH   7   8
ENDBRANCH   1   7
TORSDOF 7
ENDMDL
MODEL 7
REMARK VINA RESULT:      -3.9     17.459     19.394
REMARK  7 active torsions:
REMARK  status: ('A' for Active; 'I' for Inactive)
REMARK    1  A    between atoms: C_2  and  C_3 
REMARK    2  A    between atoms: C_3  and  C_4 
REMARK    3  A    between atoms: C_4  and  C_5 
REMARK    4  A    between atoms: C_5  and  C_6 
REMARK    5  A    between atoms: C_6  and  C_7 
REMARK    6  A    between atoms: C_7  and  N_8 
REMARK    7  A    between atoms: N_8  and  C_9 
ROOT
HETATM    1  C   UNK N   1      27.953  24.281  -5.022  0.00  0.00     0.020 C 
ENDROOT
BRANCH   1   2
HETATM    2  C   UNK N   1      26.567  23.896  -5.484  0.00  0.00     0.002 C 
BRANCH   2   3
HETATM    3  C   UNK N   1      25.532  24.900  -5.035  0.00  0.00     0.000 C 
BRANCH   3   4
HETATM    4  C   UNK N   1      25.415  25.929  -6.136  0.00  0.00    -0.000 C 
BRANCH   4   5
HETATM    5  C   UNK N   1      24.692  27.161  -5.647  0.00  0.00    -0.005 C 
HETATM    6  C   UNK N   1      25.549  27.836  -4.598  0.00  0.00     0.005 C 
ENDBRANCH   4   5
ENDBRANCH   3   4
ENDBRANCH   2   3
ENDBRANCH   1   2
BRANCH   1   7
HETATM    7  C   UNK N   1      27.962  24.159  -3.515  0.00  0.00     0.122 C 
BRANCH   7   8
HETATM    8  N   UNK N   1      29.304  24.010  -3.034  0.00  0.00    -0.368 N 
HETATM    9  H   UNK N   1      29.979  24.702  -3.223  0.00  0.00     0.161 HD
BRANCH   8  10
HETATM   10  C   UNK N   1      29.634  22.916  -2.322  0.00  0.00     0.348 C 
HETATM   11  O   UNK N   1      30.510  22.977  -1.477  0.00  0.00    -0.284 OA
ENDBRANCH   8  10
ENDBRANCH   7   8
ENDBRANCH   1   7
TORSDOF 7
ENDMDL
MODEL 8
REMARK VINA RESULT:      -3.8     14.624     15.537
REMARK  7 active torsions:
REMARK  status: ('A' for Active; 'I' for Inactive)
REMARK    1  A    between atoms: C_2  and  C_3 
REMARK    2  A    between atoms: C_3  and  C_4 
REMARK    3  A    between atoms: C_4  and  C_5 
REMARK    4  A    between atoms: C_5  and  C_6 
REMARK    5  A    between atoms: C_6  and  C_7 
REMARK    6  A    between atoms: C_7  and  N_8 
REMARK    7  A    between atoms: N_8  and  C_9 
ROOT
HETATM    1  C   UNK N   1      36.533  13.939  14.732  0.00  0.00     0.020 C 
ENDROOT
BRANCH   1   2
HETATM    2  C   UNK N   1      35.925  12.681  15.305  0.00  0.00     0.002 C 
BRANCH   2   3
HETATM    3  C   UNK N   1      34.663  12.975  16.079  0.00  0.00     0.000 C 
BRANCH   3   4
HETATM    4  C   UNK N   1      35.084  13.285  17.498  0.00  0.00    -0.000 C 
BRANCH   4   5
HETATM    5  C   UNK N   1      35.311  12.015  18.282  0.00  0.00    -0.005 C 
HETATM    6  C   UNK N   1      35.320  12.356  19.757  0.00  0.00     0.005 C 
ENDBRANCH   4   5
ENDBRANCH   3   4
ENDBRANCH   2   3
ENDBRANCH   1   2
BRANCH   1   7
HETATM    7  C   UNK N   1      36.510  13.793  13.228  0.00  0.00     0.122 C 
BRANCH   7   8
HETATM    8  N   UNK N   1      36.369  15.075  12.603  0.00  0.00    -0.368 N 
HETATM    9  H   UNK N   1      36.976  15.813  12.841  0.00  0.00     0.161 HD
BRANCH   8  10
HETATM   10  C   UNK N   1      35.399  15.263  11.689  0.00  0.00     0.348 C 
HETATM   11  O   UNK N   1      34.364  14.623  11.756  0.00  0.00    -0.284 OA
ENDBRANCH   8  10
ENDBRANCH   7   8
ENDBRANCH   1   7
TORSDOF 7
ENDMDL
MODEL 9
REMARK VINA RESULT:      -3.7     10.889     11.934
REMARK  7 active torsions:
REMARK  status: ('A' for Active; 'I' for Inactive)
REMARK    1  A    between atoms: C_2  and  C_3 
REMARK    2  A    between atoms: C_3  and  C_4 
REMARK    3  A    between atoms: C_4  and  C_5 
REMARK    4  A    between atoms: C_5  and  C_6 
REMARK    5  A    between atoms: C_6  and  C_7 
REMARK    6  A    between atoms: C_7  and  N_8 
REMARK    7  A    between atoms: N_8  and  C_9 
ROOT
HETATM    1  C   UNK N   1      30.950  17.711   8.569  0.00  0.00     0.020 C 
ENDROOT
BRANCH   1   2
HETATM    2  C   UNK N   1      29.806  17.716   7.584  0.00  0.00     0.002 C 
BRANCH   2   3
HETATM    3  C   UNK N   1      28.473  17.854   8.281  0.00  0.00     0.000 C 
BRANCH   3   4
HETATM    4  C   UNK N   1      27.945  19.230   7.943  0.00  0.00    -0.000 C 
BRANCH   4   5
HETATM    5  C   UNK N   1      27.811  19.404   6.450  0.00  0.00    -0.005 C 
HETATM    6  C   UNK N   1      27.559  20.868   6.157  0.00  0.00     0.005 C 
ENDBRANCH   4   5
ENDBRANCH   3   4
ENDBRANCH   2   3
ENDBRANCH   1   2
BRANCH   1   7
HETATM    7  C   UNK N   1      32.224  17.618   7.761  0.00  0.00     0.122 C 
BRANCH   7   8
HETATM    8  N   UNK N   1      33.366  17.840   8.599  0.00  0.00    -0.368 N 
HETATM    9  H   UNK N   1      33.298  17.714   9.574  0.00  0.00     0.161 HD
BRANCH   8  10
HETATM   10  C   UNK N   1      34.530  18.223   8.043  0.00  0.00     0.348 C 
HETATM   11  O   UNK N   1      35.098  19.224   8.442  0.00  0.00    -0.284 OA
ENDBRANCH   8  10
ENDBRANCH   7   8
ENDBRANCH   1   7
TORSDOF 7
ENDMDL
