MODEL 1
REMARK VINA RESULT:      -4.2      0.000      0.000
REMARK  5 active torsions:
REMARK  status: ('A' for Active; 'I' for Inactive)
REMARK    1  A    between atoms: C_2  and  C_4 
REMARK    2  A    between atoms: C_4  and  C_5 
REMARK    3  A    between atoms: C_5  and  N_7 
REMARK    4  A    between atoms: C_5  and  C_8 
REMARK    5  A    between atoms: C_8  and  O_9 
ROOT
HETATM    1  C   UNK N   1      36.496  13.660  14.967  0.00  0.00     0.106 C 
HETATM    2  C   UNK N   1      37.156  14.859  15.622  0.00  0.00     0.050 C 
ENDROOT
BRANCH   1   3
HETATM    3  C   UNK N   1      35.418  13.128  15.937  0.00  0.00     0.045 C 
BRANCH   3   4
HETATM    4  C   UNK N   1      35.570  11.663  16.341  0.00  0.00    -0.020 C 
HETATM    5  C   UNK N   1      35.366  11.531  17.839  0.00  0.00     0.009 C 
HETATM    6  C   UNK N   1      34.531  10.824  15.630  0.00  0.00     0.009 C 
ENDBRANCH   3   4
ENDBRANCH   1   3
BRANCH   1   7
HETATM    7  N   UNK N   1      37.522  12.659  14.701  0.00  0.00    -0.414 N 
HETATM    8  H   UNK N   1      38.143  12.333  15.440  0.00  0.00     0.151 HD
HETATM    9  H   UNK N   1      37.619  12.279  13.759  0.00  0.00     0.151 HD
ENDBRANCH   1   7
BRANCH   1  10
HETATM   10  C   UNK N   1      35.894  14.101  13.655  0.00  0.00     0.168 C 
HETATM   11  O   UNK N   1      34.862  13.596  13.237  0.00  0.00    -0.648 OA
BRANCH  10  12
HETATM   12  O   UNK N   1      36.497  15.066  12.934  0.00  0.00    -0.775 OA
HETATM   13  H   UNK N   1      37.383  14.961  12.649  0.00  0.00     0.167 HD
ENDBRANCH  10  12
ENDBRANCH   1  10
TORSDOF 5
ENDMDL
MODEL 2
REMARK VINA RESULT:      -4.1      6.035      7.519
REMARK  5 active torsions:
REMARK  status: ('A' for Active; 'I' for Inactive)
REMARK    1  A    between atoms: C_2  and  C_4 
REMARK    2  A    between atoms: C_4  and  C_5 
REMARK    3  A    between atoms: C_5  and  N_7 
REMARK    4  A    between atoms: C_5  and  C_8 
REMARK    5  A    between atoms: C_8  and  O_9 
ROOT
HETATM    1  C   UNK N   1      33.952  16.980   8.701  0.00  0.00     0.106 C 
HETATM    2  C   UNK N   1      33.893  15.734   7.837  0.00  0.00     0.050 C 
ENDROOT
BRANCH   1   3
HETATM    3  C   UNK N   1      34.873  16.674   9.903  0.00  0.00     0.045 C 
BRANCH   3   4
HETATM    4  C   UNK N   1      35.207  15.199  10.112  0.00  0.00    -0.020 C 
HETATM    5  C   UNK N   1      36.709  15.040  10.261  0.00  0.00     0.009 C 
HETATM    6  C   UNK N   1      34.534  14.693  11.369  0.00  0.00     0.009 C 
ENDBRANCH   3   4
ENDBRANCH   1   3
BRANCH   1   7
HETATM    7  N   UNK N   1      32.599  17.307   9.130  0.00  0.00    -0.414 N 
HETATM    8  H   UNK N   1      31.978  16.591   9.506  0.00  0.00     0.151 HD
HETATM    9  H   UNK N   1      32.267  18.269   9.054  0.00  0.00     0.151 HD
ENDBRANCH   1   7
BRANCH   1  10
HETATM   10  C   UNK N   1      34.487  18.118   7.867  0.00  0.00     0.168 C 
HETATM   11  O   UNK N   1      34.372  18.114   6.650  0.00  0.00    -0.648 OA
BRANCH  10  12
HETATM   12  O   UNK N   1      35.098  19.158   8.469  0.00  0.00    -0.775 OA
HETATM   13  H   UNK N   1      35.456  19.858   7.959  0.00  0.00     0.167 HD
ENDBRANCH  10  12
ENDBRANCH   1  10
TORSDOF 5
ENDMDL
MODEL 3
REMARK VINA RESULT:      -4.1     19.309     20.424
REMARK  5 active torsions:
REMARK  status: ('A' for Active; 'I' for Inactive)
REMARK    1  A    between atoms: C_2  and  C_4 
REMARK    2  A    between atoms: C_4  and  C_5 
REMARK    3  A    between atoms: C_5  and  N_7 
REMARK    4  A    between atoms: C_5  and  C_8 
REMARK    5  A    between atoms: C_8  and  O_9 
ROOT
HETATM    1  C   UNK N   1      20.232  18.996   2.393  0.00  0.00     0.106 C 
HETATM    2  C   UNK N   1      20.648  17.598   1.976  0.00  0.00     0.050 C 
ENDROOT
BRANCH   1   3
HETATM    3  C   UNK N   1      20.853  19.277   3.779  0.00  0.00     0.045 C 
BRANCH   3   4
HETATM    4  C   UNK N   1      22.013  18.365   4.173  0.00  0.00    -0.020 C 
HETATM    5  C   UNK N   1      23.326  19.075   3.898  0.00  0.00     0.009 C 
HETATM    6  C   UNK N   1      21.932  18.039   5.648  0.00  0.00     0.009 C 
ENDBRANCH   3   4
ENDBRANCH   1   3
BRANCH   1   7
HETATM    7  N   UNK N   1      18.776  19.051   2.434  0.00  0.00    -0.414 N 
HETATM    8  H   UNK N   1      18.282  19.230   3.307  0.00  0.00     0.151 HD
HETATM    9  H   UNK N   1      18.244  18.907   1.576  0.00  0.00     0.151 HD
ENDBRANCH   1   7
BRANCH   1  10
HETATM   10  C   UNK N   1      20.726  19.974   1.355  0.00  0.00     0.168 C 
HETATM   11  O   UNK N   1      21.269  21.019   1.683  0.00  0.00    -0.648 OA
BRANCH  10  12
HETATM   12  O   UNK N   1      20.573  19.693   0.046  0.00  0.00    -0.775 OA
HETATM   13  H   UNK N   1      19.744  19.404  -0.283  0.00  0.00     0.167 HD
ENDBRANCH  10  12
ENDBRANCH   1  10
TORSDOF 5
ENDMDL
MODEL 4
REMARK VINA RESULT:      -4.1      7.630      8.988
REMARK  5 active torsions:
REMARK  status: ('A' for Active; 'I' for Inactive)
REMARK    1  A    between atoms: C_2  and  C_4 
REMARK    2  A    between atoms: C_4  and  C_5 
REMARK    3  A    between atoms: C_5  and  N_7 
REMARK    4  A    between atoms: C_5  and  C_8 
REMARK    5  A    between atoms: C_8  and  O_9 
ROOT
HETATM    1  C   UNK N   1      33.757  17.221   8.208  0.00  0.00     0.106 C 
HETATM    2  C   UNK N   1      33.327  16.035   9.050  0.00  0.00     0.050 C 
ENDROOT
BRANCH   1   3
HETATM    3  C   UNK N   1      32.519  18.121   7.995  0.00  0.00     0.045 C 
BRANCH   3   4
HETATM    4  C   UNK N   1      31.176  17.472   8.325  0.00  0.00    -0.020 C 
HETATM    5  C   UNK N   1      30.321  18.456   9.103  0.00  0.00     0.009 C 
HETATM    6  C   UNK N   1      30.457  17.103   7.046  0.00  0.00     0.009 C 
ENDBRANCH   3   4
ENDBRANCH   1   3
BRANCH   1   7
HETATM    7  N   UNK N   1      34.283  16.722   6.944  0.00  0.00    -0.414 N 
HETATM    8  H   UNK N   1      34.662  15.779   6.867  0.00  0.00     0.151 HD
HETATM    9  H   UNK N   1      34.271  17.326   6.122  0.00  0.00     0.151 HD
ENDBRANCH   1   7
BRANCH   1  10
HETATM   10  C   UNK N   1      34.857  17.955   8.936  0.00  0.00     0.168 C 
HETATM   11  O   UNK N   1      35.377  17.477   9.934  0.00  0.00    -0.648 OA
BRANCH  10  12
HETATM   12  O   UNK N   1      35.276  19.152   8.482  0.00  0.00    -0.775 OA
HETATM   13  H   UNK N   1      36.010  19.579   8.879  0.00  0.00     0.167 HD
ENDBRANCH  10  12
ENDBRANCH   1  10
TORSDOF 5
ENDMDL
MODEL 5
REMARK VINA RESULT:      -4.0      8.087      9.513
REMARK  5 active torsions:
REMARK  status: ('A' for Active; 'I' for Inactive)
REMARK    1  A    between atoms: C_2  and  C_4 
REMARK    2  A    between atoms: C_4  and  C_5 
REMARK    3  A    between atoms: C_5  and  N_7 
REMARK    4  A    between atoms: C_5  and  C_8 
REMARK    5  A    between atoms: C_8  and  O_9 
ROOT
HETATM    1  C   UNK N   1      33.516  17.214   8.383  0.00  0.00     0.106 C 
HETATM    2  C   UNK N   1      32.286  18.102   8.393  0.00  0.00     0.050 C 
ENDROOT
BRANCH   1   3
HETATM    3  C   UNK N   1      33.716  16.702   6.939  0.00  0.00     0.045 C 
BRANCH   3   4
HETATM    4  C   UNK N   1      32.538  16.934   5.995  0.00  0.00    -0.020 C 
HETATM    5  C   UNK N   1      33.043  17.550   4.704  0.00  0.00     0.009 C 
HETATM    6  C   UNK N   1      31.867  15.615   5.679  0.00  0.00     0.009 C 
ENDBRANCH   3   4
ENDBRANCH   1   3
BRANCH   1   7
HETATM    7  N   UNK N   1      33.298  16.116   9.317  0.00  0.00    -0.414 N 
HETATM    8  H   UNK N   1      33.429  16.244  10.320  0.00  0.00     0.151 HD
HETATM    9  H   UNK N   1      33.011  15.204   8.961  0.00  0.00     0.151 HD
ENDBRANCH   1   7
BRANCH   1  10
HETATM   10  C   UNK N   1      34.698  18.025   8.854  0.00  0.00     0.168 C 
HETATM   11  O   UNK N   1      35.014  19.062   8.289  0.00  0.00    -0.648 OA
BRANCH  10  12
HETATM   12  O   UNK N   1      35.417  17.605   9.914  0.00  0.00    -0.775 OA
HETATM   13  H   UNK N   1      35.835  18.226  10.478  0.00  0.00     0.167 HD
ENDBRANCH  10  12
ENDBRANCH   1  10
TORSDOF 5
ENDMDL
MODEL 6
REMARK VINA RESULT:      -4.0     13.003     14.127
REMARK  5 active torsions:
REMARK  status: ('A' for Active; 'I' for Inactive)
REMARK    1  A    between atoms: C_2  and  C_4 
REMARK    2  A    between atoms: C_4  and  C_5 
REMARK    3  A    between atoms: C_5  and  N_7 
REMARK    4  A    between atoms: C_5  and  C_8 
REMARK    5  A    between atoms: C_8  and  O_9 
ROOT
HETATM    1  C   UNK N   1      22.672  12.123  10.827  0.00  0.00     0.106 C 
HETATM    2  C   UNK N   1      21.240  12.191  11.321  0.00  0.00     0.050 C 
ENDROOT
BRANCH   1   3
HETATM    3  C   UNK N   1      22.924  13.362   9.940  0.00  0.00     0.045 C 
BRANCH   3   4
HETATM    4  C   UNK N   1      23.453  13.066   8.538  0.00  0.00    -0.020 C 
HETATM    5  C   UNK N   1      22.681  13.892   7.525  0.00  0.00     0.009 C 
HETATM    6  C   UNK N   1      24.918  13.434   8.455  0.00  0.00     0.009 C 
ENDBRANCH   3   4
ENDBRANCH   1   3
BRANCH   1   7
HETATM    7  N   UNK N   1      22.843  10.883  10.079  0.00  0.00    -0.414 N 
HETATM    8  H   UNK N   1      22.129  10.156  10.097  0.00  0.00     0.151 HD
HETATM    9  H   UNK N   1      23.691  10.742   9.529  0.00  0.00     0.151 HD
ENDBRANCH   1   7
BRANCH   1  10
HETATM   10  C   UNK N   1      23.593  12.100  12.023  0.00  0.00     0.168 C 
HETATM   11  O   UNK N   1      23.158  11.898  13.147  0.00  0.00    -0.648 OA
BRANCH  10  12
HETATM   12  O   UNK N   1      24.914  12.301  11.852  0.00  0.00    -0.775 OA
HETATM   13  H   UNK N   1      25.259  13.172  11.806  0.00  0.00     0.167 HD
ENDBRANCH  10  12
ENDBRANCH   1  10
TORSDOF 5
ENDMDL
MODEL 7
REMARK VINA RESULT:      -4.0     25.364     26.691
REMARK  5 active torsions:
REMARK  status: ('A' for Active; 'I' for Inactive)
REMARK    1  A    between atoms: C_2  and  C_4 
REMARK    2  A    between atoms: C_4  and  C_5 
REMARK    3  A    between atoms: C_5  and  N_7 
REMARK    4  A    between atoms: C_5  and  C_8 
REMARK    5  A    between atoms: C_8  and  O_9 
ROOT
HETATM    1  C   UNK N   1      26.112  26.799  -4.697  0.00  0.00     0.106 C 
HETATM    2  C   UNK N   1      25.000  27.128  -5.675  0.00  0.00     0.050 C 
ENDROOT
BRANCH   1   3
HETATM    3  C   UNK N   1      27.447  27.238  -5.337  0.00  0.00     0.045 C 
BRANCH   3   4
HETATM    4  C   UNK N   1      27.341  28.365  -6.363  0.00  0.00    -0.020 C 
HETATM    5  C   UNK N   1      27.996  29.615  -5.805  0.00  0.00     0.009 C 
HETATM    6  C   UNK N   1      28.051  27.967  -7.638  0.00  0.00     0.009 C 
ENDBRANCH   3   4
ENDBRANCH   1   3
BRANCH   1   7
HETATM    7  N   UNK N   1      26.087  25.365  -4.436  0.00  0.00    -0.414 N 
HETATM    8  H   UNK N   1      25.426  24.755  -4.915  0.00  0.00     0.151 HD
HETATM    9  H   UNK N   1      26.741  24.966  -3.763  0.00  0.00     0.151 HD
ENDBRANCH   1   7
BRANCH   1  10
HETATM   10  C   UNK N   1      25.848  27.533  -3.405  0.00  0.00     0.168 C 
HETATM   11  O   UNK N   1      26.026  26.989  -2.325  0.00  0.00    -0.648 OA
BRANCH  10  12
HETATM   12  O   UNK N   1      25.415  28.809  -3.438  0.00  0.00    -0.775 OA
HETATM   13  H   UNK N   1      24.837  29.130  -2.773  0.00  0.00     0.167 HD
ENDBRANCH  10  12
ENDBRANCH   1  10
TORSDOF 5
ENDMDL
MODEL 8
REMARK VINA RESULT:      -4.0      6.884      8.089
REMARK  5 active torsions:
REMARK  status: ('A' for Active; 'I' for Inactive)
REMARK    1  A    between atoms: C_2  and  C_4 
REMARK    2  A    between atoms: C_4  and  C_5 
REMARK    3  A    between atoms: C_5  and  N_7 
REMARK    4  A    between atoms: C_5  and  C_8 
REMARK    5  A    between atoms: C_8  and  O_9 
ROOT
HETATM    1  C   UNK N   1      34.033  16.978   8.727  0.00  0.00     0.106 C 
HETATM    2  C   UNK N   1      32.517  17.004   8.762  0.00  0.00     0.050 C 
ENDROOT
BRANCH   1   3
HETATM    3  C   UNK N   1      34.466  15.621   8.130  0.00  0.00     0.045 C 
BRANCH   3   4
HETATM    4  C   UNK N   1      33.505  14.460   8.378  0.00  0.00    -0.020 C 
HETATM    5  C   UNK N   1      33.266  13.718   7.076  0.00  0.00     0.009 C 
HETATM    6  C   UNK N   1      34.105  13.503   9.384  0.00  0.00     0.009 C 
ENDBRANCH   3   4
ENDBRANCH   1   3
BRANCH   1   7
HETATM    7  N   UNK N   1      34.528  17.148  10.088  0.00  0.00    -0.414 N 
HETATM    8  H   UNK N   1      35.446  17.554  10.267  0.00  0.00     0.151 HD
HETATM    9  H   UNK N   1      33.946  16.857  10.874  0.00  0.00     0.151 HD
ENDBRANCH   1   7
BRANCH   1  10
HETATM   10  C   UNK N   1      34.515  18.134   7.886  0.00  0.00     0.168 C 
HETATM   11  O   UNK N   1      35.051  19.105   8.400  0.00  0.00    -0.648 OA
BRANCH  10  12
HETATM   12  O   UNK N   1      34.357  18.098   6.548  0.00  0.00    -0.775 OA
HETATM   13  H   UNK N   1      33.582  17.728   6.172  0.00  0.00     0.167 HD
ENDBRANCH  10  12
ENDBRANCH   1  10
TORSDOF 5
ENDMDL
MODEL 9
REMARK VINA RESULT:      -3.9     16.878     17.765
REMARK  5 active torsions:
REMARK  status: ('A' for Active; 'I' for Inactive)
REMARK    1  A    between atoms: C_2  and  C_4 
REMARK    2  A    between atoms: C_4  and  C_5 
REMARK    3  A    between atoms: C_5  and  N_7 
REMARK    4  A    between atoms: C_5  and  C_8 
REMARK    5  A    between atoms: C_8  and  O_9 
ROOT
HETATM    1  C   UNK N   1      43.822  23.067   3.204  0.00  0.00     0.106 C 
HETATM    2  C   UNK N   1      44.602  23.776   2.114  0.00  0.00     0.050 C 
ENDROOT
BRANCH   1   3
HETATM    3  C   UNK N   1      42.519  22.526   2.574  0.00  0.00     0.045 C 
BRANCH   3   4
HETATM    4  C   UNK N   1      42.220  23.024   1.162  0.00  0.00    -0.020 C 
HETATM    5  C   UNK N   1      41.929  21.837   0.262  0.00  0.00     0.009 C 
HETATM    6  C   UNK N   1      41.010  23.931   1.183  0.00  0.00     0.009 C 
ENDBRANCH   3   4
ENDBRANCH   1   3
BRANCH   1   7
HETATM    7  N   UNK N   1      43.547  24.023   4.269  0.00  0.00    -0.414 N 
HETATM    8  H   UNK N   1      43.160  24.944   4.063  0.00  0.00     0.151 HD
HETATM    9  H   UNK N   1      43.745  23.767   5.237  0.00  0.00     0.151 HD
ENDBRANCH   1   7
BRANCH   1  10
HETATM   10  C   UNK N   1      44.675  21.953   3.759  0.00  0.00     0.168 C 
HETATM   11  O   UNK N   1      44.283  20.795   3.743  0.00  0.00    -0.648 OA
BRANCH  10  12
HETATM   12  O   UNK N   1      45.887  22.233   4.275  0.00  0.00    -0.775 OA
HETATM   13  H   UNK N   1      46.354  21.586   4.767  0.00  0.00     0.167 HD
ENDBRANCH  10  12
ENDBRANCH   1  10
TORSDOF 5
ENDMDL
