REMARK  18 active torsions:
REMARK  status: ('A' for Active; 'I' for Inactive)
REMARK    1  A    between atoms: C_13  and  C_7 
REMARK    2  A    between atoms: C_7  and  O_43 
REMARK    3  A    between atoms: C_14  and  C_8 
REMARK    4  A    between atoms: C_8  and  O_44 
REMARK    5  A    between atoms: C_9  and  C_21 
REMARK    6  A    between atoms: C_11  and  N_22 
REMARK    7  A    between atoms: C_15  and  O_31 
REMARK    8  A    between atoms: C_16  and  O_32 
REMARK    9  A    between atoms: C_17  and  O_33 
REMARK   10  A    between atoms: C_18  and  O_34 
REMARK   11  A    between atoms: C_19  and  N_29 
REMARK   12  A    between atoms: C_20  and  N_30 
REMARK   13  A    between atoms: C_21  and  O_37 
REMARK   14  A    between atoms: O_36  and  P_47 
REMARK   15  A    between atoms: O_43  and  P_46 
REMARK   16  A    between atoms: O_44  and  P_47 
REMARK   17  A    between atoms: O_45  and  P_46 
REMARK   18  A    between atoms: O_45  and  P_47 
ROOT
HETATM    1  O   UNK N   1      20.138 -26.552  -1.805  0.00  0.00    -0.307 OA
HETATM    2  O   UNK N   1      18.920 -27.672   0.257  0.00  0.00    -0.631 OA
HETATM    3  P   UNK N   1      19.840 -26.472  -0.097  0.00  0.00     0.401 P 
HETATM    4  H   UNK N   1      20.182 -26.719  -2.760  0.00  0.00     0.222 HD
ENDROOT
BRANCH   3   5
HETATM    5  O   UNK N   1      21.340 -26.579   0.810  0.00  0.00    -0.294 OA
BRANCH   5   6
HETATM    6  C   UNK N   1      21.359 -27.822   1.438  0.00  0.00     0.215 C 
BRANCH   6   7
HETATM    7  C   UNK N   1      22.087 -28.853   0.588  0.00  0.00     0.180 C 
HETATM    8  C   UNK N   1      23.592 -28.963   0.670  0.00  0.00     0.182 C 
HETATM    9  C   UNK N   1      23.850 -29.718  -0.615  0.00  0.00     0.198 C 
HETATM   10  C   UNK N   1      22.460 -29.991  -1.216  0.00  0.00     0.262 C 
HETATM   11  O   UNK N   1      21.718 -28.886  -0.769  0.00  0.00    -0.353 OA
BRANCH   8  12
HETATM   12  O   UNK N   1      24.176 -27.699   0.562  0.00  0.00    -0.390 OA
HETATM   13  H   UNK N   1      25.139 -27.612   0.487  0.00  0.00     0.210 HD
ENDBRANCH   8  12
BRANCH   9  14
HETATM   14  O   UNK N   1      24.637 -30.854  -0.433  0.00  0.00    -0.388 OA
HETATM   15  H   UNK N   1      24.226 -31.724  -0.306  0.00  0.00     0.210 HD
ENDBRANCH   9  14
BRANCH  10  16
HETATM   16  N   UNK N   1      21.802 -31.226  -0.729  0.00  0.00    -0.297 N 
HETATM   17  C   UNK N   1      22.358 -32.450  -0.525  0.00  0.00     0.188 A 
HETATM   18  N   UNK N   1      21.451 -33.332  -0.017  0.00  0.00    -0.346 N 
HETATM   19  C   UNK N   1      20.310 -32.623   0.075  0.00  0.00     0.122 A 
ATOM     20  HN  UNK N   1      21.602 -34.308   0.237  1.00  0.00     0.167 HD
HETATM   21  C   UNK N   1      19.058 -33.000   0.536  0.00  0.00     0.131 A 
HETATM   22  C   UNK N   1      20.518 -31.370  -0.362  0.00  0.00     0.142 A 
HETATM   23  N   UNK N   1      18.058 -32.069   0.514  0.00  0.00    -0.337 N 
HETATM   24  C   UNK N   1      18.288 -30.799   0.048  0.00  0.00     0.183 A 
ATOM     25  HN  UNK N   1      17.128 -32.322   0.848  1.00  0.00     0.168 HD
HETATM   26  N   UNK N   1      19.532 -30.439  -0.392  0.00  0.00    -0.336 N 
ATOM     27  HN  UNK N   1      19.714 -29.495  -0.733  1.00  0.00     0.168 HD
BRANCH  21  28
HETATM   28  N   UNK N   1      18.817 -34.299   1.025  0.00  0.00    -0.383 N 
HETATM   29  H   UNK N   1      17.947 -34.607   1.366  0.00  0.00     0.157 HD
HETATM   30  H   UNK N   1      19.566 -34.939   1.025  0.00  0.00     0.157 HD
ENDBRANCH  21  28
ENDBRANCH  10  16
ENDBRANCH   6   7
ENDBRANCH   5   6
ENDBRANCH   3   5
BRANCH   3  31
HETATM   31  O   UNK N   1      18.932 -25.046   0.304  0.00  0.00    -0.195 OA
BRANCH  31  32
HETATM   32  P   UNK N   1      20.110 -23.797   0.562  0.00  0.00     0.401 P 
HETATM   33  O   UNK N   1      20.611 -23.938   2.024  0.00  0.00    -0.631 OA
BRANCH  32  34
HETATM   34  O   UNK N   1      19.357 -22.236   0.455  0.00  0.00    -0.307 OA
HETATM   35  H   UNK N   1      19.902 -21.436   0.396  0.00  0.00     0.222 HD
ENDBRANCH  32  34
BRANCH  32  36
HETATM   36  O   UNK N   1      21.496 -23.968  -0.489  0.00  0.00    -0.294 OA
BRANCH  36  37
HETATM   37  C   UNK N   1      21.408 -22.910  -1.391  0.00  0.00     0.215 C 
BRANCH  37  38
HETATM   38  C   UNK N   1      22.513 -21.893  -1.131  0.00  0.00     0.180 C 
HETATM   39  C   UNK N   1      22.044 -20.491  -1.451  0.00  0.00     0.182 C 
HETATM   40  C   UNK N   1      23.121 -19.724  -0.741  0.00  0.00     0.198 C 
HETATM   41  C   UNK N   1      23.536 -20.632   0.410  0.00  0.00     0.259 C 
HETATM   42  O   UNK N   1      22.923 -21.889   0.215  0.00  0.00    -0.353 OA
BRANCH  39  43
HETATM   43  O   UNK N   1      20.806 -20.250  -0.841  0.00  0.00    -0.390 OA
HETATM   44  H   UNK N   1      20.522 -19.425  -0.419  0.00  0.00     0.210 HD
ENDBRANCH  39  43
BRANCH  40  45
HETATM   45  O   UNK N   1      22.671 -18.486  -0.276  0.00  0.00    -0.388 OA
HETATM   46  H   UNK N   1      23.259 -17.786   0.048  0.00  0.00     0.210 HD
ENDBRANCH  40  45
BRANCH  41  47
HETATM   47  N   UNK N   1      25.001 -20.742   0.438  0.00  0.00    -0.336 N 
HETATM   48  C   UNK N   1      25.741 -19.620   0.674  0.00  0.00     0.093 A 
HETATM   49  C   UNK N   1      27.135 -19.674   0.673  0.00  0.00     0.018 A 
HETATM   50  C   UNK N   1      27.772 -20.888   0.424  0.00  0.00     0.021 A 
HETATM   51  C   UNK N   1      27.014 -22.037   0.189  0.00  0.00     0.053 A 
HETATM   52  C   UNK N   1      25.616 -21.941   0.204  0.00  0.00     0.111 A 
BRANCH  51  53
HETATM   53  C   UNK N   1      27.680 -23.326  -0.082  0.00  0.00     0.177 C 
HETATM   54  O   UNK N   1      27.019 -24.334  -0.277  0.00  0.00    -0.646 OA
BRANCH  53  55
HETATM   55  O   UNK N   1      29.025 -23.398  -0.123  0.00  0.00    -0.773 OA
HETATM   56  H   UNK N   1      29.450 -24.233  -0.151  0.00  0.00     0.167 HD
ENDBRANCH  53  55
ENDBRANCH  51  53
ENDBRANCH  41  47
ENDBRANCH  37  38
ENDBRANCH  36  37
ENDBRANCH  32  36
ENDBRANCH  31  32
ENDBRANCH   3  31
TORSDOF 18
