REMARK  5 active torsions:
REMARK  status: ('A' for Active; 'I' for Inactive)
REMARK    1  A    between atoms: C_7  and  C_5 
REMARK    2  A    between atoms: O_10  and  C_6 
REMARK    3  A    between atoms: C_8  and  C_7 
REMARK    4  A    between atoms: C_7  and  N_9 
REMARK    5  A    between atoms: O_11  and  C_8 
ROOT
HETATM    1  C   UNK N   1       2.257   0.086  -0.020  0.00  0.00     0.012 A 
HETATM    2  C   UNK N   1      -0.150   0.276   0.078  0.00  0.00     0.012 A 
HETATM    3  C   UNK N   1       2.367   1.480   0.016  0.00  0.00     0.037 A 
HETATM    4  C   UNK N   1      -0.041   1.668   0.109  0.00  0.00     0.037 A 
HETATM    5  C   UNK N   1       0.996  -0.533   0.007  0.00  0.00    -0.026 A 
HETATM    6  C   UNK N   1       1.217   2.271   0.072  0.00  0.00     0.065 A 
ENDROOT
BRANCH   5   7
HETATM    7  C   UNK N   1       0.926  -2.051  -0.081  0.00  0.00     0.207 C 
BRANCH   7   8
HETATM    8  C   UNK N   1      -0.446  -2.701  -0.073  0.00  0.00     0.167 C 
HETATM    9  O   UNK N   1      -1.470  -2.046   0.048  0.00  0.00    -0.648 OA
BRANCH   8  10
HETATM   10  O   UNK N   1      -0.538  -4.038  -0.200  0.00  0.00    -0.775 OA
HETATM   11  H   UNK N   1      -1.376  -4.448  -0.289  0.00  0.00     0.167 HD
ENDBRANCH   8  10
ENDBRANCH   7   8
BRANCH   7  12
HETATM   12  N   UNK N   1       1.706  -2.627   1.003  0.00  0.00    -0.414 N 
HETATM   13  H   UNK N   1       1.630  -3.303   1.762  0.00  0.00     0.151 HD
HETATM   14  H   UNK N   1       2.641  -2.219   1.003  0.00  0.00     0.151 HD
ENDBRANCH   7  12
ENDBRANCH   5   7
BRANCH   6  15
HETATM   15  O   UNK N   1       1.320   3.609   0.084  0.00  0.00    -0.361 OA
HETATM   16  H   UNK N   1       2.166   4.014   0.092  0.00  0.00     0.217 HD
ENDBRANCH   6  15
TORSDOF 5
