REMARK  0 active torsions:
REMARK  status: ('A' for Active; 'I' for Inactive)
ROOT
HETATM    1  C   UNK N   1      -0.068  -1.541   0.000  0.00  0.00     0.001 A 
HETATM    2  C   UNK N   1      -0.073  -0.141  -0.000  0.00  0.00     0.001 A 
HETATM    3  C   UNK N   1       1.133   0.567  -0.000  0.00  0.00     0.013 A 
HETATM    4  C   UNK N   1       2.344  -0.128   0.000  0.00  0.00    -0.011 A 
HETATM    5  C   UNK N   1       3.556   0.560   0.000  0.00  0.00     0.099 A 
HETATM    6  N   UNK N   1       4.728  -0.131   0.000  0.00  0.00    -0.374 N 
ATOM      7  HN  UNK N   1       5.609   0.384   0.000  1.00  0.00     0.164 HD
HETATM    8  C   UNK N   1       4.755  -1.493  -0.000  0.00  0.00     0.088 A 
HETATM    9  C   UNK N   1       3.564  -2.223  -0.000  0.00  0.00     0.029 A 
HETATM   10  C   UNK N   1       2.350  -1.538   0.000  0.00  0.00    -0.023 A 
HETATM   11  C   UNK N   1       1.143  -2.241   0.000  0.00  0.00     0.012 A 
ENDROOT
TORSDOF 0
