MODEL 1
REMARK VINA RESULT:      -5.1      0.000      0.000
REMARK  5 active torsions:
REMARK  status: ('A' for Active; 'I' for Inactive)
REMARK    1  A    between atoms: C_7  and  C_5 
REMARK    2  A    between atoms: O_10  and  C_6 
REMARK    3  A    between atoms: C_8  and  C_7 
REMARK    4  A    between atoms: C_7  and  N_9 
REMARK    5  A    between atoms: O_11  and  C_8 
ROOT
HETATM    1  C   UNK N   1      31.844  17.975   8.644  0.00  0.00     0.012 A 
HETATM    2  C   UNK N   1      30.926  16.946   6.660  0.00  0.00     0.012 A 
HETATM    3  C   UNK N   1      33.087  18.081   8.011  0.00  0.00     0.037 A 
HETATM    4  C   UNK N   1      32.168  17.047   6.030  0.00  0.00     0.037 A 
HETATM    5  C   UNK N   1      30.748  17.403   7.976  0.00  0.00    -0.026 A 
HETATM    6  C   UNK N   1      33.251  17.609   6.707  0.00  0.00     0.065 A 
ENDROOT
BRANCH   5   7
HETATM    7  C   UNK N   1      29.429  17.267   8.722  0.00  0.00     0.207 C 
BRANCH   7   8
HETATM    8  C   UNK N   1      28.388  18.355   8.529  0.00  0.00     0.167 C 
HETATM    9  O   UNK N   1      28.484  19.190   7.643  0.00  0.00    -0.648 OA
BRANCH   8  10
HETATM   10  O   UNK N   1      27.330  18.404   9.360  0.00  0.00    -0.775 OA
HETATM   11  H   UNK N   1      26.507  18.736   9.058  0.00  0.00     0.167 HD
ENDBRANCH   8  10
ENDBRANCH   7   8
BRANCH   7  12
HETATM   12  N   UNK N   1      29.697  17.146  10.147  0.00  0.00    -0.414 N 
HETATM   13  H   UNK N   1      29.719  16.452  10.893  0.00  0.00     0.151 HD
HETATM   14  H   UNK N   1      29.949  18.060  10.524  0.00  0.00     0.151 HD
ENDBRANCH   7  12
ENDBRANCH   5   7
BRANCH   6  15
HETATM   15  O   UNK N   1      34.448  17.690   6.107  0.00  0.00    -0.361 OA
HETATM   16  H   UNK N   1      34.548  18.200   5.327  0.00  0.00     0.217 HD
ENDBRANCH   6  15
TORSDOF 5
ENDMDL
MODEL 2
REMARK VINA RESULT:      -5.1      1.743      4.760
REMARK  5 active torsions:
REMARK  status: ('A' for Active; 'I' for Inactive)
REMARK    1  A    between atoms: C_7  and  C_5 
REMARK    2  A    between atoms: O_10  and  C_6 
REMARK    3  A    between atoms: C_8  and  C_7 
REMARK    4  A    between atoms: C_7  and  N_9 
REMARK    5  A    between atoms: O_11  and  C_8 
ROOT
HETATM    1  C   UNK N   1      31.126  16.901   7.179  0.00  0.00     0.012 A 
HETATM    2  C   UNK N   1      30.832  18.483   8.981  0.00  0.00     0.012 A 
HETATM    3  C   UNK N   1      29.770  17.018   6.857  0.00  0.00     0.037 A 
HETATM    4  C   UNK N   1      29.477  18.597   8.663  0.00  0.00     0.037 A 
HETATM    5  C   UNK N   1      31.673  17.630   8.248  0.00  0.00    -0.026 A 
HETATM    6  C   UNK N   1      28.944  17.860   7.605  0.00  0.00     0.065 A 
ENDROOT
BRANCH   5   7
HETATM    7  C   UNK N   1      33.143  17.434   8.590  0.00  0.00     0.207 C 
BRANCH   7   8
HETATM    8  C   UNK N   1      34.170  18.202   7.777  0.00  0.00     0.167 C 
HETATM    9  O   UNK N   1      34.317  18.015   6.579  0.00  0.00    -0.648 OA
BRANCH   8  10
HETATM   10  O   UNK N   1      34.944  19.115   8.395  0.00  0.00    -0.775 OA
HETATM   11  H   UNK N   1      34.554  19.803   8.898  0.00  0.00     0.167 HD
ENDBRANCH   8  10
ENDBRANCH   7   8
BRANCH   7  12
HETATM   12  N   UNK N   1      33.467  16.018   8.505  0.00  0.00    -0.414 N 
HETATM   13  H   UNK N   1      34.244  15.373   8.640  0.00  0.00     0.151 HD
HETATM   14  H   UNK N   1      32.639  15.498   8.213  0.00  0.00     0.151 HD
ENDBRANCH   7  12
ENDBRANCH   5   7
BRANCH   6  15
HETATM   15  O   UNK N   1      27.638  17.957   7.311  0.00  0.00    -0.361 OA
HETATM   16  H   UNK N   1      27.069  18.458   7.863  0.00  0.00     0.217 HD
ENDBRANCH   6  15
TORSDOF 5
ENDMDL
MODEL 3
REMARK VINA RESULT:      -5.0     10.711     11.803
REMARK  5 active torsions:
REMARK  status: ('A' for Active; 'I' for Inactive)
REMARK    1  A    between atoms: C_7  and  C_5 
REMARK    2  A    between atoms: O_10  and  C_6 
REMARK    3  A    between atoms: C_8  and  C_7 
REMARK    4  A    between atoms: C_7  and  N_9 
REMARK    5  A    between atoms: O_11  and  C_8 
ROOT
HETATM    1  C   UNK N   1      35.243  13.465  16.906  0.00  0.00     0.012 A 
HETATM    2  C   UNK N   1      35.429  11.106  17.396  0.00  0.00     0.012 A 
HETATM    3  C   UNK N   1      35.205  13.744  18.276  0.00  0.00     0.037 A 
HETATM    4  C   UNK N   1      35.387  11.384  18.764  0.00  0.00     0.037 A 
HETATM    5  C   UNK N   1      35.352  12.141  16.449  0.00  0.00    -0.026 A 
HETATM    6  C   UNK N   1      35.269  12.703  19.205  0.00  0.00     0.065 A 
ENDROOT
BRANCH   5   7
HETATM    7  C   UNK N   1      35.342  11.883  14.949  0.00  0.00     0.207 C 
BRANCH   7   8
HETATM    8  C   UNK N   1      35.756  13.018  14.030  0.00  0.00     0.167 C 
HETATM    9  O   UNK N   1      34.937  13.678  13.409  0.00  0.00    -0.648 OA
BRANCH   8  10
HETATM   10  O   UNK N   1      37.064  13.306  13.893  0.00  0.00    -0.775 OA
HETATM   11  H   UNK N   1      37.500  13.149  13.079  0.00  0.00     0.167 HD
ENDBRANCH   8  10
ENDBRANCH   7   8
BRANCH   7  12
HETATM   12  N   UNK N   1      34.015  11.440  14.551  0.00  0.00    -0.414 N 
HETATM   13  H   UNK N   1      33.309  11.597  13.833  0.00  0.00     0.151 HD
HETATM   14  H   UNK N   1      33.680  10.736  15.210  0.00  0.00     0.151 HD
ENDBRANCH   7  12
ENDBRANCH   5   7
BRANCH   6  15
HETATM   15  O   UNK N   1      35.210  12.968  20.519  0.00  0.00    -0.361 OA
HETATM   16  H   UNK N   1      35.966  13.299  20.965  0.00  0.00     0.217 HD
ENDBRANCH   6  15
TORSDOF 5
ENDMDL
MODEL 4
REMARK VINA RESULT:      -4.9      1.754      4.672
REMARK  5 active torsions:
REMARK  status: ('A' for Active; 'I' for Inactive)
REMARK    1  A    between atoms: C_7  and  C_5 
REMARK    2  A    between atoms: O_10  and  C_6 
REMARK    3  A    between atoms: C_8  and  C_7 
REMARK    4  A    between atoms: C_7  and  N_9 
REMARK    5  A    between atoms: O_11  and  C_8 
ROOT
HETATM    1  C   UNK N   1      31.176  18.045   8.758  0.00  0.00     0.012 A 
HETATM    2  C   UNK N   1      30.079  17.023   6.863  0.00  0.00     0.012 A 
HETATM    3  C   UNK N   1      29.960  18.612   9.154  0.00  0.00     0.037 A 
HETATM    4  C   UNK N   1      28.866  17.593   7.255  0.00  0.00     0.037 A 
HETATM    5  C   UNK N   1      31.251  17.246   7.605  0.00  0.00    -0.026 A 
HETATM    6  C   UNK N   1      28.807  18.392   8.397  0.00  0.00     0.065 A 
ENDROOT
BRANCH   5   7
HETATM    7  C   UNK N   1      32.605  16.689   7.190  0.00  0.00     0.207 C 
BRANCH   7   8
HETATM    8  C   UNK N   1      33.583  17.631   6.511  0.00  0.00     0.167 C 
HETATM    9  O   UNK N   1      33.528  17.866   5.313  0.00  0.00    -0.648 OA
BRANCH   8  10
HETATM   10  O   UNK N   1      34.541  18.223   7.248  0.00  0.00    -0.775 OA
HETATM   11  H   UNK N   1      34.559  18.111   8.179  0.00  0.00     0.167 HD
ENDBRANCH   8  10
ENDBRANCH   7   8
BRANCH   7  12
HETATM   12  N   UNK N   1      32.401  15.543   6.318  0.00  0.00    -0.414 N 
HETATM   13  H   UNK N   1      32.033  15.302   5.399  0.00  0.00     0.151 HD
HETATM   14  H   UNK N   1      32.741  14.699   6.781  0.00  0.00     0.151 HD
ENDBRANCH   7  12
ENDBRANCH   5   7
BRANCH   6  15
HETATM   15  O   UNK N   1      27.644  18.954   8.763  0.00  0.00    -0.361 OA
HETATM   16  H   UNK N   1      27.146  19.450   8.141  0.00  0.00     0.217 HD
ENDBRANCH   6  15
TORSDOF 5
ENDMDL
MODEL 5
REMARK VINA RESULT:      -4.7     16.282     17.140
REMARK  5 active torsions:
REMARK  status: ('A' for Active; 'I' for Inactive)
REMARK    1  A    between atoms: C_7  and  C_5 
REMARK    2  A    between atoms: O_10  and  C_6 
REMARK    3  A    between atoms: C_8  and  C_7 
REMARK    4  A    between atoms: C_7  and  N_9 
REMARK    5  A    between atoms: O_11  and  C_8 
ROOT
HETATM    1  C   UNK N   1      26.401  25.136  -4.530  0.00  0.00     0.012 A 
HETATM    2  C   UNK N   1      25.167  26.358  -6.210  0.00  0.00     0.012 A 
HETATM    3  C   UNK N   1      26.273  26.217  -3.652  0.00  0.00     0.037 A 
HETATM    4  C   UNK N   1      25.043  27.440  -5.335  0.00  0.00     0.037 A 
HETATM    5  C   UNK N   1      25.852  25.195  -5.822  0.00  0.00    -0.026 A 
HETATM    6  C   UNK N   1      25.602  27.372  -4.058  0.00  0.00     0.065 A 
ENDROOT
BRANCH   5   7
HETATM    7  C   UNK N   1      26.057  24.012  -6.757  0.00  0.00     0.207 C 
BRANCH   7   8
HETATM    8  C   UNK N   1      25.666  24.181  -8.214  0.00  0.00     0.167 C 
HETATM    9  O   UNK N   1      24.646  23.688  -8.670  0.00  0.00    -0.648 OA
BRANCH   8  10
HETATM   10  O   UNK N   1      26.467  24.893  -9.029  0.00  0.00    -0.775 OA
HETATM   11  H   UNK N   1      26.289  25.798  -9.195  0.00  0.00     0.167 HD
ENDBRANCH   8  10
ENDBRANCH   7   8
BRANCH   7  12
HETATM   12  N   UNK N   1      25.346  22.858  -6.229  0.00  0.00    -0.414 N 
HETATM   13  H   UNK N   1      25.491  21.877  -5.995  0.00  0.00     0.151 HD
HETATM   14  H   UNK N   1      24.382  23.119  -6.022  0.00  0.00     0.151 HD
ENDBRANCH   7  12
ENDBRANCH   5   7
BRANCH   6  15
HETATM   15  O   UNK N   1      25.497  28.419  -3.224  0.00  0.00    -0.361 OA
HETATM   16  H   UNK N   1      25.613  28.297  -2.301  0.00  0.00     0.217 HD
ENDBRANCH   6  15
TORSDOF 5
ENDMDL
MODEL 6
REMARK VINA RESULT:      -4.7      3.388      4.399
REMARK  5 active torsions:
REMARK  status: ('A' for Active; 'I' for Inactive)
REMARK    1  A    between atoms: C_7  and  C_5 
REMARK    2  A    between atoms: O_10  and  C_6 
REMARK    3  A    between atoms: C_8  and  C_7 
REMARK    4  A    between atoms: C_7  and  N_9 
REMARK    5  A    between atoms: O_11  and  C_8 
ROOT
HETATM    1  C   UNK N   1      33.486  17.556   5.893  0.00  0.00     0.012 A 
HETATM    2  C   UNK N   1      31.189  17.309   6.601  0.00  0.00     0.012 A 
HETATM    3  C   UNK N   1      33.090  17.410   4.560  0.00  0.00     0.037 A 
HETATM    4  C   UNK N   1      30.793  17.158   5.270  0.00  0.00     0.037 A 
HETATM    5  C   UNK N   1      32.540  17.503   6.931  0.00  0.00    -0.026 A 
HETATM    6  C   UNK N   1      31.744  17.203   4.249  0.00  0.00     0.065 A 
ENDROOT
BRANCH   5   7
HETATM    7  C   UNK N   1      33.026  17.621   8.368  0.00  0.00     0.207 C 
BRANCH   7   8
HETATM    8  C   UNK N   1      34.507  17.862   8.600  0.00  0.00     0.167 C 
HETATM    9  O   UNK N   1      35.255  16.971   8.974  0.00  0.00    -0.648 OA
BRANCH   8  10
HETATM   10  O   UNK N   1      35.012  19.092   8.392  0.00  0.00    -0.775 OA
HETATM   11  H   UNK N   1      34.451  19.843   8.416  0.00  0.00     0.167 HD
ENDBRANCH   8  10
ENDBRANCH   7   8
BRANCH   7  12
HETATM   12  N   UNK N   1      32.642  16.424   9.100  0.00  0.00    -0.414 N 
HETATM   13  H   UNK N   1      31.999  16.111   9.826  0.00  0.00     0.151 HD
HETATM   14  H   UNK N   1      33.203  15.635   8.779  0.00  0.00     0.151 HD
ENDBRANCH   7  12
ENDBRANCH   5   7
BRANCH   6  15
HETATM   15  O   UNK N   1      31.365  17.040   2.972  0.00  0.00    -0.361 OA
HETATM   16  H   UNK N   1      31.841  17.464   2.284  0.00  0.00     0.217 HD
ENDBRANCH   6  15
TORSDOF 5
ENDMDL
MODEL 7
REMARK VINA RESULT:      -4.5      9.924     10.875
REMARK  5 active torsions:
REMARK  status: ('A' for Active; 'I' for Inactive)
REMARK    1  A    between atoms: C_7  and  C_5 
REMARK    2  A    between atoms: O_10  and  C_6 
REMARK    3  A    between atoms: C_8  and  C_7 
REMARK    4  A    between atoms: C_7  and  N_9 
REMARK    5  A    between atoms: O_11  and  C_8 
ROOT
HETATM    1  C   UNK N   1      21.359  12.682  10.184  0.00  0.00     0.012 A 
HETATM    2  C   UNK N   1      23.760  12.550   9.941  0.00  0.00     0.012 A 
HETATM    3  C   UNK N   1      21.467  12.196  11.492  0.00  0.00     0.037 A 
HETATM    4  C   UNK N   1      23.867  12.060  11.244  0.00  0.00     0.037 A 
HETATM    5  C   UNK N   1      22.505  12.862   9.392  0.00  0.00    -0.026 A 
HETATM    6  C   UNK N   1      22.720  11.877  12.018  0.00  0.00     0.065 A 
ENDROOT
BRANCH   5   7
HETATM    7  C   UNK N   1      22.333  13.349   7.960  0.00  0.00     0.207 C 
BRANCH   7   8
HETATM    8  C   UNK N   1      21.006  13.083   7.273  0.00  0.00     0.167 C 
HETATM    9  O   UNK N   1      20.748  12.003   6.763  0.00  0.00    -0.648 OA
BRANCH   8  10
HETATM   10  O   UNK N   1      20.087  14.065   7.221  0.00  0.00    -0.775 OA
HETATM   11  H   UNK N   1      19.173  13.857   7.192  0.00  0.00     0.167 HD
ENDBRANCH   8  10
ENDBRANCH   7   8
BRANCH   7  12
HETATM   12  N   UNK N   1      23.391  12.786   7.135  0.00  0.00    -0.414 N 
HETATM   13  H   UNK N   1      23.975  13.013   6.332  0.00  0.00     0.151 HD
HETATM   14  H   UNK N   1      23.627  11.854   7.475  0.00  0.00     0.151 HD
ENDBRANCH   7  12
ENDBRANCH   5   7
BRANCH   6  15
HETATM   15  O   UNK N   1      22.823  11.389  13.264  0.00  0.00    -0.361 OA
HETATM   16  H   UNK N   1      23.561  11.616  13.797  0.00  0.00     0.217 HD
ENDBRANCH   6  15
TORSDOF 5
ENDMDL
MODEL 8
REMARK VINA RESULT:      -4.5     11.693     13.995
REMARK  5 active torsions:
REMARK  status: ('A' for Active; 'I' for Inactive)
REMARK    1  A    between atoms: C_7  and  C_5 
REMARK    2  A    between atoms: O_10  and  C_6 
REMARK    3  A    between atoms: C_8  and  C_7 
REMARK    4  A    between atoms: C_7  and  N_9 
REMARK    5  A    between atoms: O_11  and  C_8 
ROOT
HETATM    1  C   UNK N   1      41.983  20.033   3.456  0.00  0.00     0.012 A 
HETATM    2  C   UNK N   1      42.259  21.853   1.891  0.00  0.00     0.012 A 
HETATM    3  C   UNK N   1      40.618  19.982   3.154  0.00  0.00     0.037 A 
HETATM    4  C   UNK N   1      40.895  21.806   1.593  0.00  0.00     0.037 A 
HETATM    5  C   UNK N   1      42.820  20.972   2.830  0.00  0.00    -0.026 A 
HETATM    6  C   UNK N   1      40.073  20.875   2.228  0.00  0.00     0.065 A 
ENDROOT
BRANCH   5   7
HETATM    7  C   UNK N   1      44.289  21.019   3.226  0.00  0.00     0.207 C 
BRANCH   7   8
HETATM    8  C   UNK N   1      44.716  22.054   4.251  0.00  0.00     0.167 C 
HETATM    9  O   UNK N   1      43.935  22.509   5.073  0.00  0.00    -0.648 OA
BRANCH   8  10
HETATM   10  O   UNK N   1      45.991  22.486   4.254  0.00  0.00    -0.775 OA
HETATM   11  H   UNK N   1      46.625  22.092   3.687  0.00  0.00     0.167 HD
ENDBRANCH   8  10
ENDBRANCH   7   8
BRANCH   7  12
HETATM   12  N   UNK N   1      45.098  21.204   2.032  0.00  0.00    -0.414 N 
HETATM   13  H   UNK N   1      46.070  21.289   1.738  0.00  0.00     0.151 HD
HETATM   14  H   UNK N   1      44.489  21.271   1.216  0.00  0.00     0.151 HD
ENDBRANCH   7  12
ENDBRANCH   5   7
BRANCH   6  15
HETATM   15  O   UNK N   1      38.760  20.842   1.954  0.00  0.00    -0.361 OA
HETATM   16  H   UNK N   1      38.436  21.234   1.166  0.00  0.00     0.217 HD
ENDBRANCH   6  15
TORSDOF 5
ENDMDL
MODEL 9
REMARK VINA RESULT:      -4.5     10.903     11.873
REMARK  5 active torsions:
REMARK  status: ('A' for Active; 'I' for Inactive)
REMARK    1  A    between atoms: C_7  and  C_5 
REMARK    2  A    between atoms: O_10  and  C_6 
REMARK    3  A    between atoms: C_8  and  C_7 
REMARK    4  A    between atoms: C_7  and  N_9 
REMARK    5  A    between atoms: O_11  and  C_8 
ROOT
HETATM    1  C   UNK N   1      36.131  11.357  16.687  0.00  0.00     0.012 A 
HETATM    2  C   UNK N   1      35.246  13.456  17.494  0.00  0.00     0.012 A 
HETATM    3  C   UNK N   1      35.944  10.793  17.953  0.00  0.00     0.037 A 
HETATM    4  C   UNK N   1      35.063  12.894  18.760  0.00  0.00     0.037 A 
HETATM    5  C   UNK N   1      35.787  12.697  16.443  0.00  0.00    -0.026 A 
HETATM    6  C   UNK N   1      35.418  11.565  18.992  0.00  0.00     0.065 A 
ENDROOT
BRANCH   5   7
HETATM    7  C   UNK N   1      36.052  13.279  15.062  0.00  0.00     0.207 C 
BRANCH   7   8
HETATM    8  C   UNK N   1      35.007  13.055  13.983  0.00  0.00     0.167 C 
HETATM    9  O   UNK N   1      34.190  12.150  14.055  0.00  0.00    -0.648 OA
BRANCH   8  10
HETATM   10  O   UNK N   1      34.982  13.874  12.915  0.00  0.00    -0.775 OA
HETATM   11  H   UNK N   1      34.337  14.551  12.854  0.00  0.00     0.167 HD
ENDBRANCH   8  10
ENDBRANCH   7   8
BRANCH   7  12
HETATM   12  N   UNK N   1      37.325  12.777  14.570  0.00  0.00    -0.414 N 
HETATM   13  H   UNK N   1      37.890  12.744  13.722  0.00  0.00     0.151 HD
HETATM   14  H   UNK N   1      37.817  12.299  15.325  0.00  0.00     0.151 HD
ENDBRANCH   7  12
ENDBRANCH   5   7
BRANCH   6  15
HETATM   15  O   UNK N   1      35.259  11.031  20.213  0.00  0.00    -0.361 OA
HETATM   16  H   UNK N   1      35.451  10.124  20.357  0.00  0.00     0.217 HD
ENDBRANCH   6  15
TORSDOF 5
ENDMDL
