REMARK  13 active torsions:
REMARK  status: ('A' for Active; 'I' for Inactive)
REMARK    1  A    between atoms: C_3  and  C_1 
REMARK    2  A    between atoms: N_10  and  C_1 
REMARK    3  A    between atoms: C_4  and  C_2 
REMARK    4  A    between atoms: O_16  and  C_2 
REMARK    5  A    between atoms: C_6  and  C_3 
REMARK    6  A    between atoms: C_3  and  O_17 
REMARK    7  A    between atoms: C_6  and  C_4 
REMARK    8  A    between atoms: C_4  and  O_18 
REMARK    9  A    between atoms: N_15  and  C_5 
REMARK   10  A    between atoms: C_6  and  O_19 
REMARK   11  A    between atoms: N_10  and  C_7 
REMARK   12  A    between atoms: O_20  and  C_8 
REMARK   13  A    between atoms: O_21  and  C_9 
ROOT
HETATM    1  C   UNK N   1       3.975  -2.108  -0.172  0.00  0.00     0.197 A 
HETATM    2  C   UNK N   1       3.814  -3.551  -0.157  0.00  0.00     0.142 A 
HETATM    3  C   UNK N   1       5.296  -1.618   0.032  0.00  0.00     0.180 A 
HETATM    4  C   UNK N   1       6.155  -3.806   0.189  0.00  0.00     0.224 A 
HETATM    5  N   UNK N   1       4.918  -4.322   0.026  0.00  0.00    -0.306 N 
ATOM      6  HN  UNK N   1       4.808  -5.336   0.041  1.00  0.00     0.171 HD
HETATM    7  N   UNK N   1       6.334  -2.471   0.197  0.00  0.00    -0.301 N 
ATOM      8  HN  UNK N   1       7.273  -2.094   0.332  1.00  0.00     0.171 HD
ENDROOT
BRANCH   2   9
HETATM    9  N   UNK N   1       2.583  -4.268  -0.265  0.00  0.00    -0.371 N 
HETATM   10  H   UNK N   1       2.614  -5.218  -0.007  0.00  0.00     0.161 HD
BRANCH   9  11
HETATM   11  C   UNK N   1       1.311  -3.780  -0.701  0.00  0.00     0.155 C 
BRANCH  11  12
HETATM   12  C   UNK N   1       0.172  -4.052   0.274  0.00  0.00     0.167 C 
BRANCH  12  13
HETATM   13  C   UNK N   1      -1.091  -3.452  -0.387  0.00  0.00     0.179 C 
BRANCH  13  14
HETATM   14  C   UNK N   1      -2.458  -3.932   0.129  0.00  0.00     0.173 C 
BRANCH  14  15
HETATM   15  C   UNK N   1      -2.748  -3.546   1.569  0.00  0.00     0.198 C 
BRANCH  15  16
HETATM   16  O   UNK N   1      -4.072  -3.876   1.876  0.00  0.00    -0.398 OA
HETATM   17  H   UNK N   1      -4.730  -3.196   2.089  0.00  0.00     0.209 HD
ENDBRANCH  15  16
ENDBRANCH  14  15
BRANCH  14  18
HETATM   18  O   UNK N   1      -2.574  -5.316  -0.021  0.00  0.00    -0.391 OA
HETATM   19  H   UNK N   1      -3.447  -5.727  -0.126  0.00  0.00     0.210 HD
ENDBRANCH  14  18
ENDBRANCH  13  14
BRANCH  13  20
HETATM   20  O   UNK N   1      -1.027  -2.055  -0.319  0.00  0.00    -0.390 OA
HETATM   21  H   UNK N   1      -0.166  -1.610  -0.272  0.00  0.00     0.210 HD
ENDBRANCH  13  20
ENDBRANCH  12  13
BRANCH  12  22
HETATM   22  O   UNK N   1       0.052  -5.432   0.439  0.00  0.00    -0.391 OA
HETATM   23  H   UNK N   1      -0.820  -5.840   0.553  0.00  0.00     0.210 HD
ENDBRANCH  12  22
ENDBRANCH  11  12
ENDBRANCH   9  11
ENDBRANCH   2   9
BRANCH   1  24
HETATM   24  N   UNK N   1       2.911  -1.145  -0.360  0.00  0.00    -0.107 N 
HETATM   25  O   UNK N   1       3.068  -0.011  -0.026  0.00  0.00    -0.531 OA
HETATM   26  O   UNK N   1       1.952  -1.407  -1.012  0.00  0.00    -0.531 OA
ENDBRANCH   1  24
BRANCH   3  27
HETATM   27  O   UNK N   1       5.551  -0.298   0.037  0.00  0.00    -0.344 OA
HETATM   28  H   UNK N   1       6.437   0.008   0.042  0.00  0.00     0.219 HD
ENDBRANCH   3  27
BRANCH   4  29
HETATM   29  O   UNK N   1       7.208  -4.625   0.348  0.00  0.00    -0.332 OA
HETATM   30  H   UNK N   1       7.081  -5.546   0.458  0.00  0.00     0.221 HD
ENDBRANCH   4  29
TORSDOF 13
