MODEL 1
REMARK VINA RESULT:      -5.1      0.000      0.000
REMARK  4 active torsions:
REMARK  status: ('A' for Active; 'I' for Inactive)
REMARK    1  A    between atoms: C_2  and  O_1 
REMARK    2  A    between atoms: C_5  and  O_6 
REMARK    3  A    between atoms: C_7  and  O_8 
REMARK    4  A    between atoms: C_9  and  O_10 
ROOT
HETATM    1  C   UNK N   1      20.250  17.870   2.558  0.00  0.00     0.173 A 
HETATM    2  C   UNK N   1      20.543  18.581   3.874  0.00  0.00     0.205 A 
HETATM    3  O   UNK N   1      21.045  19.915   3.879  0.00  0.00    -0.356 OA
HETATM    4  C   UNK N   1      21.260  20.551   2.639  0.00  0.00     0.288 A 
HETATM    5  C   UNK N   1      21.003  19.939   1.265  0.00  0.00     0.204 A 
HETATM    6  C   UNK N   1      20.474  18.534   1.213  0.00  0.00     0.182 A 
ENDROOT
BRANCH   1   7
HETATM    7  O   UNK N   1      19.761  16.564   2.657  0.00  0.00    -0.391 OA
HETATM    8  H   UNK N   1      19.021  16.279   2.098  0.00  0.00     0.210 HD
ENDBRANCH   1   7
BRANCH   6   9
HETATM    9  O   UNK N   1      20.214  17.906  -0.008  0.00  0.00    -0.390 OA
HETATM   10  H   UNK N   1      20.533  18.302  -0.834  0.00  0.00     0.210 HD
ENDBRANCH   6   9
BRANCH   5  11
HETATM   11  O   UNK N   1      21.252  20.663   0.100  0.00  0.00    -0.388 OA
HETATM   12  H   UNK N   1      21.340  21.628   0.138  0.00  0.00     0.210 HD
ENDBRANCH   5  11
BRANCH   4  13
HETATM   13  O   UNK N   1      21.751  21.855   2.724  0.00  0.00    -0.369 OA
HETATM   14  H   UNK N   1      22.680  22.009   2.958  0.00  0.00     0.212 HD
ENDBRANCH   4  13
TORSDOF 4
ENDMDL
MODEL 2
REMARK VINA RESULT:      -5.1      0.724      3.112
REMARK  4 active torsions:
REMARK  status: ('A' for Active; 'I' for Inactive)
REMARK    1  A    between atoms: C_2  and  O_1 
REMARK    2  A    between atoms: C_5  and  O_6 
REMARK    3  A    between atoms: C_7  and  O_8 
REMARK    4  A    between atoms: C_9  and  O_10 
ROOT
HETATM    1  C   UNK N   1      20.868  19.294   3.684  0.00  0.00     0.173 A 
HETATM    2  C   UNK N   1      20.572  17.814   3.466  0.00  0.00     0.205 A 
HETATM    3  O   UNK N   1      20.355  17.306   2.152  0.00  0.00    -0.356 OA
HETATM    4  C   UNK N   1      20.423  18.207   1.069  0.00  0.00     0.288 A 
HETATM    5  C   UNK N   1      20.711  19.702   1.168  0.00  0.00     0.204 A 
HETATM    6  C   UNK N   1      20.946  20.280   2.535  0.00  0.00     0.182 A 
ENDROOT
BRANCH   1   7
HETATM    7  O   UNK N   1      21.066  19.696   5.008  0.00  0.00    -0.391 OA
HETATM    8  H   UNK N   1      21.045  20.639   5.237  0.00  0.00     0.210 HD
ENDBRANCH   1   7
BRANCH   6   9
HETATM    9  O   UNK N   1      21.215  21.640   2.705  0.00  0.00    -0.390 OA
HETATM   10  H   UNK N   1      21.656  21.950   3.512  0.00  0.00     0.210 HD
ENDBRANCH   6   9
BRANCH   5  11
HETATM   11  O   UNK N   1      20.754  20.500   0.026  0.00  0.00    -0.388 OA
HETATM   12  H   UNK N   1      21.568  20.977  -0.202  0.00  0.00     0.210 HD
ENDBRANCH   5  11
BRANCH   4  13
HETATM   13  O   UNK N   1      20.200  17.635  -0.185  0.00  0.00    -0.369 OA
HETATM   14  H   UNK N   1      19.561  18.036  -0.794  0.00  0.00     0.212 HD
ENDBRANCH   4  13
TORSDOF 4
ENDMDL
MODEL 3
REMARK VINA RESULT:      -5.0      0.821      2.269
REMARK  4 active torsions:
REMARK  status: ('A' for Active; 'I' for Inactive)
REMARK    1  A    between atoms: C_2  and  O_1 
REMARK    2  A    between atoms: C_5  and  O_6 
REMARK    3  A    between atoms: C_7  and  O_8 
REMARK    4  A    between atoms: C_9  and  O_10 
ROOT
HETATM    1  C   UNK N   1      20.419  18.230   1.040  0.00  0.00     0.173 A 
HETATM    2  C   UNK N   1      20.363  17.341   2.278  0.00  0.00     0.205 A 
HETATM    3  O   UNK N   1      20.581  17.892   3.574  0.00  0.00    -0.356 OA
HETATM    4  C   UNK N   1      20.847  19.273   3.676  0.00  0.00     0.288 A 
HETATM    5  C   UNK N   1      20.927  20.255   2.511  0.00  0.00     0.204 A 
HETATM    6  C   UNK N   1      20.704  19.717   1.126  0.00  0.00     0.182 A 
ENDROOT
BRANCH   1   7
HETATM    7  O   UNK N   1      20.192  17.598  -0.186  0.00  0.00    -0.391 OA
HETATM    8  H   UNK N   1      20.482  16.681  -0.320  0.00  0.00     0.210 HD
ENDBRANCH   1   7
BRANCH   6   9
HETATM    9  O   UNK N   1      20.761  20.555   0.009  0.00  0.00    -0.390 OA
HETATM   10  H   UNK N   1      19.949  20.772  -0.476  0.00  0.00     0.210 HD
ENDBRANCH   6   9
BRANCH   5  11
HETATM   11  O   UNK N   1      21.198  21.605   2.729  0.00  0.00    -0.388 OA
HETATM   12  H   UNK N   1      20.868  22.273   2.108  0.00  0.00     0.210 HD
ENDBRANCH   5  11
BRANCH   4  13
HETATM   13  O   UNK N   1      21.049  19.738   4.976  0.00  0.00    -0.369 OA
HETATM   14  H   UNK N   1      20.603  20.544   5.278  0.00  0.00     0.212 HD
ENDBRANCH   4  13
TORSDOF 4
ENDMDL
MODEL 4
REMARK VINA RESULT:      -5.0      0.725      3.276
REMARK  4 active torsions:
REMARK  status: ('A' for Active; 'I' for Inactive)
REMARK    1  A    between atoms: C_2  and  O_1 
REMARK    2  A    between atoms: C_5  and  O_6 
REMARK    3  A    between atoms: C_7  and  O_8 
REMARK    4  A    between atoms: C_9  and  O_10 
ROOT
HETATM    1  C   UNK N   1      21.067  20.392   2.573  0.00  0.00     0.173 A 
HETATM    2  C   UNK N   1      20.976  19.617   3.883  0.00  0.00     0.205 A 
HETATM    3  O   UNK N   1      20.523  18.266   3.894  0.00  0.00    -0.356 OA
HETATM    4  C   UNK N   1      20.165  17.673   2.666  0.00  0.00     0.288 A 
HETATM    5  C   UNK N   1      20.216  18.349   1.300  0.00  0.00     0.204 A 
HETATM    6  C   UNK N   1      20.687  19.774   1.241  0.00  0.00     0.182 A 
ENDROOT
BRANCH   1   7
HETATM    7  O   UNK N   1      21.522  21.711   2.665  0.00  0.00    -0.391 OA
HETATM    8  H   UNK N   1      21.283  22.355   1.979  0.00  0.00     0.210 HD
ENDBRANCH   1   7
BRANCH   6   9
HETATM    9  O   UNK N   1      20.760  20.460   0.026  0.00  0.00    -0.390 OA
HETATM   10  H   UNK N   1      21.249  20.076  -0.719  0.00  0.00     0.210 HD
ENDBRANCH   6   9
BRANCH   5  11
HETATM   11  O   UNK N   1      19.836  17.663   0.146  0.00  0.00    -0.388 OA
HETATM   12  H   UNK N   1      19.866  16.694   0.126  0.00  0.00     0.210 HD
ENDBRANCH   5  11
BRANCH   4  13
HETATM   13  O   UNK N   1      19.732  16.349   2.758  0.00  0.00    -0.369 OA
HETATM   14  H   UNK N   1      18.829  16.153   3.051  0.00  0.00     0.212 HD
ENDBRANCH   4  13
TORSDOF 4
ENDMDL
MODEL 5
REMARK VINA RESULT:      -4.7      9.788     11.725
REMARK  4 active torsions:
REMARK  status: ('A' for Active; 'I' for Inactive)
REMARK    1  A    between atoms: C_2  and  O_1 
REMARK    2  A    between atoms: C_5  and  O_6 
REMARK    3  A    between atoms: C_7  and  O_8 
REMARK    4  A    between atoms: C_9  and  O_10 
ROOT
HETATM    1  C   UNK N   1      21.308  13.036   9.990  0.00  0.00     0.173 A 
HETATM    2  C   UNK N   1      22.612  13.467   9.328  0.00  0.00     0.205 A 
HETATM    3  O   UNK N   1      23.867  13.147   9.924  0.00  0.00    -0.356 OA
HETATM    4  C   UNK N   1      23.864  12.426  11.136  0.00  0.00     0.288 A 
HETATM    5  C   UNK N   1      22.626  11.944  11.886  0.00  0.00     0.204 A 
HETATM    6  C   UNK N   1      21.282  12.259  11.293  0.00  0.00     0.182 A 
ENDROOT
BRANCH   1   7
HETATM    7  O   UNK N   1      20.130  13.396   9.330  0.00  0.00    -0.391 OA
HETATM    8  H   UNK N   1      19.403  12.758   9.252  0.00  0.00     0.210 HD
ENDBRANCH   1   7
BRANCH   6   9
HETATM    9  O   UNK N   1      20.103  11.852  11.922  0.00  0.00    -0.390 OA
HETATM   10  H   UNK N   1      19.255  12.246  11.665  0.00  0.00     0.210 HD
ENDBRANCH   6   9
BRANCH   5  11
HETATM   11  O   UNK N   1      22.743  11.236  13.081  0.00  0.00    -0.388 OA
HETATM   12  H   UNK N   1      21.973  11.137  13.664  0.00  0.00     0.210 HD
ENDBRANCH   5  11
BRANCH   4  13
HETATM   13  O   UNK N   1      25.129  12.151  11.658  0.00  0.00    -0.369 OA
HETATM   14  H   UNK N   1      25.894  12.678  11.380  0.00  0.00     0.212 HD
ENDBRANCH   4  13
TORSDOF 4
ENDMDL
MODEL 6
REMARK VINA RESULT:      -4.7     14.147     14.914
REMARK  4 active torsions:
REMARK  status: ('A' for Active; 'I' for Inactive)
REMARK    1  A    between atoms: C_2  and  O_1 
REMARK    2  A    between atoms: C_5  and  O_6 
REMARK    3  A    between atoms: C_7  and  O_8 
REMARK    4  A    between atoms: C_9  and  O_10 
ROOT
HETATM    1  C   UNK N   1      33.096  16.009   7.236  0.00  0.00     0.173 A 
HETATM    2  C   UNK N   1      33.505  17.160   6.324  0.00  0.00     0.205 A 
HETATM    3  O   UNK N   1      34.287  18.240   6.829  0.00  0.00    -0.356 OA
HETATM    4  C   UNK N   1      34.667  18.209   8.187  0.00  0.00     0.288 A 
HETATM    5  C   UNK N   1      34.317  17.113   9.188  0.00  0.00     0.204 A 
HETATM    6  C   UNK N   1      33.494  15.956   8.699  0.00  0.00     0.182 A 
ENDROOT
BRANCH   1   7
HETATM    7  O   UNK N   1      32.331  14.997   6.649  0.00  0.00    -0.391 OA
HETATM    8  H   UNK N   1      32.485  14.070   6.890  0.00  0.00     0.210 HD
ENDBRANCH   1   7
BRANCH   6   9
HETATM    9  O   UNK N   1      33.133  14.913   9.557  0.00  0.00    -0.390 OA
HETATM   10  H   UNK N   1      33.477  14.019   9.404  0.00  0.00     0.210 HD
ENDBRANCH   6   9
BRANCH   5  11
HETATM   11  O   UNK N   1      34.748  17.187  10.512  0.00  0.00    -0.388 OA
HETATM   12  H   UNK N   1      34.962  16.376  10.999  0.00  0.00     0.210 HD
ENDBRANCH   5  11
BRANCH   4  13
HETATM   13  O   UNK N   1      35.430  19.300   8.607  0.00  0.00    -0.369 OA
HETATM   14  H   UNK N   1      36.355  19.172   8.872  0.00  0.00     0.212 HD
ENDBRANCH   4  13
TORSDOF 4
ENDMDL
MODEL 7
REMARK VINA RESULT:      -4.7      9.894     11.797
REMARK  4 active torsions:
REMARK  status: ('A' for Active; 'I' for Inactive)
REMARK    1  A    between atoms: C_2  and  O_1 
REMARK    2  A    between atoms: C_5  and  O_6 
REMARK    3  A    between atoms: C_7  and  O_8 
REMARK    4  A    between atoms: C_9  and  O_10 
ROOT
HETATM    1  C   UNK N   1      24.015  12.362  11.161  0.00  0.00     0.173 A 
HETATM    2  C   UNK N   1      23.952  13.040   9.797  0.00  0.00     0.205 A 
HETATM    3  O   UNK N   1      22.695  13.301   9.177  0.00  0.00    -0.356 OA
HETATM    4  C   UNK N   1      21.523  12.915   9.859  0.00  0.00     0.288 A 
HETATM    5  C   UNK N   1      21.466  12.233  11.222  0.00  0.00     0.204 A 
HETATM    6  C   UNK N   1      22.768  11.939  11.912  0.00  0.00     0.182 A 
ENDROOT
BRANCH   1   7
HETATM    7  O   UNK N   1      25.293  12.150  11.687  0.00  0.00    -0.391 OA
HETATM    8  H   UNK N   1      25.726  11.288  11.577  0.00  0.00     0.210 HD
ENDBRANCH   1   7
BRANCH   6   9
HETATM    9  O   UNK N   1      22.796  11.317  13.163  0.00  0.00    -0.390 OA
HETATM   10  H   UNK N   1      22.042  11.407  13.766  0.00  0.00     0.210 HD
ENDBRANCH   6   9
BRANCH   5  11
HETATM   11  O   UNK N   1      20.245  11.895  11.805  0.00  0.00    -0.388 OA
HETATM   12  H   UNK N   1      19.430  12.334  11.514  0.00  0.00     0.210 HD
ENDBRANCH   5  11
BRANCH   4  13
HETATM   13  O   UNK N   1      20.332  13.203   9.189  0.00  0.00    -0.369 OA
HETATM   14  H   UNK N   1      19.572  13.552   9.679  0.00  0.00     0.212 HD
ENDBRANCH   4  13
TORSDOF 4
ENDMDL
MODEL 8
REMARK VINA RESULT:      -4.6     14.545     15.539
REMARK  4 active torsions:
REMARK  status: ('A' for Active; 'I' for Inactive)
REMARK    1  A    between atoms: C_2  and  O_1 
REMARK    2  A    between atoms: C_5  and  O_6 
REMARK    3  A    between atoms: C_7  and  O_8 
REMARK    4  A    between atoms: C_9  and  O_10 
ROOT
HETATM    1  C   UNK N   1      34.031  17.240   7.127  0.00  0.00     0.173 A 
HETATM    2  C   UNK N   1      33.344  15.881   7.059  0.00  0.00     0.205 A 
HETATM    3  O   UNK N   1      33.244  15.062   8.222  0.00  0.00    -0.356 OA
HETATM    4  C   UNK N   1      33.796  15.545   9.426  0.00  0.00     0.288 A 
HETATM    5  C   UNK N   1      34.503  16.884   9.611  0.00  0.00     0.204 A 
HETATM    6  C   UNK N   1      34.631  17.779   8.411  0.00  0.00     0.182 A 
ENDROOT
BRANCH   1   7
HETATM    7  O   UNK N   1      34.079  17.968   5.935  0.00  0.00    -0.391 OA
HETATM    8  H   UNK N   1      33.358  18.578   5.709  0.00  0.00     0.210 HD
ENDBRANCH   1   7
BRANCH   6   9
HETATM    9  O   UNK N   1      35.266  19.020   8.502  0.00  0.00    -0.390 OA
HETATM   10  H   UNK N   1      35.040  19.727   7.877  0.00  0.00     0.210 HD
ENDBRANCH   6   9
BRANCH   5  11
HETATM   11  O   UNK N   1      35.012  17.261  10.853  0.00  0.00    -0.388 OA
HETATM   12  H   UNK N   1      35.325  16.585  11.474  0.00  0.00     0.210 HD
ENDBRANCH   5  11
BRANCH   4  13
HETATM   13  O   UNK N   1      33.659  14.689  10.520  0.00  0.00    -0.369 OA
HETATM   14  H   UNK N   1      34.272  13.946  10.634  0.00  0.00     0.212 HD
ENDBRANCH   4  13
TORSDOF 4
ENDMDL
MODEL 9
REMARK VINA RESULT:      -4.6     14.529     15.338
REMARK  4 active torsions:
REMARK  status: ('A' for Active; 'I' for Inactive)
REMARK    1  A    between atoms: C_2  and  O_1 
REMARK    2  A    between atoms: C_5  and  O_6 
REMARK    3  A    between atoms: C_7  and  O_8 
REMARK    4  A    between atoms: C_9  and  O_10 
ROOT
HETATM    1  C   UNK N   1      33.808  15.540   9.431  0.00  0.00     0.173 A 
HETATM    2  C   UNK N   1      33.245  15.122   8.077  0.00  0.00     0.205 A 
HETATM    3  O   UNK N   1      33.366  15.983   6.947  0.00  0.00    -0.356 OA
HETATM    4  C   UNK N   1      34.017  17.222   7.119  0.00  0.00     0.288 A 
HETATM    5  C   UNK N   1      34.616  17.742   8.422  0.00  0.00     0.204 A 
HETATM    6  C   UNK N   1      34.512  16.867   9.639  0.00  0.00     0.182 A 
ENDROOT
BRANCH   1   7
HETATM    7  O   UNK N   1      33.640  14.628  10.477  0.00  0.00    -0.391 OA
HETATM    8  H   UNK N   1      32.825  14.638  11.004  0.00  0.00     0.210 HD
ENDBRANCH   1   7
BRANCH   6   9
HETATM    9  O   UNK N   1      35.037  17.275  10.868  0.00  0.00    -0.390 OA
HETATM   10  H   UNK N   1      34.999  16.679  11.633  0.00  0.00     0.210 HD
ENDBRANCH   6   9
BRANCH   5  11
HETATM   11  O   UNK N   1      35.240  18.988   8.477  0.00  0.00    -0.388 OA
HETATM   12  H   UNK N   1      35.394  19.416   9.334  0.00  0.00     0.210 HD
ENDBRANCH   5  11
BRANCH   4  13
HETATM   13  O   UNK N   1      34.096  18.009   5.969  0.00  0.00    -0.369 OA
HETATM   14  H   UNK N   1      34.227  18.967   6.045  0.00  0.00     0.212 HD
ENDBRANCH   4  13
TORSDOF 4
ENDMDL
