REMARK  8 active torsions:
REMARK  status: ('A' for Active; 'I' for Inactive)
REMARK       I    between atoms: N_1  and  C_2 
REMARK    1  A    between atoms: C_9  and  C_10 
REMARK    2  A    between atoms: C_10  and  O_11 
REMARK    3  A    between atoms: P_12  and  O_11 
REMARK    4  A    between atoms: P_12  and  O_13 
REMARK    5  A    between atoms: P_12  and  O_15 
REMARK    6  A    between atoms: O_15  and  P_16 
REMARK    7  A    between atoms: P_16  and  O_17 
REMARK    8  A    between atoms: P_16  and  O_18 
ROOT
HETATM    1  N   UNK N   1      -6.214   4.400   0.570  0.00  0.00    -0.234 N 
HETATM    2  C   UNK N   1      -5.022   3.688   0.333  0.00  0.00     0.680 A 
HETATM    3  N   UNK N   1      -3.835   4.353   0.271  0.00  0.00    -0.174 N 
ATOM      4  HN  UNK N   1      -3.815   5.363   0.407  1.00  0.00     0.186 HD
HETATM    5  C   UNK N   1      -2.677   3.684   0.028  0.00  0.00     0.153 A 
HETATM    6  N   UNK N   1      -1.494   4.352  -0.041  0.00  0.00    -0.348 N 
ATOM      7  HN  UNK N   1      -1.476   5.362   0.106  1.00  0.00     0.167 HD
HETATM    8  C   UNK N   1      -0.334   3.688  -0.303  0.00  0.00     0.117 A 
HETATM    9  C   UNK N   1      -0.358   2.301  -0.501  0.00  0.00     0.050 A 
HETATM   10  N   UNK N   1      -1.539   1.633  -0.423  0.00  0.00    -0.349 N 
ATOM     11  HN  UNK N   1      -1.556   0.623  -0.563  1.00  0.00     0.166 HD
HETATM   12  C   UNK N   1      -2.697   2.294  -0.162  0.00  0.00     0.147 A 
HETATM   13  C   UNK N   1      -3.919   1.625  -0.085  0.00  0.00     0.290 A 
HETATM   14  O   UNK N   1      -3.978   0.418  -0.239  0.00  0.00    -0.265 OA
HETATM   15  N   UNK N   1      -5.063   2.339   0.161  0.00  0.00    -0.154 N 
HETATM   16  H   UNK N   1      -6.199   5.370   0.736  0.00  0.00     0.174 HD
HETATM   17  H   UNK N   1      -7.074   3.921   0.570  0.00  0.00     0.174 HD
HETATM   18  H   UNK N   1      -5.927   1.869   0.213  0.00  0.00     0.187 HD
ENDROOT
BRANCH   9  19
HETATM   19  C   UNK N   1       0.886   1.550  -0.836  0.00  0.00     0.239 C 
BRANCH  19  20
HETATM   20  O   UNK N   1       1.790   1.595   0.229  0.00  0.00    -0.291 OA
BRANCH  20  21
HETATM   21  P   UNK N   1       3.360   1.670  -0.515  0.00  0.00     0.402 P 
HETATM   22  O   UNK N   1       3.263   2.998   0.284  0.00  0.00    -0.631 OA
BRANCH  21  23
HETATM   23  O   UNK N   1       3.272   0.296   0.546  0.00  0.00    -0.307 OA
HETATM   24  H   UNK N   1       2.584  -0.045   1.138  0.00  0.00     0.222 HD
ENDBRANCH  21  23
BRANCH  21  25
HETATM   25  O   UNK N   1       4.784   1.609   0.491  0.00  0.00    -0.195 OA
BRANCH  25  26
HETATM   26  P   UNK N   1       6.110   2.059  -0.547  0.00  0.00     0.399 P 
HETATM   27  O   UNK N   1       6.065   3.229   0.473  0.00  0.00    -0.631 OA
BRANCH  26  28
HETATM   28  O   UNK N   1       7.727   2.113   0.082  0.00  0.00    -0.307 OA
HETATM   29  H   UNK N   1       8.205   1.346   0.434  0.00  0.00     0.222 HD
ENDBRANCH  26  28
BRANCH  26  30
HETATM   30  O   UNK N   1       6.494   0.573   0.266  0.00  0.00    -0.307 OA
HETATM   31  H   UNK N   1       5.883  -0.027   0.719  0.00  0.00     0.222 HD
ENDBRANCH  26  30
ENDBRANCH  25  26
ENDBRANCH  21  25
ENDBRANCH  20  21
ENDBRANCH  19  20
ENDBRANCH   9  19
TORSDOF 8
