MODEL 1
REMARK VINA RESULT:      -7.3      0.000      0.000
REMARK  12 active torsions:
REMARK  status: ('A' for Active; 'I' for Inactive)
REMARK    1  A    between atoms: C_2  and  C_1 
REMARK    2  A    between atoms: C_11  and  C_1 
REMARK    3  A    between atoms: C_12  and  C_2 
REMARK    4  A    between atoms: C_8  and  C_7 
REMARK    5  A    between atoms: C_15  and  C_7 
REMARK    6  A    between atoms: C_16  and  C_8 
REMARK    7  A    between atoms: C_18  and  C_13 
REMARK    8  A    between atoms: C_20  and  C_15 
REMARK    9  A    between atoms: C_15  and  N_25 
REMARK   10  A    between atoms: O_30  and  C_16 
REMARK       I    between atoms: N_25  and  C_18 
REMARK   11  A    between atoms: O_32  and  C_19 
REMARK   12  A    between atoms: O_34  and  C_20 
REMARK       I    between atoms: N_22  and  C_21 
ROOT
HETATM    1  C   UNK N   1      31.481  17.105   6.513  0.00  0.00     0.008 A 
HETATM    2  C   UNK N   1      33.399  16.450   5.201  0.00  0.00     0.008 A 
HETATM    3  C   UNK N   1      32.315  17.682   7.458  0.00  0.00     0.017 A 
HETATM    4  C   UNK N   1      34.237  17.077   6.133  0.00  0.00     0.017 A 
HETATM    5  C   UNK N   1      32.017  16.451   5.407  0.00  0.00    -0.058 A 
HETATM    6  C   UNK N   1      33.702  17.669   7.287  0.00  0.00     0.032 A 
ENDROOT
BRANCH   5   7
HETATM    7  C   UNK N   1      31.114  15.622   4.564  0.00  0.00     0.039 C 
BRANCH   7   8
HETATM    8  C   UNK N   1      29.843  16.400   4.156  0.00  0.00     0.011 C 
BRANCH   8   9
HETATM    9  C   UNK N   1      28.477  15.743   4.479  0.00  0.00     0.008 C 
HETATM   10  C   UNK N   1      27.992  16.031   5.907  0.00  0.00     0.053 C 
HETATM   11  C   UNK N   1      27.751  17.492   6.101  0.00  0.00     0.038 A 
HETATM   12  C   UNK N   1      27.326  18.271   5.020  0.00  0.00     0.127 A 
HETATM   13  C   UNK N   1      27.949  18.108   7.338  0.00  0.00     0.165 A 
HETATM   14  N   UNK N   1      27.141  17.677   3.741  0.00  0.00    -0.375 N 
HETATM   15  N   UNK N   1      27.126  19.603   5.189  0.00  0.00    -0.176 N 
HETATM   16  C   UNK N   1      27.416  16.268   3.507  0.00  0.00     0.126 C 
HETATM   17  H   UNK N   1      26.818  18.233   2.996  0.00  0.00     0.161 HD
HETATM   18  C   UNK N   1      27.329  20.188   6.400  0.00  0.00     0.679 A 
HETATM   19  H   UNK N   1      26.830  20.151   4.426  0.00  0.00     0.186 HD
HETATM   20  N   UNK N   1      27.145  21.445   6.537  0.00  0.00    -0.234 N 
HETATM   21  N   UNK N   1      27.735  19.443   7.463  0.00  0.00    -0.170 N 
HETATM   22  H   UNK N   1      27.073  22.081   5.788  0.00  0.00     0.174 HD
ATOM     23  HN  UNK N   1      27.067  21.815   7.485  1.00  0.00     0.174 HD
ATOM     24  HN  UNK N   1      27.881  19.894   8.366  1.00  0.00     0.186 HD
BRANCH  13  25
HETATM   25  O   UNK N   1      28.355  17.392   8.403  0.00  0.00    -0.345 OA
HETATM   26  H   UNK N   1      28.696  16.527   8.291  0.00  0.00     0.219 HD
ENDBRANCH  13  25
ENDBRANCH   8   9
ENDBRANCH   7   8
ENDBRANCH   5   7
BRANCH   6  27
HETATM   27  C   UNK N   1      34.551  18.097   8.430  0.00  0.00     0.252 C 
HETATM   28  N   UNK N   1      34.944  17.299   9.465  0.00  0.00    -0.343 N 
HETATM   29  H   UNK N   1      35.276  17.780  10.258  0.00  0.00     0.163 HD
HETATM   30  O   UNK N   1      34.925  19.260   8.442  0.00  0.00    -0.268 OA
BRANCH  28  31
HETATM   31  C   UNK N   1      34.946  15.850   9.580  0.00  0.00     0.183 C 
BRANCH  31  32
HETATM   32  C   UNK N   1      33.542  15.271   9.801  0.00  0.00     0.046 C 
BRANCH  32  33
HETATM   33  C   UNK N   1      33.123  14.355   8.642  0.00  0.00     0.112 C 
BRANCH  33  34
HETATM   34  C   UNK N   1      33.285  12.886   8.931  0.00  0.00     0.139 C 
HETATM   35  O   UNK N   1      32.989  12.043   8.097  0.00  0.00    -0.650 OA
BRANCH  34  36
HETATM   36  O   UNK N   1      33.769  12.495  10.124  0.00  0.00    -0.776 OA
HETATM   37  H   UNK N   1      34.099  13.039  10.813  0.00  0.00     0.167 HD
ENDBRANCH  34  36
ENDBRANCH  33  34
ENDBRANCH  32  33
ENDBRANCH  31  32
BRANCH  31  38
HETATM   38  C   UNK N   1      35.983  15.310  10.532  0.00  0.00     0.163 C 
HETATM   39  O   UNK N   1      35.867  14.210  11.039  0.00  0.00    -0.648 OA
BRANCH  38  40
HETATM   40  O   UNK N   1      37.078  16.046  10.801  0.00  0.00    -0.775 OA
HETATM   41  H   UNK N   1      37.906  15.626  10.928  0.00  0.00     0.167 HD
ENDBRANCH  38  40
ENDBRANCH  31  38
ENDBRANCH  28  31
ENDBRANCH   6  27
TORSDOF 12
ENDMDL
MODEL 2
REMARK VINA RESULT:      -7.2      5.912      9.417
REMARK  12 active torsions:
REMARK  status: ('A' for Active; 'I' for Inactive)
REMARK    1  A    between atoms: C_2  and  C_1 
REMARK    2  A    between atoms: C_11  and  C_1 
REMARK    3  A    between atoms: C_12  and  C_2 
REMARK    4  A    between atoms: C_8  and  C_7 
REMARK    5  A    between atoms: C_15  and  C_7 
REMARK    6  A    between atoms: C_16  and  C_8 
REMARK    7  A    between atoms: C_18  and  C_13 
REMARK    8  A    between atoms: C_20  and  C_15 
REMARK    9  A    between atoms: C_15  and  N_25 
REMARK   10  A    between atoms: O_30  and  C_16 
REMARK       I    between atoms: N_25  and  C_18 
REMARK   11  A    between atoms: O_32  and  C_19 
REMARK   12  A    between atoms: O_34  and  C_20 
REMARK       I    between atoms: N_22  and  C_21 
ROOT
HETATM    1  C   UNK N   1      24.187  15.437   4.810  0.00  0.00     0.008 A 
HETATM    2  C   UNK N   1      25.385  15.696   2.729  0.00  0.00     0.008 A 
HETATM    3  C   UNK N   1      25.149  16.188   5.466  0.00  0.00     0.017 A 
HETATM    4  C   UNK N   1      26.329  16.497   3.386  0.00  0.00     0.017 A 
HETATM    5  C   UNK N   1      24.321  15.151   3.454  0.00  0.00    -0.058 A 
HETATM    6  C   UNK N   1      26.236  16.721   4.767  0.00  0.00     0.032 A 
ENDROOT
BRANCH   5   7
HETATM    7  C   UNK N   1      23.422  14.131   2.850  0.00  0.00     0.039 C 
BRANCH   7   8
HETATM    8  C   UNK N   1      22.220  14.785   2.134  0.00  0.00     0.011 C 
BRANCH   8   9
HETATM    9  C   UNK N   1      20.839  14.680   2.832  0.00  0.00     0.008 C 
HETATM   10  C   UNK N   1      20.587  15.806   3.844  0.00  0.00     0.053 C 
HETATM   11  C   UNK N   1      20.554  17.135   3.163  0.00  0.00     0.038 A 
HETATM   12  C   UNK N   1      20.086  17.224   1.847  0.00  0.00     0.127 A 
HETATM   13  C   UNK N   1      20.988  18.297   3.803  0.00  0.00     0.165 A 
HETATM   14  N   UNK N   1      19.661  16.054   1.160  0.00  0.00    -0.375 N 
HETATM   15  N   UNK N   1      20.073  18.428   1.219  0.00  0.00    -0.176 N 
HETATM   16  C   UNK N   1      19.729  14.739   1.778  0.00  0.00     0.126 C 
HETATM   17  H   UNK N   1      19.312  16.136   0.244  0.00  0.00     0.161 HD
HETATM   18  C   UNK N   1      20.505  19.548   1.856  0.00  0.00     0.679 A 
HETATM   19  H   UNK N   1      19.747  18.488   0.292  0.00  0.00     0.186 HD
HETATM   20  N   UNK N   1      20.495  20.670   1.244  0.00  0.00    -0.234 N 
HETATM   21  N   UNK N   1      20.957  19.480   3.137  0.00  0.00    -0.170 N 
HETATM   22  H   UNK N   1      20.402  20.770   0.269  0.00  0.00     0.174 HD
ATOM     23  HN  UNK N   1      20.590  21.519   1.802  1.00  0.00     0.174 HD
ATOM     24  HN  UNK N   1      21.276  20.329   3.604  1.00  0.00     0.186 HD
BRANCH  13  25
HETATM   25  O   UNK N   1      21.443  18.253   5.069  0.00  0.00    -0.345 OA
HETATM   26  H   UNK N   1      21.881  18.993   5.441  0.00  0.00     0.219 HD
ENDBRANCH  13  25
ENDBRANCH   8   9
ENDBRANCH   7   8
ENDBRANCH   5   7
BRANCH   6  27
HETATM   27  C   UNK N   1      27.346  17.321   5.554  0.00  0.00     0.252 C 
HETATM   28  N   UNK N   1      27.478  18.646   5.853  0.00  0.00    -0.343 N 
HETATM   29  H   UNK N   1      28.377  18.918   6.149  0.00  0.00     0.163 HD
HETATM   30  O   UNK N   1      28.212  16.563   5.963  0.00  0.00    -0.268 OA
BRANCH  28  31
HETATM   31  C   UNK N   1      26.498  19.718   5.802  0.00  0.00     0.183 C 
BRANCH  31  32
HETATM   32  C   UNK N   1      26.185  20.166   4.367  0.00  0.00     0.046 C 
BRANCH  32  33
HETATM   33  C   UNK N   1      24.725  19.875   3.992  0.00  0.00     0.112 C 
BRANCH  33  34
HETATM   34  C   UNK N   1      24.221  20.674   2.820  0.00  0.00     0.139 C 
HETATM   35  O   UNK N   1      23.202  21.345   2.904  0.00  0.00    -0.650 OA
BRANCH  34  36
HETATM   36  O   UNK N   1      24.906  20.656   1.662  0.00  0.00    -0.776 OA
HETATM   37  H   UNK N   1      24.558  20.608   0.793  0.00  0.00     0.167 HD
ENDBRANCH  34  36
ENDBRANCH  33  34
ENDBRANCH  32  33
ENDBRANCH  31  32
BRANCH  31  38
HETATM   38  C   UNK N   1      26.781  20.857   6.747  0.00  0.00     0.163 C 
HETATM   39  O   UNK N   1      27.572  21.737   6.461  0.00  0.00    -0.648 OA
BRANCH  38  40
HETATM   40  O   UNK N   1      26.122  20.921   7.919  0.00  0.00    -0.775 OA
HETATM   41  H   UNK N   1      26.439  21.473   8.607  0.00  0.00     0.167 HD
ENDBRANCH  38  40
ENDBRANCH  31  38
ENDBRANCH  28  31
ENDBRANCH   6  27
TORSDOF 12
ENDMDL
MODEL 3
REMARK VINA RESULT:      -7.2      2.255      7.710
REMARK  12 active torsions:
REMARK  status: ('A' for Active; 'I' for Inactive)
REMARK    1  A    between atoms: C_2  and  C_1 
REMARK    2  A    between atoms: C_11  and  C_1 
REMARK    3  A    between atoms: C_12  and  C_2 
REMARK    4  A    between atoms: C_8  and  C_7 
REMARK    5  A    between atoms: C_15  and  C_7 
REMARK    6  A    between atoms: C_16  and  C_8 
REMARK    7  A    between atoms: C_18  and  C_13 
REMARK    8  A    between atoms: C_20  and  C_15 
REMARK    9  A    between atoms: C_15  and  N_25 
REMARK   10  A    between atoms: O_30  and  C_16 
REMARK       I    between atoms: N_25  and  C_18 
REMARK   11  A    between atoms: O_32  and  C_19 
REMARK   12  A    between atoms: O_34  and  C_20 
REMARK       I    between atoms: N_22  and  C_21 
ROOT
HETATM    1  C   UNK N   1      31.873  14.565   5.101  0.00  0.00     0.008 A 
HETATM    2  C   UNK N   1      32.695  16.460   3.851  0.00  0.00     0.008 A 
HETATM    3  C   UNK N   1      30.580  14.844   4.687  0.00  0.00     0.017 A 
HETATM    4  C   UNK N   1      31.394  16.710   3.395  0.00  0.00     0.017 A 
HETATM    5  C   UNK N   1      32.926  15.392   4.723  0.00  0.00    -0.058 A 
HETATM    6  C   UNK N   1      30.321  15.923   3.837  0.00  0.00     0.032 A 
ENDROOT
BRANCH   5   7
HETATM    7  C   UNK N   1      34.243  15.220   5.395  0.00  0.00     0.039 C 
BRANCH   7   8
HETATM    8  C   UNK N   1      34.509  16.343   6.420  0.00  0.00     0.011 C 
BRANCH   8   9
HETATM    9  C   UNK N   1      33.279  16.943   7.150  0.00  0.00     0.008 C 
HETATM   10  C   UNK N   1      32.709  16.016   8.232  0.00  0.00     0.053 C 
HETATM   11  C   UNK N   1      33.707  15.793   9.321  0.00  0.00     0.038 A 
HETATM   12  C   UNK N   1      34.618  16.806   9.639  0.00  0.00     0.127 A 
HETATM   13  C   UNK N   1      33.764  14.591  10.027  0.00  0.00     0.165 A 
HETATM   14  N   UNK N   1      34.602  18.032   8.919  0.00  0.00    -0.375 N 
HETATM   15  N   UNK N   1      35.539  16.600  10.614  0.00  0.00    -0.176 N 
HETATM   16  C   UNK N   1      33.676  18.261   7.821  0.00  0.00     0.126 C 
HETATM   17  H   UNK N   1      35.232  18.745   9.170  0.00  0.00     0.161 HD
HETATM   18  C   UNK N   1      35.584  15.420  11.288  0.00  0.00     0.679 A 
HETATM   19  H   UNK N   1      36.182  17.312  10.835  0.00  0.00     0.186 HD
HETATM   20  N   UNK N   1      36.466  15.240  12.196  0.00  0.00    -0.234 N 
HETATM   21  N   UNK N   1      34.701  14.427  10.995  0.00  0.00    -0.170 N 
HETATM   22  H   UNK N   1      37.265  15.802  12.313  0.00  0.00     0.174 HD
ATOM     23  HN  UNK N   1      36.332  14.462  12.843  1.00  0.00     0.174 HD
ATOM     24  HN  UNK N   1      34.744  13.548  11.511  1.00  0.00     0.186 HD
BRANCH  13  25
HETATM   25  O   UNK N   1      32.904  13.593   9.752  0.00  0.00    -0.345 OA
HETATM   26  H   UNK N   1      32.790  13.295   8.871  0.00  0.00     0.219 HD
ENDBRANCH  13  25
ENDBRANCH   8   9
ENDBRANCH   7   8
ENDBRANCH   5   7
BRANCH   6  27
HETATM   27  C   UNK N   1      28.903  16.309   3.610  0.00  0.00     0.252 C 
HETATM   28  N   UNK N   1      28.152  17.087   4.442  0.00  0.00    -0.343 N 
HETATM   29  H   UNK N   1      27.180  17.039   4.292  0.00  0.00     0.163 HD
HETATM   30  O   UNK N   1      28.367  15.891   2.594  0.00  0.00    -0.268 OA
BRANCH  28  31
HETATM   31  C   UNK N   1      28.564  17.975   5.517  0.00  0.00     0.183 C 
BRANCH  31  32
HETATM   32  C   UNK N   1      28.698  17.252   6.863  0.00  0.00     0.046 C 
BRANCH  32  33
HETATM   33  C   UNK N   1      29.534  18.067   7.860  0.00  0.00     0.112 C 
BRANCH  33  34
HETATM   34  C   UNK N   1      28.854  18.304   9.183  0.00  0.00     0.139 C 
HETATM   35  O   UNK N   1      29.504  18.444  10.209  0.00  0.00    -0.650 OA
BRANCH  34  36
HETATM   36  O   UNK N   1      27.511  18.368   9.236  0.00  0.00    -0.776 OA
HETATM   37  H   UNK N   1      26.903  18.165   8.553  0.00  0.00     0.167 HD
ENDBRANCH  34  36
ENDBRANCH  33  34
ENDBRANCH  32  33
ENDBRANCH  31  32
BRANCH  31  38
HETATM   38  C   UNK N   1      27.778  19.259   5.590  0.00  0.00     0.163 C 
HETATM   39  O   UNK N   1      27.982  20.173   4.814  0.00  0.00    -0.648 OA
BRANCH  38  40
HETATM   40  O   UNK N   1      26.807  19.385   6.515  0.00  0.00    -0.775 OA
HETATM   41  H   UNK N   1      26.011  19.831   6.302  0.00  0.00     0.167 HD
ENDBRANCH  38  40
ENDBRANCH  31  38
ENDBRANCH  28  31
ENDBRANCH   6  27
TORSDOF 12
ENDMDL
MODEL 4
REMARK VINA RESULT:      -7.1      5.016      8.314
REMARK  12 active torsions:
REMARK  status: ('A' for Active; 'I' for Inactive)
REMARK    1  A    between atoms: C_2  and  C_1 
REMARK    2  A    between atoms: C_11  and  C_1 
REMARK    3  A    between atoms: C_12  and  C_2 
REMARK    4  A    between atoms: C_8  and  C_7 
REMARK    5  A    between atoms: C_15  and  C_7 
REMARK    6  A    between atoms: C_16  and  C_8 
REMARK    7  A    between atoms: C_18  and  C_13 
REMARK    8  A    between atoms: C_20  and  C_15 
REMARK    9  A    between atoms: C_15  and  N_25 
REMARK   10  A    between atoms: O_30  and  C_16 
REMARK       I    between atoms: N_25  and  C_18 
REMARK   11  A    between atoms: O_32  and  C_19 
REMARK   12  A    between atoms: O_34  and  C_20 
REMARK       I    between atoms: N_22  and  C_21 
ROOT
HETATM    1  C   UNK N   1      24.728  15.229   5.424  0.00  0.00     0.008 A 
HETATM    2  C   UNK N   1      25.154  16.270   3.287  0.00  0.00     0.008 A 
HETATM    3  C   UNK N   1      25.985  15.608   5.867  0.00  0.00     0.017 A 
HETATM    4  C   UNK N   1      26.405  16.695   3.756  0.00  0.00     0.017 A 
HETATM    5  C   UNK N   1      24.324  15.518   4.124  0.00  0.00    -0.058 A 
HETATM    6  C   UNK N   1      26.844  16.337   5.039  0.00  0.00     0.032 A 
ENDROOT
BRANCH   5   7
HETATM    7  C   UNK N   1      23.090  14.871   3.601  0.00  0.00     0.039 C 
BRANCH   7   8
HETATM    8  C   UNK N   1      21.990  15.910   3.292  0.00  0.00     0.011 C 
BRANCH   8   9
HETATM    9  C   UNK N   1      21.350  16.644   4.498  0.00  0.00     0.008 C 
HETATM   10  C   UNK N   1      21.846  18.088   4.658  0.00  0.00     0.053 C 
HETATM   11  C   UNK N   1      21.457  18.916   3.477  0.00  0.00     0.038 A 
HETATM   12  C   UNK N   1      20.272  18.627   2.792  0.00  0.00     0.127 A 
HETATM   13  C   UNK N   1      22.253  19.971   3.030  0.00  0.00     0.165 A 
HETATM   14  N   UNK N   1      19.454  17.541   3.208  0.00  0.00    -0.375 N 
HETATM   15  N   UNK N   1      19.926  19.365   1.706  0.00  0.00    -0.176 N 
HETATM   16  C   UNK N   1      19.829  16.685   4.322  0.00  0.00     0.126 C 
HETATM   17  H   UNK N   1      18.611  17.365   2.731  0.00  0.00     0.161 HD
HETATM   18  C   UNK N   1      20.717  20.386   1.280  0.00  0.00     0.679 A 
HETATM   19  H   UNK N   1      19.094  19.158   1.223  0.00  0.00     0.186 HD
HETATM   20  N   UNK N   1      20.380  21.063   0.250  0.00  0.00    -0.234 N 
HETATM   21  N   UNK N   1      21.869  20.684   1.940  0.00  0.00    -0.170 N 
HETATM   22  H   UNK N   1      19.700  20.779  -0.403  0.00  0.00     0.174 HD
ATOM     23  HN  UNK N   1      20.846  21.958   0.094  1.00  0.00     0.174 HD
ATOM     24  HN  UNK N   1      22.451  21.455   1.611  1.00  0.00     0.186 HD
BRANCH  13  25
HETATM   25  O   UNK N   1      23.399  20.282   3.664  0.00  0.00    -0.345 OA
HETATM   26  H   UNK N   1      23.591  21.172   3.885  0.00  0.00     0.219 HD
ENDBRANCH  13  25
ENDBRANCH   8   9
ENDBRANCH   7   8
ENDBRANCH   5   7
BRANCH   6  27
HETATM   27  C   UNK N   1      28.252  16.519   5.479  0.00  0.00     0.252 C 
HETATM   28  N   UNK N   1      28.717  17.554   6.237  0.00  0.00    -0.343 N 
HETATM   29  H   UNK N   1      29.695  17.671   6.227  0.00  0.00     0.163 HD
HETATM   30  O   UNK N   1      29.059  15.670   5.130  0.00  0.00    -0.268 OA
BRANCH  28  31
HETATM   31  C   UNK N   1      27.993  18.512   7.056  0.00  0.00     0.183 C 
BRANCH  31  32
HETATM   32  C   UNK N   1      28.033  19.934   6.479  0.00  0.00     0.046 C 
BRANCH  32  33
HETATM   33  C   UNK N   1      27.951  19.921   4.945  0.00  0.00     0.112 C 
BRANCH  33  34
HETATM   34  C   UNK N   1      26.640  20.419   4.396  0.00  0.00     0.139 C 
HETATM   35  O   UNK N   1      25.729  20.748   5.141  0.00  0.00    -0.650 OA
BRANCH  34  36
HETATM   36  O   UNK N   1      26.472  20.509   3.064  0.00  0.00    -0.776 OA
HETATM   37  H   UNK N   1      27.136  20.516   2.404  0.00  0.00     0.167 HD
ENDBRANCH  34  36
ENDBRANCH  33  34
ENDBRANCH  32  33
ENDBRANCH  31  32
BRANCH  31  38
HETATM   38  C   UNK N   1      28.325  18.442   8.524  0.00  0.00     0.163 C 
HETATM   39  O   UNK N   1      29.424  18.757   8.942  0.00  0.00    -0.648 OA
BRANCH  38  40
HETATM   40  O   UNK N   1      27.376  18.053   9.397  0.00  0.00    -0.775 OA
HETATM   41  H   UNK N   1      27.385  17.183   9.743  0.00  0.00     0.167 HD
ENDBRANCH  38  40
ENDBRANCH  31  38
ENDBRANCH  28  31
ENDBRANCH   6  27
TORSDOF 12
ENDMDL
MODEL 5
REMARK VINA RESULT:      -7.1      5.734     11.298
REMARK  12 active torsions:
REMARK  status: ('A' for Active; 'I' for Inactive)
REMARK    1  A    between atoms: C_2  and  C_1 
REMARK    2  A    between atoms: C_11  and  C_1 
REMARK    3  A    between atoms: C_12  and  C_2 
REMARK    4  A    between atoms: C_8  and  C_7 
REMARK    5  A    between atoms: C_15  and  C_7 
REMARK    6  A    between atoms: C_16  and  C_8 
REMARK    7  A    between atoms: C_18  and  C_13 
REMARK    8  A    between atoms: C_20  and  C_15 
REMARK    9  A    between atoms: C_15  and  N_25 
REMARK   10  A    between atoms: O_30  and  C_16 
REMARK       I    between atoms: N_25  and  C_18 
REMARK   11  A    between atoms: O_32  and  C_19 
REMARK   12  A    between atoms: O_34  and  C_20 
REMARK       I    between atoms: N_22  and  C_21 
ROOT
HETATM    1  C   UNK N   1      25.831  17.079   3.501  0.00  0.00     0.008 A 
HETATM    2  C   UNK N   1      25.225  19.167   4.551  0.00  0.00     0.008 A 
HETATM    3  C   UNK N   1      24.509  16.663   3.550  0.00  0.00     0.017 A 
HETATM    4  C   UNK N   1      23.883  18.764   4.553  0.00  0.00     0.017 A 
HETATM    5  C   UNK N   1      26.201  18.308   4.037  0.00  0.00    -0.058 A 
HETATM    6  C   UNK N   1      23.520  17.493   4.083  0.00  0.00     0.032 A 
ENDROOT
BRANCH   5   7
HETATM    7  C   UNK N   1      27.650  18.603   4.207  0.00  0.00     0.039 C 
BRANCH   7   8
HETATM    8  C   UNK N   1      28.095  18.441   5.677  0.00  0.00     0.011 C 
BRANCH   8   9
HETATM    9  C   UNK N   1      28.008  17.020   6.290  0.00  0.00     0.008 C 
HETATM   10  C   UNK N   1      29.250  16.164   6.008  0.00  0.00     0.053 C 
HETATM   11  C   UNK N   1      30.463  16.763   6.642  0.00  0.00     0.038 A 
HETATM   12  C   UNK N   1      30.334  17.483   7.834  0.00  0.00     0.127 A 
HETATM   13  C   UNK N   1      31.729  16.631   6.069  0.00  0.00     0.165 A 
HETATM   14  N   UNK N   1      29.053  17.656   8.428  0.00  0.00    -0.375 N 
HETATM   15  N   UNK N   1      31.431  18.045   8.403  0.00  0.00    -0.176 N 
HETATM   16  C   UNK N   1      27.847  17.129   7.810  0.00  0.00     0.126 C 
HETATM   17  H   UNK N   1      28.981  18.144   9.280  0.00  0.00     0.161 HD
HETATM   18  C   UNK N   1      32.656  17.912   7.828  0.00  0.00     0.679 A 
HETATM   19  H   UNK N   1      31.338  18.554   9.240  0.00  0.00     0.186 HD
HETATM   20  N   UNK N   1      33.675  18.457   8.371  0.00  0.00    -0.234 N 
HETATM   21  N   UNK N   1      32.799  17.209   6.672  0.00  0.00    -0.170 N 
HETATM   22  H   UNK N   1      33.628  19.154   9.065  0.00  0.00     0.174 HD
ATOM     23  HN  UNK N   1      34.600  18.150   8.067  1.00  0.00     0.174 HD
ATOM     24  HN  UNK N   1      33.725  17.115   6.252  1.00  0.00     0.186 HD
BRANCH  13  25
HETATM   25  O   UNK N   1      31.895  15.944   4.924  0.00  0.00    -0.345 OA
HETATM   26  H   UNK N   1      32.129  15.037   4.945  0.00  0.00     0.219 HD
ENDBRANCH  13  25
ENDBRANCH   8   9
ENDBRANCH   7   8
ENDBRANCH   5   7
BRANCH   6  27
HETATM   27  C   UNK N   1      22.171  16.912   4.316  0.00  0.00     0.252 C 
HETATM   28  N   UNK N   1      21.030  17.275   3.662  0.00  0.00    -0.343 N 
HETATM   29  H   UNK N   1      20.193  16.993   4.098  0.00  0.00     0.163 HD
HETATM   30  O   UNK N   1      22.080  16.039   5.166  0.00  0.00    -0.268 OA
BRANCH  28  31
HETATM   31  C   UNK N   1      20.857  18.014   2.422  0.00  0.00     0.183 C 
BRANCH  31  32
HETATM   32  C   UNK N   1      20.064  19.314   2.614  0.00  0.00     0.046 C 
BRANCH  32  33
HETATM   33  C   UNK N   1      20.949  20.550   2.397  0.00  0.00     0.112 C 
BRANCH  33  34
HETATM   34  C   UNK N   1      20.834  21.154   1.022  0.00  0.00     0.139 C 
HETATM   35  O   UNK N   1      21.109  20.505   0.024  0.00  0.00    -0.650 OA
BRANCH  34  36
HETATM   36  O   UNK N   1      20.417  22.426   0.890  0.00  0.00    -0.776 OA
HETATM   37  H   UNK N   1      19.540  22.749   0.954  0.00  0.00     0.167 HD
ENDBRANCH  34  36
ENDBRANCH  33  34
ENDBRANCH  32  33
ENDBRANCH  31  32
BRANCH  31  38
HETATM   38  C   UNK N   1      20.378  17.174   1.266  0.00  0.00     0.163 C 
HETATM   39  O   UNK N   1      20.055  16.010   1.418  0.00  0.00    -0.648 OA
BRANCH  38  40
HETATM   40  O   UNK N   1      20.275  17.731   0.045  0.00  0.00    -0.775 OA
HETATM   41  H   UNK N   1      19.432  17.858  -0.344  0.00  0.00     0.167 HD
ENDBRANCH  38  40
ENDBRANCH  31  38
ENDBRANCH  28  31
ENDBRANCH   6  27
TORSDOF 12
ENDMDL
MODEL 6
REMARK VINA RESULT:      -7.0      5.625     10.957
REMARK  12 active torsions:
REMARK  status: ('A' for Active; 'I' for Inactive)
REMARK    1  A    between atoms: C_2  and  C_1 
REMARK    2  A    between atoms: C_11  and  C_1 
REMARK    3  A    between atoms: C_12  and  C_2 
REMARK    4  A    between atoms: C_8  and  C_7 
REMARK    5  A    between atoms: C_15  and  C_7 
REMARK    6  A    between atoms: C_16  and  C_8 
REMARK    7  A    between atoms: C_18  and  C_13 
REMARK    8  A    between atoms: C_20  and  C_15 
REMARK    9  A    between atoms: C_15  and  N_25 
REMARK   10  A    between atoms: O_30  and  C_16 
REMARK       I    between atoms: N_25  and  C_18 
REMARK   11  A    between atoms: O_32  and  C_19 
REMARK   12  A    between atoms: O_34  and  C_20 
REMARK       I    between atoms: N_22  and  C_21 
ROOT
HETATM    1  C   UNK N   1      25.071  15.301   4.182  0.00  0.00     0.008 A 
HETATM    2  C   UNK N   1      25.606  17.631   3.835  0.00  0.00     0.008 A 
HETATM    3  C   UNK N   1      23.820  15.653   4.665  0.00  0.00     0.017 A 
HETATM    4  C   UNK N   1      24.322  17.980   4.277  0.00  0.00     0.017 A 
HETATM    5  C   UNK N   1      25.982  16.285   3.808  0.00  0.00    -0.058 A 
HETATM    6  C   UNK N   1      23.431  16.994   4.727  0.00  0.00     0.032 A 
ENDROOT
BRANCH   5   7
HETATM    7  C   UNK N   1      27.393  15.887   3.551  0.00  0.00     0.039 C 
BRANCH   7   8
HETATM    8  C   UNK N   1      28.316  16.272   4.727  0.00  0.00     0.011 C 
BRANCH   8   9
HETATM    9  C   UNK N   1      29.164  17.560   4.569  0.00  0.00     0.008 C 
HETATM   10  C   UNK N   1      28.736  18.686   5.521  0.00  0.00     0.053 C 
HETATM   11  C   UNK N   1      28.944  18.284   6.945  0.00  0.00     0.038 A 
HETATM   12  C   UNK N   1      29.991  17.416   7.271  0.00  0.00     0.127 A 
HETATM   13  C   UNK N   1      28.109  18.745   7.964  0.00  0.00     0.165 A 
HETATM   14  N   UNK N   1      30.842  16.908   6.250  0.00  0.00    -0.375 N 
HETATM   15  N   UNK N   1      30.170  17.033   8.561  0.00  0.00    -0.176 N 
HETATM   16  C   UNK N   1      30.635  17.240   4.850  0.00  0.00     0.126 C 
HETATM   17  H   UNK N   1      31.589  16.318   6.498  0.00  0.00     0.161 HD
HETATM   18  C   UNK N   1      29.344  17.487   9.541  0.00  0.00     0.679 A 
HETATM   19  H   UNK N   1      30.905  16.419   8.789  0.00  0.00     0.186 HD
HETATM   20  N   UNK N   1      29.521  17.107  10.748  0.00  0.00    -0.234 N 
HETATM   21  N   UNK N   1      28.325  18.337   9.241  0.00  0.00    -0.170 N 
HETATM   22  H   UNK N   1      30.077  16.338  11.012  0.00  0.00     0.174 HD
ATOM     23  HN  UNK N   1      29.057  17.636  11.488  1.00  0.00     0.174 HD
ATOM     24  HN  UNK N   1      27.714  18.672   9.987  1.00  0.00     0.186 HD
BRANCH  13  25
HETATM   25  O   UNK N   1      27.092  19.583   7.691  0.00  0.00    -0.345 OA
HETATM   26  H   UNK N   1      26.914  19.840   6.808  0.00  0.00     0.219 HD
ENDBRANCH  13  25
ENDBRANCH   8   9
ENDBRANCH   7   8
ENDBRANCH   5   7
BRANCH   6  27
HETATM   27  C   UNK N   1      22.179  17.326   5.458  0.00  0.00     0.252 C 
HETATM   28  N   UNK N   1      21.152  18.077   4.966  0.00  0.00    -0.343 N 
HETATM   29  H   UNK N   1      20.524  18.418   5.644  0.00  0.00     0.163 HD
HETATM   30  O   UNK N   1      22.065  16.889   6.593  0.00  0.00    -0.268 OA
BRANCH  28  31
HETATM   31  C   UNK N   1      20.840  18.453   3.597  0.00  0.00     0.183 C 
BRANCH  31  32
HETATM   32  C   UNK N   1      20.667  19.968   3.425  0.00  0.00     0.046 C 
BRANCH  32  33
HETATM   33  C   UNK N   1      21.595  20.520   2.333  0.00  0.00     0.112 C 
BRANCH  33  34
HETATM   34  C   UNK N   1      20.901  20.821   1.031  0.00  0.00     0.139 C 
HETATM   35  O   UNK N   1      20.578  21.963   0.737  0.00  0.00    -0.650 OA
BRANCH  34  36
HETATM   36  O   UNK N   1      20.636  19.818   0.174  0.00  0.00    -0.776 OA
HETATM   37  H   UNK N   1      20.933  19.729  -0.710  0.00  0.00     0.167 HD
ENDBRANCH  34  36
ENDBRANCH  33  34
ENDBRANCH  32  33
ENDBRANCH  31  32
BRANCH  31  38
HETATM   38  C   UNK N   1      19.737  17.639   2.971  0.00  0.00     0.163 C 
HETATM   39  O   UNK N   1      19.611  17.564   1.762  0.00  0.00    -0.648 OA
BRANCH  38  40
HETATM   40  O   UNK N   1      18.891  16.954   3.763  0.00  0.00    -0.775 OA
HETATM   41  H   UNK N   1      19.129  16.107   4.084  0.00  0.00     0.167 HD
ENDBRANCH  38  40
ENDBRANCH  31  38
ENDBRANCH  28  31
ENDBRANCH   6  27
TORSDOF 12
ENDMDL
MODEL 7
REMARK VINA RESULT:      -7.0      4.872      8.213
REMARK  12 active torsions:
REMARK  status: ('A' for Active; 'I' for Inactive)
REMARK    1  A    between atoms: C_2  and  C_1 
REMARK    2  A    between atoms: C_11  and  C_1 
REMARK    3  A    between atoms: C_12  and  C_2 
REMARK    4  A    between atoms: C_8  and  C_7 
REMARK    5  A    between atoms: C_15  and  C_7 
REMARK    6  A    between atoms: C_16  and  C_8 
REMARK    7  A    between atoms: C_18  and  C_13 
REMARK    8  A    between atoms: C_20  and  C_15 
REMARK    9  A    between atoms: C_15  and  N_25 
REMARK   10  A    between atoms: O_30  and  C_16 
REMARK       I    between atoms: N_25  and  C_18 
REMARK   11  A    between atoms: O_32  and  C_19 
REMARK   12  A    between atoms: O_34  and  C_20 
REMARK       I    between atoms: N_22  and  C_21 
ROOT
HETATM    1  C   UNK N   1      24.926  15.684   5.366  0.00  0.00     0.008 A 
HETATM    2  C   UNK N   1      24.972  16.404   3.061  0.00  0.00     0.008 A 
HETATM    3  C   UNK N   1      26.164  16.268   5.580  0.00  0.00     0.017 A 
HETATM    4  C   UNK N   1      26.201  17.036   3.294  0.00  0.00     0.017 A 
HETATM    5  C   UNK N   1      24.346  15.711   4.101  0.00  0.00    -0.058 A 
HETATM    6  C   UNK N   1      26.823  16.944   4.548  0.00  0.00     0.032 A 
ENDROOT
BRANCH   5   7
HETATM    7  C   UNK N   1      23.156  14.853   3.845  0.00  0.00     0.039 C 
BRANCH   7   8
HETATM    8  C   UNK N   1      21.901  15.699   3.536  0.00  0.00     0.011 C 
BRANCH   8   9
HETATM    9  C   UNK N   1      21.267  16.481   4.715  0.00  0.00     0.008 C 
HETATM   10  C   UNK N   1      21.806  17.911   4.850  0.00  0.00     0.053 C 
HETATM   11  C   UNK N   1      21.462  18.724   3.644  0.00  0.00     0.038 A 
HETATM   12  C   UNK N   1      20.280  18.456   2.946  0.00  0.00     0.127 A 
HETATM   13  C   UNK N   1      22.299  19.742   3.186  0.00  0.00     0.165 A 
HETATM   14  N   UNK N   1      19.420  17.407   3.374  0.00  0.00    -0.375 N 
HETATM   15  N   UNK N   1      19.974  19.180   1.839  0.00  0.00    -0.176 N 
HETATM   16  C   UNK N   1      19.751  16.566   4.513  0.00  0.00     0.126 C 
HETATM   17  H   UNK N   1      18.580  17.247   2.888  0.00  0.00     0.161 HD
HETATM   18  C   UNK N   1      20.804  20.165   1.402  0.00  0.00     0.679 A 
HETATM   19  H   UNK N   1      19.143  18.988   1.347  0.00  0.00     0.186 HD
HETATM   20  N   UNK N   1      20.505  20.828   0.352  0.00  0.00    -0.234 N 
HETATM   21  N   UNK N   1      21.954  20.442   2.074  0.00  0.00    -0.170 N 
HETATM   22  H   UNK N   1      19.827  20.551  -0.306  0.00  0.00     0.174 HD
ATOM     23  HN  UNK N   1      21.002  21.703   0.183  1.00  0.00     0.174 HD
ATOM     24  HN  UNK N   1      22.566  21.186   1.737  1.00  0.00     0.186 HD
BRANCH  13  25
HETATM   25  O   UNK N   1      23.444  20.032   3.830  0.00  0.00    -0.345 OA
HETATM   26  H   UNK N   1      24.265  19.731   3.495  0.00  0.00     0.219 HD
ENDBRANCH  13  25
ENDBRANCH   8   9
ENDBRANCH   7   8
ENDBRANCH   5   7
BRANCH   6  27
HETATM   27  C   UNK N   1      28.236  17.351   4.769  0.00  0.00     0.252 C 
HETATM   28  N   UNK N   1      28.645  18.561   5.248  0.00  0.00    -0.343 N 
HETATM   29  H   UNK N   1      29.595  18.769   5.096  0.00  0.00     0.163 HD
HETATM   30  O   UNK N   1      29.100  16.532   4.497  0.00  0.00    -0.268 OA
BRANCH  28  31
HETATM   31  C   UNK N   1      27.895  19.592   5.947  0.00  0.00     0.183 C 
BRANCH  31  32
HETATM   32  C   UNK N   1      27.713  19.283   7.439  0.00  0.00     0.046 C 
BRANCH  32  33
HETATM   33  C   UNK N   1      28.982  18.669   8.046  0.00  0.00     0.112 C 
BRANCH  33  34
HETATM   34  C   UNK N   1      28.791  18.103   9.428  0.00  0.00     0.139 C 
HETATM   35  O   UNK N   1      27.879  17.326   9.671  0.00  0.00    -0.650 OA
BRANCH  34  36
HETATM   36  O   UNK N   1      29.640  18.455  10.411  0.00  0.00    -0.776 OA
HETATM   37  H   UNK N   1      30.552  18.249  10.479  0.00  0.00     0.167 HD
ENDBRANCH  34  36
ENDBRANCH  33  34
ENDBRANCH  32  33
ENDBRANCH  31  32
BRANCH  31  38
HETATM   38  C   UNK N   1      26.624  20.007   5.252  0.00  0.00     0.163 C 
HETATM   39  O   UNK N   1      26.643  20.541   4.158  0.00  0.00    -0.648 OA
BRANCH  38  40
HETATM   40  O   UNK N   1      25.438  19.753   5.838  0.00  0.00    -0.775 OA
HETATM   41  H   UNK N   1      25.067  18.894   5.793  0.00  0.00     0.167 HD
ENDBRANCH  38  40
ENDBRANCH  31  38
ENDBRANCH  28  31
ENDBRANCH   6  27
TORSDOF 12
ENDMDL
MODEL 8
REMARK VINA RESULT:      -6.9      2.094      4.170
REMARK  12 active torsions:
REMARK  status: ('A' for Active; 'I' for Inactive)
REMARK    1  A    between atoms: C_2  and  C_1 
REMARK    2  A    between atoms: C_11  and  C_1 
REMARK    3  A    between atoms: C_12  and  C_2 
REMARK    4  A    between atoms: C_8  and  C_7 
REMARK    5  A    between atoms: C_15  and  C_7 
REMARK    6  A    between atoms: C_16  and  C_8 
REMARK    7  A    between atoms: C_18  and  C_13 
REMARK    8  A    between atoms: C_20  and  C_15 
REMARK    9  A    between atoms: C_15  and  N_25 
REMARK   10  A    between atoms: O_30  and  C_16 
REMARK       I    between atoms: N_25  and  C_18 
REMARK   11  A    between atoms: O_32  and  C_19 
REMARK   12  A    between atoms: O_34  and  C_20 
REMARK       I    between atoms: N_22  and  C_21 
ROOT
HETATM    1  C   UNK N   1      29.990  17.091   7.178  0.00  0.00     0.008 A 
HETATM    2  C   UNK N   1      30.843  18.589   8.870  0.00  0.00     0.008 A 
HETATM    3  C   UNK N   1      31.284  16.723   6.842  0.00  0.00     0.017 A 
HETATM    4  C   UNK N   1      32.146  18.178   8.561  0.00  0.00     0.017 A 
HETATM    5  C   UNK N   1      29.765  18.053   8.158  0.00  0.00    -0.058 A 
HETATM    6  C   UNK N   1      32.379  17.266   7.521  0.00  0.00     0.032 A 
ENDROOT
BRANCH   5   7
HETATM    7  C   UNK N   1      28.394  18.612   8.304  0.00  0.00     0.039 C 
BRANCH   7   8
HETATM    8  C   UNK N   1      27.559  18.416   7.020  0.00  0.00     0.011 C 
BRANCH   8   9
HETATM    9  C   UNK N   1      27.655  19.523   5.938  0.00  0.00     0.008 C 
HETATM   10  C   UNK N   1      28.444  19.087   4.696  0.00  0.00     0.053 C 
HETATM   11  C   UNK N   1      27.758  17.956   4.002  0.00  0.00     0.038 A 
HETATM   12  C   UNK N   1      26.363  17.864   4.045  0.00  0.00     0.127 A 
HETATM   13  C   UNK N   1      28.476  16.975   3.316  0.00  0.00     0.165 A 
HETATM   14  N   UNK N   1      25.606  18.834   4.759  0.00  0.00    -0.375 N 
HETATM   15  N   UNK N   1      25.738  16.826   3.433  0.00  0.00    -0.176 N 
HETATM   16  C   UNK N   1      26.246  19.918   5.486  0.00  0.00     0.126 C 
HETATM   17  H   UNK N   1      24.623  18.770   4.759  0.00  0.00     0.161 HD
HETATM   18  C   UNK N   1      26.454  15.876   2.773  0.00  0.00     0.679 A 
HETATM   19  H   UNK N   1      24.756  16.761   3.466  0.00  0.00     0.186 HD
HETATM   20  N   UNK N   1      25.849  14.901   2.212  0.00  0.00    -0.234 N 
HETATM   21  N   UNK N   1      27.811  15.955   2.717  0.00  0.00    -0.170 N 
HETATM   22  H   UNK N   1      24.914  14.650   2.391  0.00  0.00     0.174 HD
ATOM     23  HN  UNK N   1      26.369  14.345   1.532  1.00  0.00     0.174 HD
ATOM     24  HN  UNK N   1      28.335  15.237   2.216  1.00  0.00     0.186 HD
BRANCH  13  25
HETATM   25  O   UNK N   1      29.819  17.029   3.250  0.00  0.00    -0.345 OA
HETATM   26  H   UNK N   1      30.333  17.020   4.033  0.00  0.00     0.219 HD
ENDBRANCH  13  25
ENDBRANCH   8   9
ENDBRANCH   7   8
ENDBRANCH   5   7
BRANCH   6  27
HETATM   27  C   UNK N   1      33.737  17.011   6.973  0.00  0.00     0.252 C 
HETATM   28  N   UNK N   1      34.514  15.926   7.257  0.00  0.00    -0.343 N 
HETATM   29  H   UNK N   1      35.467  16.025   7.030  0.00  0.00     0.163 HD
HETATM   30  O   UNK N   1      34.195  17.846   6.207  0.00  0.00    -0.268 OA
BRANCH  28  31
HETATM   31  C   UNK N   1      34.153  14.646   7.845  0.00  0.00     0.183 C 
BRANCH  31  32
HETATM   32  C   UNK N   1      34.933  14.344   9.132  0.00  0.00     0.046 C 
BRANCH  32  33
HETATM   33  C   UNK N   1      34.598  15.352  10.241  0.00  0.00     0.112 C 
BRANCH  33  34
HETATM   34  C   UNK N   1      35.628  16.437  10.416  0.00  0.00     0.139 C 
HETATM   35  O   UNK N   1      35.397  17.587  10.073  0.00  0.00    -0.650 OA
BRANCH  34  36
HETATM   36  O   UNK N   1      36.820  16.137  10.965  0.00  0.00    -0.776 OA
HETATM   37  H   UNK N   1      37.188  15.287  11.100  0.00  0.00     0.167 HD
ENDBRANCH  34  36
ENDBRANCH  33  34
ENDBRANCH  32  33
ENDBRANCH  31  32
BRANCH  31  38
HETATM   38  C   UNK N   1      34.133  13.502   6.863  0.00  0.00     0.163 C 
HETATM   39  O   UNK N   1      34.909  12.569   6.959  0.00  0.00    -0.648 OA
BRANCH  38  40
HETATM   40  O   UNK N   1      33.216  13.494   5.878  0.00  0.00    -0.775 OA
HETATM   41  H   UNK N   1      32.314  13.336   6.076  0.00  0.00     0.167 HD
ENDBRANCH  38  40
ENDBRANCH  31  38
ENDBRANCH  28  31
ENDBRANCH   6  27
TORSDOF 12
ENDMDL
MODEL 9
REMARK VINA RESULT:      -6.9      2.490      4.420
REMARK  12 active torsions:
REMARK  status: ('A' for Active; 'I' for Inactive)
REMARK    1  A    between atoms: C_2  and  C_1 
REMARK    2  A    between atoms: C_11  and  C_1 
REMARK    3  A    between atoms: C_12  and  C_2 
REMARK    4  A    between atoms: C_8  and  C_7 
REMARK    5  A    between atoms: C_15  and  C_7 
REMARK    6  A    between atoms: C_16  and  C_8 
REMARK    7  A    between atoms: C_18  and  C_13 
REMARK    8  A    between atoms: C_20  and  C_15 
REMARK    9  A    between atoms: C_15  and  N_25 
REMARK   10  A    between atoms: O_30  and  C_16 
REMARK       I    between atoms: N_25  and  C_18 
REMARK   11  A    between atoms: O_32  and  C_19 
REMARK   12  A    between atoms: O_34  and  C_20 
REMARK       I    between atoms: N_22  and  C_21 
ROOT
HETATM    1  C   UNK N   1      33.036  16.793   4.226  0.00  0.00     0.008 A 
HETATM    2  C   UNK N   1      34.549  15.189   5.209  0.00  0.00     0.008 A 
HETATM    3  C   UNK N   1      33.053  17.536   5.396  0.00  0.00     0.017 A 
HETATM    4  C   UNK N   1      34.603  15.968   6.373  0.00  0.00     0.017 A 
HETATM    5  C   UNK N   1      33.745  15.599   4.142  0.00  0.00    -0.058 A 
HETATM    6  C   UNK N   1      33.828  17.132   6.487  0.00  0.00     0.032 A 
ENDROOT
BRANCH   5   7
HETATM    7  C   UNK N   1      33.494  14.703   2.981  0.00  0.00     0.039 C 
BRANCH   7   8
HETATM    8  C   UNK N   1      32.010  14.281   2.898  0.00  0.00     0.011 C 
BRANCH   8   9
HETATM    9  C   UNK N   1      31.463  13.389   4.042  0.00  0.00     0.008 C 
HETATM   10  C   UNK N   1      30.635  14.169   5.073  0.00  0.00     0.053 C 
HETATM   11  C   UNK N   1      29.411  14.747   4.442  0.00  0.00     0.038 A 
HETATM   12  C   UNK N   1      28.799  14.074   3.379  0.00  0.00     0.127 A 
HETATM   13  C   UNK N   1      28.862  15.953   4.881  0.00  0.00     0.165 A 
HETATM   14  N   UNK N   1      29.350  12.857   2.893  0.00  0.00    -0.375 N 
HETATM   15  N   UNK N   1      27.698  14.608   2.791  0.00  0.00    -0.176 N 
HETATM   16  C   UNK N   1      30.569  12.294   3.452  0.00  0.00     0.126 C 
HETATM   17  H   UNK N   1      28.895  12.382   2.161  0.00  0.00     0.161 HD
HETATM   18  C   UNK N   1      27.180  15.787   3.227  0.00  0.00     0.679 A 
HETATM   19  H   UNK N   1      27.270  14.135   2.041  0.00  0.00     0.186 HD
HETATM   20  N   UNK N   1      26.149  16.278   2.654  0.00  0.00    -0.234 N 
HETATM   21  N   UNK N   1      27.759  16.450   4.264  0.00  0.00    -0.170 N 
HETATM   22  H   UNK N   1      25.811  15.989   1.776  0.00  0.00     0.174 HD
ATOM     23  HN  UNK N   1      25.642  17.020   3.138  1.00  0.00     0.174 HD
ATOM     24  HN  UNK N   1      27.358  17.332   4.583  1.00  0.00     0.186 HD
BRANCH  13  25
HETATM   25  O   UNK N   1      29.420  16.629   5.902  0.00  0.00    -0.345 OA
HETATM   26  H   UNK N   1      29.837  16.169   6.603  0.00  0.00     0.219 HD
ENDBRANCH  13  25
ENDBRANCH   8   9
ENDBRANCH   7   8
ENDBRANCH   5   7
BRANCH   6  27
HETATM   27  C   UNK N   1      33.633  17.836   7.782  0.00  0.00     0.252 C 
HETATM   28  N   UNK N   1      32.570  17.669   8.621  0.00  0.00    -0.343 N 
HETATM   29  H   UNK N   1      32.457  18.379   9.295  0.00  0.00     0.163 HD
HETATM   30  O   UNK N   1      34.498  18.630   8.120  0.00  0.00    -0.268 OA
BRANCH  28  31
HETATM   31  C   UNK N   1      31.578  16.608   8.674  0.00  0.00     0.183 C 
BRANCH  31  32
HETATM   32  C   UNK N   1      30.279  17.046   9.365  0.00  0.00     0.046 C 
BRANCH  32  33
HETATM   33  C   UNK N   1      29.903  18.488   8.994  0.00  0.00     0.112 C 
BRANCH  33  34
HETATM   34  C   UNK N   1      28.487  18.647   8.507  0.00  0.00     0.139 C 
HETATM   35  O   UNK N   1      28.251  19.052   7.378  0.00  0.00    -0.650 OA
BRANCH  34  36
HETATM   36  O   UNK N   1      27.466  18.332   9.324  0.00  0.00    -0.776 OA
HETATM   37  H   UNK N   1      27.496  17.807  10.100  0.00  0.00     0.167 HD
ENDBRANCH  34  36
ENDBRANCH  33  34
ENDBRANCH  32  33
ENDBRANCH  31  32
BRANCH  31  38
HETATM   38  C   UNK N   1      32.114  15.288   9.165  0.00  0.00     0.163 C 
HETATM   39  O   UNK N   1      32.216  14.329   8.423  0.00  0.00    -0.648 OA
BRANCH  38  40
HETATM   40  O   UNK N   1      32.518  15.175  10.444  0.00  0.00    -0.775 OA
HETATM   41  H   UNK N   1      33.174  14.547  10.676  0.00  0.00     0.167 HD
ENDBRANCH  38  40
ENDBRANCH  31  38
ENDBRANCH  28  31
ENDBRANCH   6  27
TORSDOF 12
ENDMDL
