MODEL 1
REMARK VINA RESULT:      -4.0      0.000      0.000
REMARK  9 active torsions:
REMARK  status: ('A' for Active; 'I' for Inactive)
REMARK    1  A    between atoms: N_1  and  C_2 
REMARK    2  A    between atoms: C_2  and  C_3 
REMARK    3  A    between atoms: C_3  and  C_4 
REMARK    4  A    between atoms: C_4  and  C_5 
REMARK    5  A    between atoms: C_5  and  C_6 
REMARK    6  A    between atoms: C_6  and  C_7 
REMARK    7  A    between atoms: C_7  and  C_8 
REMARK    8  A    between atoms: C_8  and  C_9 
REMARK    9  A    between atoms: C_9  and  N_10 
ROOT
HETATM    1  C   UNK N   1      20.443  14.386   9.270  0.00  0.00     0.000 C 
ENDROOT
BRANCH   1   2
HETATM    2  C   UNK N   1      20.656  15.798   8.778  0.00  0.00     0.002 C 
BRANCH   2   3
HETATM    3  C   UNK N   1      19.312  16.478   8.666  0.00  0.00     0.019 C 
BRANCH   3   4
HETATM    4  C   UNK N   1      19.453  17.936   9.036  0.00  0.00     0.111 C 
BRANCH   4   5
HETATM    5  N   UNK N   1      18.271  18.360   9.760  0.00  0.00    -0.430 N 
HETATM    6  H   UNK N   1      18.260  19.262  10.235  0.00  0.00     0.149 HD
HETATM    7  H   UNK N   1      17.451  17.754   9.795  0.00  0.00     0.149 HD
ENDBRANCH   4   5
ENDBRANCH   3   4
ENDBRANCH   2   3
ENDBRANCH   1   2
BRANCH   1   8
HETATM    8  C   UNK N   1      21.765  13.814   9.716  0.00  0.00     0.000 C 
BRANCH   8   9
HETATM    9  C   UNK N   1      21.521  12.521  10.454  0.00  0.00     0.002 C 
BRANCH   9  10
HETATM   10  C   UNK N   1      22.767  11.675  10.373  0.00  0.00     0.019 C 
BRANCH  10  11
HETATM   11  C   UNK N   1      23.643  11.950  11.573  0.00  0.00     0.111 C 
BRANCH  11  12
HETATM   12  N   UNK N   1      24.914  12.483  11.123  0.00  0.00    -0.430 N 
HETATM   13  H   UNK N   1      25.496  13.023  11.763  0.00  0.00     0.149 HD
HETATM   14  H   UNK N   1      25.226  12.317  10.165  0.00  0.00     0.149 HD
ENDBRANCH  11  12
ENDBRANCH  10  11
ENDBRANCH   9  10
ENDBRANCH   8   9
ENDBRANCH   1   8
TORSDOF 9
ENDMDL
MODEL 2
REMARK VINA RESULT:      -3.9     10.529     11.334
REMARK  9 active torsions:
REMARK  status: ('A' for Active; 'I' for Inactive)
REMARK    1  A    between atoms: N_1  and  C_2 
REMARK    2  A    between atoms: C_2  and  C_3 
REMARK    3  A    between atoms: C_3  and  C_4 
REMARK    4  A    between atoms: C_4  and  C_5 
REMARK    5  A    between atoms: C_5  and  C_6 
REMARK    6  A    between atoms: C_6  and  C_7 
REMARK    7  A    between atoms: C_7  and  C_8 
REMARK    8  A    between atoms: C_8  and  C_9 
REMARK    9  A    between atoms: C_9  and  N_10 
ROOT
HETATM    1  C   UNK N   1      31.258  17.150   7.023  0.00  0.00     0.000 C 
ENDROOT
BRANCH   1   2
HETATM    2  C   UNK N   1      29.883  17.557   7.496  0.00  0.00     0.002 C 
BRANCH   2   3
HETATM    3  C   UNK N   1      30.020  18.284   8.812  0.00  0.00     0.019 C 
BRANCH   3   4
HETATM    4  C   UNK N   1      28.773  18.073   9.638  0.00  0.00     0.111 C 
BRANCH   4   5
HETATM    5  N   UNK N   1      27.622  18.539   8.891  0.00  0.00    -0.430 N 
HETATM    6  H   UNK N   1      27.746  18.944   7.963  0.00  0.00     0.149 HD
HETATM    7  H   UNK N   1      26.688  18.464   9.294  0.00  0.00     0.149 HD
ENDBRANCH   4   5
ENDBRANCH   3   4
ENDBRANCH   2   3
ENDBRANCH   1   2
BRANCH   1   8
HETATM    8  C   UNK N   1      32.274  17.532   8.071  0.00  0.00     0.000 C 
BRANCH   8   9
HETATM    9  C   UNK N   1      33.534  18.005   7.388  0.00  0.00     0.002 C 
BRANCH   9  10
HETATM   10  C   UNK N   1      34.637  18.088   8.414  0.00  0.00     0.019 C 
BRANCH  10  11
HETATM   11  C   UNK N   1      34.645  16.830   9.251  0.00  0.00     0.111 C 
BRANCH  11  12
HETATM   12  N   UNK N   1      35.040  17.160  10.605  0.00  0.00    -0.430 N 
HETATM   13  H   UNK N   1      35.992  16.974  10.919  0.00  0.00     0.149 HD
HETATM   14  H   UNK N   1      34.365  17.579  11.246  0.00  0.00     0.149 HD
ENDBRANCH  11  12
ENDBRANCH  10  11
ENDBRANCH   9  10
ENDBRANCH   8   9
ENDBRANCH   1   8
TORSDOF 9
ENDMDL
MODEL 3
REMARK VINA RESULT:      -3.8      9.002     10.674
REMARK  9 active torsions:
REMARK  status: ('A' for Active; 'I' for Inactive)
REMARK    1  A    between atoms: N_1  and  C_2 
REMARK    2  A    between atoms: C_2  and  C_3 
REMARK    3  A    between atoms: C_3  and  C_4 
REMARK    4  A    between atoms: C_4  and  C_5 
REMARK    5  A    between atoms: C_5  and  C_6 
REMARK    6  A    between atoms: C_6  and  C_7 
REMARK    7  A    between atoms: C_7  and  C_8 
REMARK    8  A    between atoms: C_8  and  C_9 
REMARK    9  A    between atoms: C_9  and  N_10 
ROOT
HETATM    1  C   UNK N   1      24.932  19.927   3.890  0.00  0.00     0.000 C 
ENDROOT
BRANCH   1   2
HETATM    2  C   UNK N   1      26.326  20.285   3.432  0.00  0.00     0.002 C 
BRANCH   2   3
HETATM    3  C   UNK N   1      27.202  20.463   4.649  0.00  0.00     0.019 C 
BRANCH   3   4
HETATM    4  C   UNK N   1      26.335  20.633   5.874  0.00  0.00     0.111 C 
BRANCH   4   5
HETATM    5  N   UNK N   1      26.995  20.027   7.013  0.00  0.00    -0.430 N 
HETATM    6  H   UNK N   1      26.442  19.649   7.782  0.00  0.00     0.149 HD
HETATM    7  H   UNK N   1      28.014  19.978   7.045  0.00  0.00     0.149 HD
ENDBRANCH   4   5
ENDBRANCH   3   4
ENDBRANCH   2   3
ENDBRANCH   1   2
BRANCH   1   8
HETATM    8  C   UNK N   1      23.928  20.580   2.973  0.00  0.00     0.000 C 
BRANCH   8   9
HETATM    9  C   UNK N   1      22.601  19.876   3.111  0.00  0.00     0.002 C 
BRANCH   9  10
HETATM   10  C   UNK N   1      21.519  20.769   2.555  0.00  0.00     0.019 C 
BRANCH  10  11
HETATM   11  C   UNK N   1      20.779  20.041   1.457  0.00  0.00     0.111 C 
BRANCH  11  12
HETATM   12  N   UNK N   1      20.502  20.966   0.375  0.00  0.00    -0.430 N 
HETATM   13  H   UNK N   1      20.838  20.765  -0.566  0.00  0.00     0.149 HD
HETATM   14  H   UNK N   1      19.970  21.817   0.556  0.00  0.00     0.149 HD
ENDBRANCH  11  12
ENDBRANCH  10  11
ENDBRANCH   9  10
ENDBRANCH   8   9
ENDBRANCH   1   8
TORSDOF 9
ENDMDL
MODEL 4
REMARK VINA RESULT:      -3.8     15.570     16.364
REMARK  9 active torsions:
REMARK  status: ('A' for Active; 'I' for Inactive)
REMARK    1  A    between atoms: N_1  and  C_2 
REMARK    2  A    between atoms: C_2  and  C_3 
REMARK    3  A    between atoms: C_3  and  C_4 
REMARK    4  A    between atoms: C_4  and  C_5 
REMARK    5  A    between atoms: C_5  and  C_6 
REMARK    6  A    between atoms: C_6  and  C_7 
REMARK    7  A    between atoms: C_7  and  C_8 
REMARK    8  A    between atoms: C_8  and  C_9 
REMARK    9  A    between atoms: C_9  and  N_10 
ROOT
HETATM    1  C   UNK N   1      35.899  12.029  15.834  0.00  0.00     0.000 C 
ENDROOT
BRANCH   1   2
HETATM    2  C   UNK N   1      37.006  12.674  15.034  0.00  0.00     0.002 C 
BRANCH   2   3
HETATM    3  C   UNK N   1      36.479  13.950  14.423  0.00  0.00     0.019 C 
BRANCH   3   4
HETATM    4  C   UNK N   1      36.469  13.821  12.917  0.00  0.00     0.111 C 
BRANCH   4   5
HETATM    5  N   UNK N   1      36.463  15.144  12.326  0.00  0.00    -0.430 N 
HETATM    6  H   UNK N   1      37.241  15.445  11.740  0.00  0.00     0.149 HD
HETATM    7  H   UNK N   1      35.679  15.775  12.496  0.00  0.00     0.149 HD
ENDBRANCH   4   5
ENDBRANCH   3   4
ENDBRANCH   2   3
ENDBRANCH   1   2
BRANCH   1   8
HETATM    8  C   UNK N   1      34.958  13.098  16.328  0.00  0.00     0.000 C 
BRANCH   8   9
HETATM    9  C   UNK N   1      35.076  13.207  17.828  0.00  0.00     0.002 C 
BRANCH   9  10
HETATM   10  C   UNK N   1      35.362  11.837  18.391  0.00  0.00     0.019 C 
BRANCH  10  11
HETATM   11  C   UNK N   1      35.340  11.896  19.901  0.00  0.00     0.111 C 
BRANCH  11  12
HETATM   12  N   UNK N   1      34.880  13.206  20.319  0.00  0.00    -0.430 N 
HETATM   13  H   UNK N   1      35.288  14.045  19.908  0.00  0.00     0.149 HD
HETATM   14  H   UNK N   1      34.148  13.287  21.025  0.00  0.00     0.149 HD
ENDBRANCH  11  12
ENDBRANCH  10  11
ENDBRANCH   9  10
ENDBRANCH   8   9
ENDBRANCH   1   8
TORSDOF 9
ENDMDL
MODEL 5
REMARK VINA RESULT:      -3.7      0.858      6.029
REMARK  9 active torsions:
REMARK  status: ('A' for Active; 'I' for Inactive)
REMARK    1  A    between atoms: N_1  and  C_2 
REMARK    2  A    between atoms: C_2  and  C_3 
REMARK    3  A    between atoms: C_3  and  C_4 
REMARK    4  A    between atoms: C_4  and  C_5 
REMARK    5  A    between atoms: C_5  and  C_6 
REMARK    6  A    between atoms: C_6  and  C_7 
REMARK    7  A    between atoms: C_7  and  C_8 
REMARK    8  A    between atoms: C_8  and  C_9 
REMARK    9  A    between atoms: C_9  and  N_10 
ROOT
HETATM    1  C   UNK N   1      20.386  14.051   9.890  0.00  0.00     0.000 C 
ENDROOT
BRANCH   1   2
HETATM    2  C   UNK N   1      21.089  12.755  10.220  0.00  0.00     0.002 C 
BRANCH   2   3
HETATM    3  C   UNK N   1      22.569  13.027  10.346  0.00  0.00     0.019 C 
BRANCH   3   4
HETATM    4  C   UNK N   1      23.245  11.844  10.999  0.00  0.00     0.111 C 
BRANCH   4   5
HETATM    5  N   UNK N   1      23.629  12.202  12.350  0.00  0.00    -0.430 N 
HETATM    6  H   UNK N   1      23.196  13.003  12.808  0.00  0.00     0.149 HD
HETATM    7  H   UNK N   1      24.333  11.651  12.842  0.00  0.00     0.149 HD
ENDBRANCH   4   5
ENDBRANCH   3   4
ENDBRANCH   2   3
ENDBRANCH   1   2
BRANCH   1   8
HETATM    8  C   UNK N   1      20.674  14.417   8.455  0.00  0.00     0.000 C 
BRANCH   8   9
HETATM    9  C   UNK N   1      20.820  15.915   8.347  0.00  0.00     0.002 C 
BRANCH   9  10
HETATM   10  C   UNK N   1      19.445  16.531   8.278  0.00  0.00     0.019 C 
BRANCH  10  11
HETATM   11  C   UNK N   1      19.453  17.866   8.985  0.00  0.00     0.111 C 
BRANCH  11  12
HETATM   12  N   UNK N   1      18.155  18.095   9.588  0.00  0.00    -0.430 N 
HETATM   13  H   UNK N   1      17.447  18.630   9.087  0.00  0.00     0.149 HD
HETATM   14  H   UNK N   1      17.951  17.720  10.515  0.00  0.00     0.149 HD
ENDBRANCH  11  12
ENDBRANCH  10  11
ENDBRANCH   9  10
ENDBRANCH   8   9
ENDBRANCH   1   8
TORSDOF 9
ENDMDL
MODEL 6
REMARK VINA RESULT:      -3.7     14.656     16.371
REMARK  9 active torsions:
REMARK  status: ('A' for Active; 'I' for Inactive)
REMARK    1  A    between atoms: N_1  and  C_2 
REMARK    2  A    between atoms: C_2  and  C_3 
REMARK    3  A    between atoms: C_3  and  C_4 
REMARK    4  A    between atoms: C_4  and  C_5 
REMARK    5  A    between atoms: C_5  and  C_6 
REMARK    6  A    between atoms: C_6  and  C_7 
REMARK    7  A    between atoms: C_7  and  C_8 
REMARK    8  A    between atoms: C_8  and  C_9 
REMARK    9  A    between atoms: C_9  and  N_10 
ROOT
HETATM    1  C   UNK N   1      35.088  13.046  16.176  0.00  0.00     0.000 C 
ENDROOT
BRANCH   1   2
HETATM    2  C   UNK N   1      35.018  13.078  17.684  0.00  0.00     0.002 C 
BRANCH   2   3
HETATM    3  C   UNK N   1      35.341  11.702  18.212  0.00  0.00     0.019 C 
BRANCH   3   4
HETATM    4  C   UNK N   1      35.408  11.743  19.721  0.00  0.00     0.111 C 
BRANCH   4   5
HETATM    5  N   UNK N   1      35.139  13.093  20.173  0.00  0.00    -0.430 N 
HETATM    6  H   UNK N   1      35.370  13.887  19.576  0.00  0.00     0.149 HD
HETATM    7  H   UNK N   1      34.717  13.250  21.089  0.00  0.00     0.149 HD
ENDBRANCH   4   5
ENDBRANCH   3   4
ENDBRANCH   2   3
ENDBRANCH   1   2
BRANCH   1   8
HETATM    8  C   UNK N   1      36.292  12.242  15.754  0.00  0.00     0.000 C 
BRANCH   8   9
HETATM    9  C   UNK N   1      36.664  12.614  14.340  0.00  0.00     0.002 C 
BRANCH   9  10
HETATM   10  C   UNK N   1      35.938  13.883  13.966  0.00  0.00     0.019 C 
BRANCH  10  11
HETATM   11  C   UNK N   1      35.426  13.773  12.549  0.00  0.00     0.111 C 
BRANCH  11  12
HETATM   12  N   UNK N   1      34.601  12.588  12.431  0.00  0.00    -0.430 N 
HETATM   13  H   UNK N   1      34.831  11.872  11.741  0.00  0.00     0.149 HD
HETATM   14  H   UNK N   1      33.789  12.469  13.038  0.00  0.00     0.149 HD
ENDBRANCH  11  12
ENDBRANCH  10  11
ENDBRANCH   9  10
ENDBRANCH   8   9
ENDBRANCH   1   8
TORSDOF 9
ENDMDL
MODEL 7
REMARK VINA RESULT:      -3.6     10.299     11.878
REMARK  9 active torsions:
REMARK  status: ('A' for Active; 'I' for Inactive)
REMARK    1  A    between atoms: N_1  and  C_2 
REMARK    2  A    between atoms: C_2  and  C_3 
REMARK    3  A    between atoms: C_3  and  C_4 
REMARK    4  A    between atoms: C_4  and  C_5 
REMARK    5  A    between atoms: C_5  and  C_6 
REMARK    6  A    between atoms: C_6  and  C_7 
REMARK    7  A    between atoms: C_7  and  C_8 
REMARK    8  A    between atoms: C_8  and  C_9 
REMARK    9  A    between atoms: C_9  and  N_10 
ROOT
HETATM    1  C   UNK N   1      31.756  16.978   7.197  0.00  0.00     0.000 C 
ENDROOT
BRANCH   1   2
HETATM    2  C   UNK N   1      32.973  17.422   6.420  0.00  0.00     0.002 C 
BRANCH   2   3
HETATM    3  C   UNK N   1      34.039  17.854   7.398  0.00  0.00     0.019 C 
BRANCH   3   4
HETATM    4  C   UNK N   1      33.686  17.357   8.780  0.00  0.00     0.111 C 
BRANCH   4   5
HETATM    5  N   UNK N   1      34.862  17.420   9.624  0.00  0.00    -0.430 N 
HETATM    6  H   UNK N   1      35.046  16.678  10.300  0.00  0.00     0.149 HD
HETATM    7  H   UNK N   1      35.507  18.206   9.542  0.00  0.00     0.149 HD
ENDBRANCH   4   5
ENDBRANCH   3   4
ENDBRANCH   2   3
ENDBRANCH   1   2
BRANCH   1   8
HETATM    8  C   UNK N   1      30.527  17.182   6.348  0.00  0.00     0.000 C 
BRANCH   8   9
HETATM    9  C   UNK N   1      29.416  17.728   7.211  0.00  0.00     0.002 C 
BRANCH   9  10
HETATM   10  C   UNK N   1      29.994  18.133   8.545  0.00  0.00     0.019 C 
BRANCH  10  11
HETATM   11  C   UNK N   1      28.937  17.997   9.616  0.00  0.00     0.111 C 
BRANCH  11  12
HETATM   12  N   UNK N   1      27.665  18.452   9.090  0.00  0.00    -0.430 N 
HETATM   13  H   UNK N   1      27.075  17.813   8.558  0.00  0.00     0.149 HD
HETATM   14  H   UNK N   1      27.361  19.412   9.253  0.00  0.00     0.149 HD
ENDBRANCH  11  12
ENDBRANCH  10  11
ENDBRANCH   9  10
ENDBRANCH   8   9
ENDBRANCH   1   8
TORSDOF 9
ENDMDL
MODEL 8
REMARK VINA RESULT:      -3.6     10.431     11.250
REMARK  9 active torsions:
REMARK  status: ('A' for Active; 'I' for Inactive)
REMARK    1  A    between atoms: N_1  and  C_2 
REMARK    2  A    between atoms: C_2  and  C_3 
REMARK    3  A    between atoms: C_3  and  C_4 
REMARK    4  A    between atoms: C_4  and  C_5 
REMARK    5  A    between atoms: C_5  and  C_6 
REMARK    6  A    between atoms: C_6  and  C_7 
REMARK    7  A    between atoms: C_7  and  C_8 
REMARK    8  A    between atoms: C_8  and  C_9 
REMARK    9  A    between atoms: C_9  and  N_10 
ROOT
HETATM    1  C   UNK N   1      31.059  16.697   8.205  0.00  0.00     0.000 C 
ENDROOT
BRANCH   1   2
HETATM    2  C   UNK N   1      31.269  18.133   8.623  0.00  0.00     0.002 C 
BRANCH   2   3
HETATM    3  C   UNK N   1      30.039  18.607   9.358  0.00  0.00     0.019 C 
BRANCH   3   4
HETATM    4  C   UNK N   1      28.862  18.628   8.411  0.00  0.00     0.111 C 
BRANCH   4   5
HETATM    5  N   UNK N   1      27.646  18.372   9.156  0.00  0.00    -0.430 N 
HETATM    6  H   UNK N   1      27.294  19.068   9.813  0.00  0.00     0.149 HD
HETATM    7  H   UNK N   1      27.141  17.495   9.022  0.00  0.00     0.149 HD
ENDBRANCH   4   5
ENDBRANCH   3   4
ENDBRANCH   2   3
ENDBRANCH   1   2
BRANCH   1   8
HETATM    8  C   UNK N   1      32.107  16.321   7.188  0.00  0.00     0.000 C 
BRANCH   8   9
HETATM    9  C   UNK N   1      32.935  17.538   6.857  0.00  0.00     0.002 C 
BRANCH   9  10
HETATM   10  C   UNK N   1      33.293  17.496   5.391  0.00  0.00     0.019 C 
BRANCH  10  11
HETATM   11  C   UNK N   1      32.124  16.954   4.602  0.00  0.00     0.111 C 
BRANCH  11  12
HETATM   12  N   UNK N   1      31.524  18.031   3.839  0.00  0.00    -0.430 N 
HETATM   13  H   UNK N   1      30.719  18.533   4.212  0.00  0.00     0.149 HD
HETATM   14  H   UNK N   1      31.907  18.285   2.928  0.00  0.00     0.149 HD
ENDBRANCH  11  12
ENDBRANCH  10  11
ENDBRANCH   9  10
ENDBRANCH   8   9
ENDBRANCH   1   8
TORSDOF 9
ENDMDL
MODEL 9
REMARK VINA RESULT:      -3.6      2.237      2.421
REMARK  9 active torsions:
REMARK  status: ('A' for Active; 'I' for Inactive)
REMARK    1  A    between atoms: N_1  and  C_2 
REMARK    2  A    between atoms: C_2  and  C_3 
REMARK    3  A    between atoms: C_3  and  C_4 
REMARK    4  A    between atoms: C_4  and  C_5 
REMARK    5  A    between atoms: C_5  and  C_6 
REMARK    6  A    between atoms: C_6  and  C_7 
REMARK    7  A    between atoms: C_7  and  C_8 
REMARK    8  A    between atoms: C_8  and  C_9 
REMARK    9  A    between atoms: C_9  and  N_10 
ROOT
HETATM    1  C   UNK N   1      20.296  14.029   9.811  0.00  0.00     0.000 C 
ENDROOT
BRANCH   1   2
HETATM    2  C   UNK N   1      20.247  15.302   9.000  0.00  0.00     0.002 C 
BRANCH   2   3
HETATM    3  C   UNK N   1      20.863  15.037   7.648  0.00  0.00     0.019 C 
BRANCH   3   4
HETATM    4  C   UNK N   1      21.498  16.305   7.126  0.00  0.00     0.111 C 
BRANCH   4   5
HETATM    5  N   UNK N   1      22.688  15.966   6.371  0.00  0.00    -0.430 N 
HETATM    6  H   UNK N   1      23.554  15.738   6.858  0.00  0.00     0.149 HD
HETATM    7  H   UNK N   1      22.658  15.955   5.351  0.00  0.00     0.149 HD
ENDBRANCH   4   5
ENDBRANCH   3   4
ENDBRANCH   2   3
ENDBRANCH   1   2
BRANCH   1   8
HETATM    8  C   UNK N   1      21.717  13.527   9.858  0.00  0.00     0.000 C 
BRANCH   8   9
HETATM    9  C   UNK N   1      21.788  12.325  10.767  0.00  0.00     0.002 C 
BRANCH   9  10
HETATM   10  C   UNK N   1      23.222  12.122  11.190  0.00  0.00     0.019 C 
BRANCH  10  11
HETATM   11  C   UNK N   1      24.145  12.664  10.124  0.00  0.00     0.111 C 
BRANCH  11  12
HETATM   12  N   UNK N   1      25.388  13.084  10.738  0.00  0.00    -0.430 N 
HETATM   13  H   UNK N   1      25.783  13.998  10.518  0.00  0.00     0.149 HD
HETATM   14  H   UNK N   1      25.868  12.464  11.392  0.00  0.00     0.149 HD
ENDBRANCH  11  12
ENDBRANCH  10  11
ENDBRANCH   9  10
ENDBRANCH   8   9
ENDBRANCH   1   8
TORSDOF 9
ENDMDL
