MODEL 1
REMARK VINA RESULT:      -4.9      0.000      0.000
REMARK  6 active torsions:
REMARK  status: ('A' for Active; 'I' for Inactive)
REMARK    1  A    between atoms: O_1  and  C_2 
REMARK    2  A    between atoms: C_2  and  C_4 
REMARK    3  A    between atoms: C_4  and  C_5 
REMARK    4  A    between atoms: C_5  and  P_6 
REMARK    5  A    between atoms: P_6  and  O_7 
REMARK    6  A    between atoms: P_6  and  O_8 
ROOT
HETATM    1  C   UNK N   1      21.364  19.990   2.453  0.00  0.00     0.059 C 
HETATM    2  C   UNK N   1      22.571  19.885   3.064  0.00  0.00     0.117 C 
HETATM    3 Cl   UNK N   1      24.000  20.792   2.570  0.00  0.00    -0.070 Cl
HETATM    4 Cl   UNK N   1      22.794  18.774   4.421  0.00  0.00    -0.070 Cl
ENDROOT
BRANCH   1   5
HETATM    5  C   UNK N   1      21.111  20.889   1.276  0.00  0.00     0.175 C 
HETATM    6  O   UNK N   1      21.215  20.454   0.144  0.00  0.00    -0.646 OA
BRANCH   5   7
HETATM    7  O   UNK N   1      20.768  22.182   1.441  0.00  0.00    -0.773 OA
HETATM    8  H   UNK N   1      20.023  22.462   1.935  0.00  0.00     0.167 HD
ENDBRANCH   5   7
ENDBRANCH   1   5
BRANCH   1   9
HETATM    9  C   UNK N   1      20.244  19.125   2.977  0.00  0.00     0.173 C 
BRANCH   9  10
HETATM   10  P   UNK N   1      19.994  17.550   2.015  0.00  0.00     0.240 P 
HETATM   11  O   UNK N   1      19.678  16.498   3.108  0.00  0.00    -0.653 OA
BRANCH  10  12
HETATM   12  O   UNK N   1      18.901  17.060   0.758  0.00  0.00    -0.329 OA
HETATM   13  H   UNK N   1      18.149  17.601   0.470  0.00  0.00     0.220 HD
ENDBRANCH  10  12
BRANCH  10  14
HETATM   14  O   UNK N   1      18.509  18.358   2.398  0.00  0.00    -0.329 OA
HETATM   15  H   UNK N   1      18.073  18.895   3.077  0.00  0.00     0.220 HD
ENDBRANCH  10  14
ENDBRANCH   9  10
ENDBRANCH   1   9
TORSDOF 6
ENDMDL
MODEL 2
REMARK VINA RESULT:      -4.8      2.232      4.103
REMARK  6 active torsions:
REMARK  status: ('A' for Active; 'I' for Inactive)
REMARK    1  A    between atoms: O_1  and  C_2 
REMARK    2  A    between atoms: C_2  and  C_4 
REMARK    3  A    between atoms: C_4  and  C_5 
REMARK    4  A    between atoms: C_5  and  P_6 
REMARK    5  A    between atoms: P_6  and  O_7 
REMARK    6  A    between atoms: P_6  and  O_8 
ROOT
HETATM    1  C   UNK N   1      20.512  17.865   2.338  0.00  0.00     0.059 C 
HETATM    2  C   UNK N   1      21.245  17.222   3.282  0.00  0.00     0.117 C 
HETATM    3 Cl   UNK N   1      21.759  15.541   3.143  0.00  0.00    -0.070 Cl
HETATM    4 Cl   UNK N   1      21.718  18.053   4.768  0.00  0.00    -0.070 Cl
ENDROOT
BRANCH   1   5
HETATM    5  C   UNK N   1      20.048  17.213   1.067  0.00  0.00     0.175 C 
HETATM    6  O   UNK N   1      20.438  17.629  -0.009  0.00  0.00    -0.646 OA
BRANCH   5   7
HETATM    7  O   UNK N   1      19.198  16.168   1.084  0.00  0.00    -0.773 OA
HETATM    8  H   UNK N   1      18.338  16.204   1.455  0.00  0.00     0.167 HD
ENDBRANCH   5   7
ENDBRANCH   1   5
BRANCH   1   9
HETATM    9  C   UNK N   1      20.126  19.297   2.617  0.00  0.00     0.173 C 
BRANCH   9  10
HETATM   10  P   UNK N   1      21.386  20.543   2.043  0.00  0.00     0.240 P 
HETATM   11  O   UNK N   1      20.575  21.486   1.119  0.00  0.00    -0.653 OA
BRANCH  10  12
HETATM   12  O   UNK N   1      22.419  21.681   2.852  0.00  0.00    -0.329 OA
HETATM   13  H   UNK N   1      23.367  21.763   2.661  0.00  0.00     0.220 HD
ENDBRANCH  10  12
BRANCH  10  14
HETATM   14  O   UNK N   1      20.446  21.097   3.390  0.00  0.00    -0.329 OA
HETATM   15  H   UNK N   1      20.025  21.884   3.769  0.00  0.00     0.220 HD
ENDBRANCH  10  14
ENDBRANCH   9  10
ENDBRANCH   1   9
TORSDOF 6
ENDMDL
MODEL 3
REMARK VINA RESULT:      -4.8     14.763     15.560
REMARK  6 active torsions:
REMARK  status: ('A' for Active; 'I' for Inactive)
REMARK    1  A    between atoms: O_1  and  C_2 
REMARK    2  A    between atoms: C_2  and  C_4 
REMARK    3  A    between atoms: C_4  and  C_5 
REMARK    4  A    between atoms: C_5  and  P_6 
REMARK    5  A    between atoms: P_6  and  O_7 
REMARK    6  A    between atoms: P_6  and  O_8 
ROOT
HETATM    1  C   UNK N   1      33.688  16.849   8.338  0.00  0.00     0.059 C 
HETATM    2  C   UNK N   1      32.366  16.744   8.623  0.00  0.00     0.117 C 
HETATM    3 Cl   UNK N   1      31.173  17.969   8.193  0.00  0.00    -0.070 Cl
HETATM    4 Cl   UNK N   1      31.747  15.338   9.496  0.00  0.00    -0.070 Cl
ENDROOT
BRANCH   1   5
HETATM    5  C   UNK N   1      34.289  18.029   7.628  0.00  0.00     0.175 C 
HETATM    6  O   UNK N   1      34.280  18.077   6.411  0.00  0.00    -0.646 OA
BRANCH   5   7
HETATM    7  O   UNK N   1      34.846  19.049   8.308  0.00  0.00    -0.773 OA
HETATM    8  H   UNK N   1      35.699  19.009   8.696  0.00  0.00     0.167 HD
ENDBRANCH   5   7
ENDBRANCH   1   5
BRANCH   1   9
HETATM    9  C   UNK N   1      34.588  15.727   8.797  0.00  0.00     0.173 C 
BRANCH   9  10
HETATM   10  P   UNK N   1      35.403  16.041  10.442  0.00  0.00     0.240 P 
HETATM   11  O   UNK N   1      34.764  14.983  11.377  0.00  0.00    -0.653 OA
BRANCH  10  12
HETATM   12  O   UNK N   1      37.047  16.025  11.001  0.00  0.00    -0.329 OA
HETATM   13  H   UNK N   1      37.750  15.518  10.564  0.00  0.00     0.220 HD
ENDBRANCH  10  12
BRANCH  10  14
HETATM   14  O   UNK N   1      36.150  14.760   9.545  0.00  0.00    -0.329 OA
HETATM   15  H   UNK N   1      36.294  13.801   9.539  0.00  0.00     0.220 HD
ENDBRANCH  10  14
ENDBRANCH   9  10
ENDBRANCH   1   9
TORSDOF 6
ENDMDL
MODEL 4
REMARK VINA RESULT:      -4.8     20.714     21.991
REMARK  6 active torsions:
REMARK  status: ('A' for Active; 'I' for Inactive)
REMARK    1  A    between atoms: O_1  and  C_2 
REMARK    2  A    between atoms: C_2  and  C_4 
REMARK    3  A    between atoms: C_4  and  C_5 
REMARK    4  A    between atoms: C_5  and  P_6 
REMARK    5  A    between atoms: P_6  and  O_7 
REMARK    6  A    between atoms: P_6  and  O_8 
ROOT
HETATM    1  C   UNK N   1      41.772  21.412   2.608  0.00  0.00     0.059 C 
HETATM    2  C   UNK N   1      40.762  21.888   1.837  0.00  0.00     0.117 C 
HETATM    3 Cl   UNK N   1      39.271  21.002   1.522  0.00  0.00    -0.070 Cl
HETATM    4 Cl   UNK N   1      40.901  23.468   1.056  0.00  0.00    -0.070 Cl
ENDROOT
BRANCH   1   5
HETATM    5  C   UNK N   1      41.737  20.068   3.276  0.00  0.00     0.175 C 
HETATM    6  O   UNK N   1      42.580  19.231   3.007  0.00  0.00    -0.646 OA
BRANCH   5   7
HETATM    7  O   UNK N   1      40.784  19.755   4.177  0.00  0.00    -0.773 OA
HETATM    8  H   UNK N   1      40.958  19.604   5.085  0.00  0.00     0.167 HD
ENDBRANCH   5   7
ENDBRANCH   1   5
BRANCH   1   9
HETATM    9  C   UNK N   1      42.998  22.281   2.759  0.00  0.00     0.173 C 
BRANCH   9  10
HETATM   10  P   UNK N   1      43.738  22.249   4.468  0.00  0.00     0.240 P 
HETATM   11  O   UNK N   1      45.263  22.343   4.210  0.00  0.00    -0.653 OA
BRANCH  10  12
HETATM   12  O   UNK N   1      43.578  23.254   5.875  0.00  0.00    -0.329 OA
HETATM   13  H   UNK N   1      43.472  22.897   6.772  0.00  0.00     0.220 HD
ENDBRANCH  10  12
BRANCH  10  14
HETATM   14  O   UNK N   1      43.557  23.852   3.834  0.00  0.00    -0.329 OA
HETATM   15  H   UNK N   1      42.902  24.479   3.490  0.00  0.00     0.220 HD
ENDBRANCH  10  14
ENDBRANCH   9  10
ENDBRANCH   1   9
TORSDOF 6
ENDMDL
MODEL 5
REMARK VINA RESULT:      -4.7     21.400     22.680
REMARK  6 active torsions:
REMARK  status: ('A' for Active; 'I' for Inactive)
REMARK    1  A    between atoms: O_1  and  C_2 
REMARK    2  A    between atoms: C_2  and  C_4 
REMARK    3  A    between atoms: C_4  and  C_5 
REMARK    4  A    between atoms: C_5  and  P_6 
REMARK    5  A    between atoms: P_6  and  O_7 
REMARK    6  A    between atoms: P_6  and  O_8 
ROOT
HETATM    1  C   UNK N   1      42.956  20.611   3.407  0.00  0.00     0.059 C 
HETATM    2  C   UNK N   1      43.824  19.626   3.061  0.00  0.00     0.117 C 
HETATM    3 Cl   UNK N   1      43.329  18.091   2.351  0.00  0.00    -0.070 Cl
HETATM    4 Cl   UNK N   1      45.559  19.825   3.336  0.00  0.00    -0.070 Cl
ENDROOT
BRANCH   1   5
HETATM    5  C   UNK N   1      41.469  20.499   3.231  0.00  0.00     0.175 C 
HETATM    6  O   UNK N   1      40.831  19.721   3.918  0.00  0.00    -0.646 OA
BRANCH   5   7
HETATM    7  O   UNK N   1      40.811  21.244   2.321  0.00  0.00    -0.773 OA
HETATM    8  H   UNK N   1      40.364  22.041   2.528  0.00  0.00     0.167 HD
ENDBRANCH   5   7
ENDBRANCH   1   5
BRANCH   1   9
HETATM    9  C   UNK N   1      43.535  21.858   4.030  0.00  0.00     0.173 C 
BRANCH   9  10
HETATM   10  P   UNK N   1      43.983  23.179   2.796  0.00  0.00     0.240 P 
HETATM   11  O   UNK N   1      42.613  23.633   2.231  0.00  0.00    -0.653 OA
BRANCH  10  12
HETATM   12  O   UNK N   1      44.818  24.698   2.898  0.00  0.00    -0.329 OA
HETATM   13  H   UNK N   1      45.009  25.142   3.740  0.00  0.00     0.220 HD
ENDBRANCH  10  12
BRANCH  10  14
HETATM   14  O   UNK N   1      43.528  23.817   4.342  0.00  0.00    -0.329 OA
HETATM   15  H   UNK N   1      42.763  24.001   4.909  0.00  0.00     0.220 HD
ENDBRANCH  10  14
ENDBRANCH   9  10
ENDBRANCH   1   9
TORSDOF 6
ENDMDL
MODEL 6
REMARK VINA RESULT:      -4.7     16.266     17.185
REMARK  6 active torsions:
REMARK  status: ('A' for Active; 'I' for Inactive)
REMARK    1  A    between atoms: O_1  and  C_2 
REMARK    2  A    between atoms: C_2  and  C_4 
REMARK    3  A    between atoms: C_4  and  C_5 
REMARK    4  A    between atoms: C_5  and  P_6 
REMARK    5  A    between atoms: P_6  and  O_7 
REMARK    6  A    between atoms: P_6  and  O_8 
ROOT
HETATM    1  C   UNK N   1      35.321  14.602  11.542  0.00  0.00     0.059 C 
HETATM    2  C   UNK N   1      35.528  14.055  12.766  0.00  0.00     0.117 C 
HETATM    3 Cl   UNK N   1      36.514  14.807  14.019  0.00  0.00    -0.070 Cl
HETATM    4 Cl   UNK N   1      34.817  12.490  13.179  0.00  0.00    -0.070 Cl
ENDROOT
BRANCH   1   5
HETATM    5  C   UNK N   1      35.918  15.911  11.111  0.00  0.00     0.175 C 
HETATM    6  O   UNK N   1      35.247  16.927  11.140  0.00  0.00    -0.646 OA
BRANCH   5   7
HETATM    7  O   UNK N   1      37.194  15.995  10.685  0.00  0.00    -0.773 OA
HETATM    8  H   UNK N   1      37.512  15.572   9.911  0.00  0.00     0.167 HD
ENDBRANCH   5   7
ENDBRANCH   1   5
BRANCH   1   9
HETATM    9  C   UNK N   1      34.473  13.821  10.567  0.00  0.00     0.173 C 
BRANCH   9  10
HETATM   10  P   UNK N   1      33.550  14.886   9.350  0.00  0.00     0.240 P 
HETATM   11  O   UNK N   1      32.375  13.985   8.891  0.00  0.00    -0.653 OA
BRANCH  10  12
HETATM   12  O   UNK N   1      32.764  16.431   9.445  0.00  0.00    -0.329 OA
HETATM   13  H   UNK N   1      31.807  16.546   9.329  0.00  0.00     0.220 HD
ENDBRANCH  10  12
BRANCH  10  14
HETATM   14  O   UNK N   1      32.867  14.923  10.942  0.00  0.00    -0.329 OA
HETATM   15  H   UNK N   1      32.834  15.445  11.759  0.00  0.00     0.220 HD
ENDBRANCH  10  14
ENDBRANCH   9  10
ENDBRANCH   1   9
TORSDOF 6
ENDMDL
MODEL 7
REMARK VINA RESULT:      -4.5     10.100     11.130
REMARK  6 active torsions:
REMARK  status: ('A' for Active; 'I' for Inactive)
REMARK    1  A    between atoms: O_1  and  C_2 
REMARK    2  A    between atoms: C_2  and  C_4 
REMARK    3  A    between atoms: C_4  and  C_5 
REMARK    4  A    between atoms: C_5  and  P_6 
REMARK    5  A    between atoms: P_6  and  O_7 
REMARK    6  A    between atoms: P_6  and  O_8 
ROOT
HETATM    1  C   UNK N   1      29.361  23.264  -3.521  0.00  0.00     0.059 C 
HETATM    2  C   UNK N   1      29.867  22.366  -4.403  0.00  0.00     0.117 C 
HETATM    3 Cl   UNK N   1      30.625  20.847  -3.927  0.00  0.00    -0.070 Cl
HETATM    4 Cl   UNK N   1      29.817  22.692  -6.140  0.00  0.00    -0.070 Cl
ENDROOT
BRANCH   1   5
HETATM    5  C   UNK N   1      29.397  23.068  -2.032  0.00  0.00     0.175 C 
HETATM    6  O   UNK N   1      30.465  23.036  -1.447  0.00  0.00    -0.646 OA
BRANCH   5   7
HETATM    7  O   UNK N   1      28.266  22.922  -1.315  0.00  0.00    -0.773 OA
HETATM    8  H   UNK N   1      27.879  23.611  -0.811  0.00  0.00     0.167 HD
ENDBRANCH   5   7
ENDBRANCH   1   5
BRANCH   1   9
HETATM    9  C   UNK N   1      28.768  24.532  -4.085  0.00  0.00     0.173 C 
BRANCH   9  10
HETATM   10  P   UNK N   1      26.941  24.422  -4.430  0.00  0.00     0.240 P 
HETATM   11  O   UNK N   1      26.331  24.040  -3.058  0.00  0.00    -0.653 OA
BRANCH  10  12
HETATM   12  O   UNK N   1      25.751  25.539  -5.022  0.00  0.00    -0.329 OA
HETATM   13  H   UNK N   1      24.835  25.284  -5.214  0.00  0.00     0.220 HD
ENDBRANCH  10  12
BRANCH  10  14
HETATM   14  O   UNK N   1      27.417  25.950  -3.765  0.00  0.00    -0.329 OA
HETATM   15  H   UNK N   1      27.591  26.410  -2.929  0.00  0.00     0.220 HD
ENDBRANCH  10  14
ENDBRANCH   9  10
ENDBRANCH   1   9
TORSDOF 6
ENDMDL
MODEL 8
REMARK VINA RESULT:      -4.4     14.272     15.068
REMARK  6 active torsions:
REMARK  status: ('A' for Active; 'I' for Inactive)
REMARK    1  A    between atoms: O_1  and  C_2 
REMARK    2  A    between atoms: C_2  and  C_4 
REMARK    3  A    between atoms: C_4  and  C_5 
REMARK    4  A    between atoms: C_5  and  P_6 
REMARK    5  A    between atoms: P_6  and  O_7 
REMARK    6  A    between atoms: P_6  and  O_8 
ROOT
HETATM    1  C   UNK N   1      34.343  16.859   7.475  0.00  0.00     0.059 C 
HETATM    2  C   UNK N   1      34.083  16.531   6.184  0.00  0.00     0.117 C 
HETATM    3 Cl   UNK N   1      33.372  17.644   5.016  0.00  0.00    -0.070 Cl
HETATM    4 Cl   UNK N   1      34.429  14.904   5.587  0.00  0.00    -0.070 Cl
ENDROOT
BRANCH   1   5
HETATM    5  C   UNK N   1      34.046  18.210   8.059  0.00  0.00     0.175 C 
HETATM    6  O   UNK N   1      32.896  18.533   8.296  0.00  0.00    -0.646 OA
BRANCH   5   7
HETATM    7  O   UNK N   1      35.030  19.090   8.330  0.00  0.00    -0.773 OA
HETATM    8  H   UNK N   1      35.038  19.973   8.016  0.00  0.00     0.167 HD
ENDBRANCH   5   7
ENDBRANCH   1   5
BRANCH   1   9
HETATM    9  C   UNK N   1      34.928  15.784   8.359  0.00  0.00     0.173 C 
BRANCH   9  10
HETATM   10  P   UNK N   1      33.670  14.918   9.425  0.00  0.00     0.240 P 
HETATM   11  O   UNK N   1      34.082  13.427   9.341  0.00  0.00    -0.653 OA
BRANCH  10  12
HETATM   12  O   UNK N   1      33.209  15.040  11.095  0.00  0.00    -0.329 OA
HETATM   13  H   UNK N   1      33.842  15.230  11.806  0.00  0.00     0.220 HD
ENDBRANCH  10  12
BRANCH  10  14
HETATM   14  O   UNK N   1      35.153  15.255  10.257  0.00  0.00    -0.329 OA
HETATM   15  H   UNK N   1      36.092  15.454  10.116  0.00  0.00     0.220 HD
ENDBRANCH  10  14
ENDBRANCH   9  10
ENDBRANCH   1   9
TORSDOF 6
ENDMDL
MODEL 9
REMARK VINA RESULT:      -4.4     10.342     11.809
REMARK  6 active torsions:
REMARK  status: ('A' for Active; 'I' for Inactive)
REMARK    1  A    between atoms: O_1  and  C_2 
REMARK    2  A    between atoms: C_2  and  C_4 
REMARK    3  A    between atoms: C_4  and  C_5 
REMARK    4  A    between atoms: C_5  and  P_6 
REMARK    5  A    between atoms: P_6  and  O_7 
REMARK    6  A    between atoms: P_6  and  O_8 
ROOT
HETATM    1  C   UNK N   1      26.950  25.256  -4.792  0.00  0.00     0.059 C 
HETATM    2  C   UNK N   1      26.209  24.849  -5.853  0.00  0.00     0.117 C 
HETATM    3 Cl   UNK N   1      25.747  23.172  -6.139  0.00  0.00    -0.070 Cl
HETATM    4 Cl   UNK N   1      25.669  26.015  -7.067  0.00  0.00    -0.070 Cl
ENDROOT
BRANCH   1   5
HETATM    5  C   UNK N   1      27.469  24.318  -3.739  0.00  0.00     0.175 C 
HETATM    6  O   UNK N   1      28.512  23.715  -3.921  0.00  0.00    -0.646 OA
BRANCH   5   7
HETATM    7  O   UNK N   1      26.802  24.119  -2.585  0.00  0.00    -0.773 OA
HETATM    8  H   UNK N   1      26.022  24.582  -2.350  0.00  0.00     0.167 HD
ENDBRANCH   5   7
ENDBRANCH   1   5
BRANCH   1   9
HETATM    9  C   UNK N   1      27.286  26.725  -4.703  0.00  0.00     0.173 C 
BRANCH   9  10
HETATM   10  P   UNK N   1      26.029  27.730  -3.764  0.00  0.00     0.240 P 
HETATM   11  O   UNK N   1      25.971  27.042  -2.377  0.00  0.00    -0.653 OA
BRANCH  10  12
HETATM   12  O   UNK N   1      25.912  29.402  -3.311  0.00  0.00    -0.329 OA
HETATM   13  H   UNK N   1      25.067  29.840  -3.120  0.00  0.00     0.220 HD
ENDBRANCH  10  12
BRANCH  10  14
HETATM   14  O   UNK N   1      27.664  28.202  -3.434  0.00  0.00    -0.329 OA
HETATM   15  H   UNK N   1      28.319  28.897  -3.604  0.00  0.00     0.220 HD
ENDBRANCH  10  14
ENDBRANCH   9  10
ENDBRANCH   1   9
TORSDOF 6
ENDMDL
