MODEL 1
REMARK VINA RESULT:      -5.6      0.000      0.000
REMARK  14 active torsions:
REMARK  status: ('A' for Active; 'I' for Inactive)
REMARK    1  A    between atoms: C_3  and  C_1 
REMARK    2  A    between atoms: N_10  and  C_1 
REMARK    3  A    between atoms: C_4  and  C_2 
REMARK    4  A    between atoms: O_17  and  C_2 
REMARK    5  A    between atoms: C_6  and  C_3 
REMARK    6  A    between atoms: C_3  and  O_18 
REMARK    7  A    between atoms: C_6  and  C_4 
REMARK    8  A    between atoms: C_4  and  O_19 
REMARK    9  A    between atoms: N_15  and  C_5 
REMARK   10  A    between atoms: C_6  and  O_20 
REMARK   11  A    between atoms: N_10  and  C_7 
REMARK   12  A    between atoms: O_21  and  C_8 
REMARK   13  A    between atoms: O_22  and  C_9 
REMARK   14  A    between atoms: O_23  and  N_15 
ROOT
HETATM    1  C   UNK N   1      34.373  16.988   9.350  0.00  0.00     0.148 A 
HETATM    2  C   UNK N   1      33.536  15.885   9.056  0.00  0.00     0.137 A 
HETATM    3  C   UNK N   1      34.459  18.025   8.396  0.00  0.00     0.176 A 
HETATM    4  C   UNK N   1      32.951  16.879   6.984  0.00  0.00     0.224 A 
HETATM    5  N   UNK N   1      32.860  15.861   7.878  0.00  0.00    -0.306 N 
ATOM      6  HN  UNK N   1      32.269  15.059   7.659  1.00  0.00     0.171 HD
HETATM    7  N   UNK N   1      33.745  17.947   7.246  0.00  0.00    -0.301 N 
ATOM      8  HN  UNK N   1      33.805  18.705   6.566  1.00  0.00     0.171 HD
ENDROOT
BRANCH   2   9
HETATM    9  N   UNK N   1      33.366  14.799   9.959  0.00  0.00    -0.372 N 
HETATM   10  H   UNK N   1      32.760  14.912  10.728  0.00  0.00     0.161 HD
BRANCH   9  11
HETATM   11  C   UNK N   1      34.050  13.538   9.792  0.00  0.00     0.155 C 
BRANCH  11  12
HETATM   12  C   UNK N   1      35.257  13.362  10.717  0.00  0.00     0.167 C 
BRANCH  12  13
HETATM   13  C   UNK N   1      34.960  13.748  12.183  0.00  0.00     0.179 C 
BRANCH  13  14
HETATM   14  C   UNK N   1      36.264  14.077  12.941  0.00  0.00     0.173 C 
BRANCH  14  15
HETATM   15  C   UNK N   1      36.195  13.590  14.384  0.00  0.00     0.198 C 
BRANCH  15  16
HETATM   16  O   UNK N   1      37.299  14.056  15.101  0.00  0.00    -0.398 OA
HETATM   17  H   UNK N   1      37.706  13.506  15.789  0.00  0.00     0.209 HD
ENDBRANCH  15  16
ENDBRANCH  14  15
BRANCH  14  18
HETATM   18  O   UNK N   1      36.509  15.453  12.934  0.00  0.00    -0.391 OA
HETATM   19  H   UNK N   1      37.291  15.818  13.375  0.00  0.00     0.210 HD
ENDBRANCH  14  18
ENDBRANCH  13  14
BRANCH  13  20
HETATM   20  O   UNK N   1      34.343  12.665  12.819  0.00  0.00    -0.390 OA
HETATM   21  H   UNK N   1      34.116  12.711  13.760  0.00  0.00     0.210 HD
ENDBRANCH  13  20
ENDBRANCH  12  13
BRANCH  12  22
HETATM   22  O   UNK N   1      36.356  14.069  10.220  0.00  0.00    -0.391 OA
HETATM   23  H   UNK N   1      37.254  13.860  10.520  0.00  0.00     0.210 HD
ENDBRANCH  12  22
ENDBRANCH  11  12
ENDBRANCH   9  11
ENDBRANCH   2   9
BRANCH   1  24
HETATM   24  N   UNK N   1      35.116  17.020  10.564  0.00  0.00    -0.261 N 
ATOM     25  HN  UNK N   1      34.617  17.147  11.445  1.00  0.00     0.194 HD
BRANCH  24  26
HETATM   26  O   UNK N   1      36.304  16.903  10.583  0.00  0.00    -0.289 OA
ATOM     27  HO  UNK N   1      36.886  17.643  10.452  1.00  0.00     0.244 HD
ENDBRANCH  24  26
ENDBRANCH   1  24
BRANCH   3  28
HETATM   28  O   UNK N   1      35.243  19.097   8.608  0.00  0.00    -0.344 OA
HETATM   29  H   UNK N   1      36.173  19.002   8.675  0.00  0.00     0.219 HD
ENDBRANCH   3  28
BRANCH   4  30
HETATM   30  O   UNK N   1      32.251  16.833   5.840  0.00  0.00    -0.332 OA
HETATM   31  H   UNK N   1      31.972  16.013   5.480  0.00  0.00     0.221 HD
ENDBRANCH   4  30
TORSDOF 14
ENDMDL
MODEL 2
REMARK VINA RESULT:      -5.5     14.458     15.962
REMARK  14 active torsions:
REMARK  status: ('A' for Active; 'I' for Inactive)
REMARK    1  A    between atoms: C_3  and  C_1 
REMARK    2  A    between atoms: N_10  and  C_1 
REMARK    3  A    between atoms: C_4  and  C_2 
REMARK    4  A    between atoms: O_17  and  C_2 
REMARK    5  A    between atoms: C_6  and  C_3 
REMARK    6  A    between atoms: C_3  and  O_18 
REMARK    7  A    between atoms: C_6  and  C_4 
REMARK    8  A    between atoms: C_4  and  O_19 
REMARK    9  A    between atoms: N_15  and  C_5 
REMARK   10  A    between atoms: C_6  and  O_20 
REMARK   11  A    between atoms: N_10  and  C_7 
REMARK   12  A    between atoms: O_21  and  C_8 
REMARK   13  A    between atoms: O_22  and  C_9 
REMARK   14  A    between atoms: O_23  and  N_15 
ROOT
HETATM    1  C   UNK N   1      20.378  18.979   2.190  0.00  0.00     0.148 A 
HETATM    2  C   UNK N   1      21.009  18.627   3.406  0.00  0.00     0.137 A 
HETATM    3  C   UNK N   1      20.983  19.976   1.396  0.00  0.00     0.176 A 
HETATM    4  C   UNK N   1      22.725  20.207   2.976  0.00  0.00     0.224 A 
HETATM    5  N   UNK N   1      22.157  19.260   3.765  0.00  0.00    -0.306 N 
ATOM      6  HN  UNK N   1      22.604  19.017   4.651  1.00  0.00     0.171 HD
HETATM    7  N   UNK N   1      22.138  20.558   1.804  0.00  0.00    -0.301 N 
ATOM      8  HN  UNK N   1      22.575  21.271   1.220  1.00  0.00     0.171 HD
ENDROOT
BRANCH   2   9
HETATM    9  N   UNK N   1      20.491  17.620   4.268  0.00  0.00    -0.372 N 
HETATM   10  H   UNK N   1      19.533  17.396   4.213  0.00  0.00     0.161 HD
BRANCH   9  11
HETATM   11  C   UNK N   1      21.316  16.916   5.222  0.00  0.00     0.155 C 
BRANCH  11  12
HETATM   12  C   UNK N   1      21.063  17.322   6.676  0.00  0.00     0.167 C 
BRANCH  12  13
HETATM   13  C   UNK N   1      19.659  16.923   7.182  0.00  0.00     0.179 C 
BRANCH  13  14
HETATM   14  C   UNK N   1      19.586  16.997   8.722  0.00  0.00     0.173 C 
BRANCH  14  15
HETATM   15  C   UNK N   1      18.168  16.734   9.216  0.00  0.00     0.198 C 
BRANCH  15  16
HETATM   16  O   UNK N   1      17.276  16.740   8.141  0.00  0.00    -0.398 OA
HETATM   17  H   UNK N   1      17.208  15.970   7.556  0.00  0.00     0.209 HD
ENDBRANCH  15  16
ENDBRANCH  14  15
BRANCH  14  18
HETATM   18  O   UNK N   1      20.006  18.248   9.180  0.00  0.00    -0.391 OA
HETATM   19  H   UNK N   1      20.046  19.007   8.578  0.00  0.00     0.210 HD
ENDBRANCH  14  18
ENDBRANCH  13  14
BRANCH  13  20
HETATM   20  O   UNK N   1      19.396  15.605   6.792  0.00  0.00    -0.390 OA
HETATM   21  H   UNK N   1      20.109  14.948   6.765  0.00  0.00     0.210 HD
ENDBRANCH  13  20
ENDBRANCH  12  13
BRANCH  12  22
HETATM   22  O   UNK N   1      21.293  18.690   6.845  0.00  0.00    -0.391 OA
HETATM   23  H   UNK N   1      20.754  19.344   6.373  0.00  0.00     0.210 HD
ENDBRANCH  12  22
ENDBRANCH  11  12
ENDBRANCH   9  11
ENDBRANCH   2   9
BRANCH   1  24
HETATM   24  N   UNK N   1      19.158  18.352   1.808  0.00  0.00    -0.261 N 
ATOM     25  HN  UNK N   1      19.183  17.604   1.115  1.00  0.00     0.194 HD
BRANCH  24  26
HETATM   26  O   UNK N   1      18.107  18.676   2.273  0.00  0.00    -0.289 OA
ATOM     27  HO  UNK N   1      18.043  19.279   3.004  1.00  0.00     0.244 HD
ENDBRANCH  24  26
ENDBRANCH   1  24
BRANCH   3  28
HETATM   28  O   UNK N   1      20.432  20.365   0.233  0.00  0.00    -0.344 OA
HETATM   29  H   UNK N   1      20.938  20.833  -0.402  0.00  0.00     0.219 HD
ENDBRANCH   3  28
BRANCH   4  30
HETATM   30  O   UNK N   1      23.872  20.795   3.351  0.00  0.00    -0.332 OA
HETATM   31  H   UNK N   1      24.700  20.410   3.140  0.00  0.00     0.221 HD
ENDBRANCH   4  30
TORSDOF 14
ENDMDL
MODEL 3
REMARK VINA RESULT:      -5.4      2.695      7.084
REMARK  14 active torsions:
REMARK  status: ('A' for Active; 'I' for Inactive)
REMARK    1  A    between atoms: C_3  and  C_1 
REMARK    2  A    between atoms: N_10  and  C_1 
REMARK    3  A    between atoms: C_4  and  C_2 
REMARK    4  A    between atoms: O_17  and  C_2 
REMARK    5  A    between atoms: C_6  and  C_3 
REMARK    6  A    between atoms: C_3  and  O_18 
REMARK    7  A    between atoms: C_6  and  C_4 
REMARK    8  A    between atoms: C_4  and  O_19 
REMARK    9  A    between atoms: N_15  and  C_5 
REMARK   10  A    between atoms: C_6  and  O_20 
REMARK   11  A    between atoms: N_10  and  C_7 
REMARK   12  A    between atoms: O_21  and  C_8 
REMARK   13  A    between atoms: O_22  and  C_9 
REMARK   14  A    between atoms: O_23  and  N_15 
ROOT
HETATM    1  C   UNK N   1      35.395  13.369  13.601  0.00  0.00     0.148 A 
HETATM    2  C   UNK N   1      36.278  14.409  13.227  0.00  0.00     0.137 A 
HETATM    3  C   UNK N   1      35.339  13.009  14.965  0.00  0.00     0.176 A 
HETATM    4  C   UNK N   1      36.953  14.654  15.487  0.00  0.00     0.224 A 
HETATM    5  N   UNK N   1      37.037  15.011  14.180  0.00  0.00    -0.306 N 
ATOM      6  HN  UNK N   1      37.686  15.750  13.908  1.00  0.00     0.171 HD
HETATM    7  N   UNK N   1      36.111  13.661  15.869  0.00  0.00    -0.301 N 
ATOM      8  HN  UNK N   1      36.057  13.402  16.854  1.00  0.00     0.171 HD
ENDROOT
BRANCH   2   9
HETATM    9  N   UNK N   1      36.395  14.859  11.882  0.00  0.00    -0.372 N 
HETATM   10  H   UNK N   1      37.011  14.388  11.276  0.00  0.00     0.161 HD
BRANCH   9  11
HETATM   11  C   UNK N   1      35.645  15.984  11.374  0.00  0.00     0.155 C 
BRANCH  11  12
HETATM   12  C   UNK N   1      34.551  15.597  10.375  0.00  0.00     0.167 C 
BRANCH  12  13
HETATM   13  C   UNK N   1      34.093  16.778   9.490  0.00  0.00     0.179 C 
BRANCH  13  14
HETATM   14  C   UNK N   1      33.781  16.302   8.055  0.00  0.00     0.173 C 
BRANCH  14  15
HETATM   15  C   UNK N   1      33.326  17.465   7.180  0.00  0.00     0.198 C 
BRANCH  15  16
HETATM   16  O   UNK N   1      34.426  18.049   6.548  0.00  0.00    -0.398 OA
HETATM   17  H   UNK N   1      34.441  18.151   5.583  0.00  0.00     0.209 HD
ENDBRANCH  15  16
ENDBRANCH  14  15
BRANCH  14  18
HETATM   18  O   UNK N   1      32.789  15.319   8.062  0.00  0.00    -0.391 OA
HETATM   19  H   UNK N   1      32.429  14.973   7.230  0.00  0.00     0.210 HD
ENDBRANCH  14  18
ENDBRANCH  13  14
BRANCH  13  20
HETATM   20  O   UNK N   1      35.124  17.722   9.427  0.00  0.00    -0.390 OA
HETATM   21  H   UNK N   1      35.710  17.759   8.655  0.00  0.00     0.210 HD
ENDBRANCH  13  20
ENDBRANCH  12  13
BRANCH  12  22
HETATM   22  O   UNK N   1      33.469  15.014  11.041  0.00  0.00    -0.391 OA
HETATM   23  H   UNK N   1      33.614  14.429  11.801  0.00  0.00     0.210 HD
ENDBRANCH  12  22
ENDBRANCH  11  12
ENDBRANCH   9  11
ENDBRANCH   2   9
BRANCH   1  24
HETATM   24  N   UNK N   1      34.615  12.702  12.615  0.00  0.00    -0.261 N 
ATOM     25  HN  UNK N   1      33.631  12.514  12.809  1.00  0.00     0.194 HD
BRANCH  24  26
HETATM   26  O   UNK N   1      35.075  12.356  11.570  0.00  0.00    -0.289 OA
ATOM     27  HO  UNK N   1      34.958  11.474  11.235  1.00  0.00     0.244 HD
ENDBRANCH  24  26
ENDBRANCH   1  24
BRANCH   3  28
HETATM   28  O   UNK N   1      34.528  12.023  15.388  0.00  0.00    -0.344 OA
HETATM   29  H   UNK N   1      34.867  11.312  15.895  0.00  0.00     0.219 HD
ENDBRANCH   3  28
BRANCH   4  30
HETATM   30  O   UNK N   1      37.700  15.286  16.406  0.00  0.00    -0.332 OA
HETATM   31  H   UNK N   1      38.298  15.964  16.155  0.00  0.00     0.221 HD
ENDBRANCH   4  30
TORSDOF 14
ENDMDL
MODEL 4
REMARK VINA RESULT:      -5.4      2.248      6.194
REMARK  14 active torsions:
REMARK  status: ('A' for Active; 'I' for Inactive)
REMARK    1  A    between atoms: C_3  and  C_1 
REMARK    2  A    between atoms: N_10  and  C_1 
REMARK    3  A    between atoms: C_4  and  C_2 
REMARK    4  A    between atoms: O_17  and  C_2 
REMARK    5  A    between atoms: C_6  and  C_3 
REMARK    6  A    between atoms: C_3  and  O_18 
REMARK    7  A    between atoms: C_6  and  C_4 
REMARK    8  A    between atoms: C_4  and  O_19 
REMARK    9  A    between atoms: N_15  and  C_5 
REMARK   10  A    between atoms: C_6  and  O_20 
REMARK   11  A    between atoms: N_10  and  C_7 
REMARK   12  A    between atoms: O_21  and  C_8 
REMARK   13  A    between atoms: O_22  and  C_9 
REMARK   14  A    between atoms: O_23  and  N_15 
ROOT
HETATM    1  C   UNK N   1      34.933  15.730  10.501  0.00  0.00     0.148 A 
HETATM    2  C   UNK N   1      33.855  14.815  10.481  0.00  0.00     0.137 A 
HETATM    3  C   UNK N   1      36.229  15.221  10.737  0.00  0.00     0.176 A 
HETATM    4  C   UNK N   1      35.359  13.031  10.908  0.00  0.00     0.224 A 
HETATM    5  N   UNK N   1      34.101  13.495  10.696  0.00  0.00    -0.306 N 
ATOM      6  HN  UNK N   1      33.321  12.837  10.698  1.00  0.00     0.171 HD
HETATM    7  N   UNK N   1      36.408  13.891  10.928  0.00  0.00    -0.301 N 
ATOM      8  HN  UNK N   1      37.348  13.529  11.089  1.00  0.00     0.171 HD
ENDROOT
BRANCH   2   9
HETATM    9  N   UNK N   1      32.515  15.224  10.232  0.00  0.00    -0.372 N 
HETATM   10  H   UNK N   1      32.003  15.640  10.963  0.00  0.00     0.161 HD
BRANCH   9  11
HETATM   11  C   UNK N   1      31.878  15.049   8.948  0.00  0.00     0.155 C 
BRANCH  11  12
HETATM   12  C   UNK N   1      31.876  16.310   8.082  0.00  0.00     0.167 C 
BRANCH  12  13
HETATM   13  C   UNK N   1      32.713  16.162   6.792  0.00  0.00     0.179 C 
BRANCH  13  14
HETATM   14  C   UNK N   1      33.061  17.544   6.198  0.00  0.00     0.173 C 
BRANCH  14  15
HETATM   15  C   UNK N   1      33.035  17.507   4.674  0.00  0.00     0.198 C 
BRANCH  15  16
HETATM   16  O   UNK N   1      31.786  17.920   4.205  0.00  0.00    -0.398 OA
HETATM   17  H   UNK N   1      31.690  18.768   3.745  0.00  0.00     0.209 HD
ENDBRANCH  15  16
ENDBRANCH  14  15
BRANCH  14  18
HETATM   18  O   UNK N   1      34.323  17.964   6.624  0.00  0.00    -0.391 OA
HETATM   19  H   UNK N   1      34.808  18.648   6.136  0.00  0.00     0.210 HD
ENDBRANCH  14  18
ENDBRANCH  13  14
BRANCH  13  20
HETATM   20  O   UNK N   1      31.964  15.453   5.846  0.00  0.00    -0.390 OA
HETATM   21  H   UNK N   1      31.980  14.484   5.831  0.00  0.00     0.210 HD
ENDBRANCH  13  20
ENDBRANCH  12  13
BRANCH  12  22
HETATM   22  O   UNK N   1      32.292  17.415   8.831  0.00  0.00    -0.391 OA
HETATM   23  H   UNK N   1      32.041  18.314   8.567  0.00  0.00     0.210 HD
ENDBRANCH  12  22
ENDBRANCH  11  12
ENDBRANCH   9  11
ENDBRANCH   2   9
BRANCH   1  24
HETATM   24  N   UNK N   1      34.696  17.121  10.310  0.00  0.00    -0.261 N 
ATOM     25  HN  UNK N   1      34.082  17.610  10.961  1.00  0.00     0.194 HD
BRANCH  24  26
HETATM   26  O   UNK N   1      35.193  17.731   9.413  0.00  0.00    -0.289 OA
ATOM     27  HO  UNK N   1      35.685  17.302   8.722  1.00  0.00     0.244 HD
ENDBRANCH  24  26
ENDBRANCH   1  24
BRANCH   3  28
HETATM   28  O   UNK N   1      37.297  16.037  10.777  0.00  0.00    -0.344 OA
HETATM   29  H   UNK N   1      37.635  16.340  11.597  0.00  0.00     0.219 HD
ENDBRANCH   3  28
BRANCH   4  30
HETATM   30  O   UNK N   1      35.568  11.718  11.094  0.00  0.00    -0.332 OA
HETATM   31  H   UNK N   1      34.857  11.108  11.050  0.00  0.00     0.221 HD
ENDBRANCH   4  30
TORSDOF 14
ENDMDL
MODEL 5
REMARK VINA RESULT:      -5.4      3.666      5.337
REMARK  14 active torsions:
REMARK  status: ('A' for Active; 'I' for Inactive)
REMARK    1  A    between atoms: C_3  and  C_1 
REMARK    2  A    between atoms: N_10  and  C_1 
REMARK    3  A    between atoms: C_4  and  C_2 
REMARK    4  A    between atoms: O_17  and  C_2 
REMARK    5  A    between atoms: C_6  and  C_3 
REMARK    6  A    between atoms: C_3  and  O_18 
REMARK    7  A    between atoms: C_6  and  C_4 
REMARK    8  A    between atoms: C_4  and  O_19 
REMARK    9  A    between atoms: N_15  and  C_5 
REMARK   10  A    between atoms: C_6  and  O_20 
REMARK   11  A    between atoms: N_10  and  C_7 
REMARK   12  A    between atoms: O_21  and  C_8 
REMARK   13  A    between atoms: O_22  and  C_9 
REMARK   14  A    between atoms: O_23  and  N_15 
ROOT
HETATM    1  C   UNK N   1      29.326  17.463   8.237  0.00  0.00     0.148 A 
HETATM    2  C   UNK N   1      30.001  17.135   7.038  0.00  0.00     0.137 A 
HETATM    3  C   UNK N   1      28.071  18.101   8.137  0.00  0.00     0.176 A 
HETATM    4  C   UNK N   1      28.213  18.052   5.778  0.00  0.00     0.224 A 
HETATM    5  N   UNK N   1      29.428  17.450   5.847  0.00  0.00    -0.306 N 
ATOM      6  HN  UNK N   1      29.922  17.228   4.982  1.00  0.00     0.171 HD
HETATM    7  N   UNK N   1      27.547  18.372   6.916  0.00  0.00    -0.301 N 
ATOM      8  HN  UNK N   1      26.635  18.825   6.851  1.00  0.00     0.171 HD
ENDROOT
BRANCH   2   9
HETATM    9  N   UNK N   1      31.261  16.474   7.031  0.00  0.00    -0.372 N 
HETATM   10  H   UNK N   1      31.305  15.535   7.323  0.00  0.00     0.161 HD
BRANCH   9  11
HETATM   11  C   UNK N   1      32.478  17.131   6.615  0.00  0.00     0.155 C 
BRANCH  11  12
HETATM   12  C   UNK N   1      33.733  16.612   7.321  0.00  0.00     0.167 C 
BRANCH  12  13
HETATM   13  C   UNK N   1      33.986  17.291   8.686  0.00  0.00     0.179 C 
BRANCH  13  14
HETATM   14  C   UNK N   1      34.739  16.342   9.643  0.00  0.00     0.173 C 
BRANCH  14  15
HETATM   15  C   UNK N   1      33.959  15.050   9.858  0.00  0.00     0.198 C 
BRANCH  15  16
HETATM   16  O   UNK N   1      33.175  15.148  11.009  0.00  0.00    -0.398 OA
HETATM   17  H   UNK N   1      33.498  14.800  11.855  0.00  0.00     0.209 HD
ENDBRANCH  15  16
ENDBRANCH  14  15
BRANCH  14  18
HETATM   18  O   UNK N   1      34.958  16.955  10.879  0.00  0.00    -0.391 OA
HETATM   19  H   UNK N   1      35.771  17.457  11.045  0.00  0.00     0.210 HD
ENDBRANCH  14  18
ENDBRANCH  13  14
BRANCH  13  20
HETATM   20  O   UNK N   1      32.754  17.614   9.265  0.00  0.00    -0.390 OA
HETATM   21  H   UNK N   1      32.277  16.963   9.803  0.00  0.00     0.210 HD
ENDBRANCH  13  20
ENDBRANCH  12  13
BRANCH  12  22
HETATM   22  O   UNK N   1      34.846  16.730   6.483  0.00  0.00    -0.391 OA
HETATM   23  H   UNK N   1      34.814  16.405   5.570  0.00  0.00     0.210 HD
ENDBRANCH  12  22
ENDBRANCH  11  12
ENDBRANCH   9  11
ENDBRANCH   2   9
BRANCH   1  24
HETATM   24  N   UNK N   1      29.922  17.172   9.497  0.00  0.00    -0.261 N 
ATOM     25  HN  UNK N   1      30.328  16.249   9.650  1.00  0.00     0.194 HD
BRANCH  24  26
HETATM   26  O   UNK N   1      29.961  17.974  10.380  0.00  0.00    -0.289 OA
ATOM     27  HO  UNK N   1      30.765  18.419  10.623  1.00  0.00     0.244 HD
ENDBRANCH  24  26
ENDBRANCH   1  24
BRANCH   3  28
HETATM   28  O   UNK N   1      27.380  18.448   9.237  0.00  0.00    -0.344 OA
HETATM   29  H   UNK N   1      27.004  17.791   9.790  0.00  0.00     0.219 HD
ENDBRANCH   3  28
BRANCH   4  30
HETATM   30  O   UNK N   1      27.666  18.327   4.584  0.00  0.00    -0.332 OA
HETATM   31  H   UNK N   1      27.498  17.644   3.964  0.00  0.00     0.221 HD
ENDBRANCH   4  30
TORSDOF 14
ENDMDL
MODEL 6
REMARK VINA RESULT:      -5.4      4.649      7.061
REMARK  14 active torsions:
REMARK  status: ('A' for Active; 'I' for Inactive)
REMARK    1  A    between atoms: C_3  and  C_1 
REMARK    2  A    between atoms: N_10  and  C_1 
REMARK    3  A    between atoms: C_4  and  C_2 
REMARK    4  A    between atoms: O_17  and  C_2 
REMARK    5  A    between atoms: C_6  and  C_3 
REMARK    6  A    between atoms: C_3  and  O_18 
REMARK    7  A    between atoms: C_6  and  C_4 
REMARK    8  A    between atoms: C_4  and  O_19 
REMARK    9  A    between atoms: N_15  and  C_5 
REMARK   10  A    between atoms: C_6  and  O_20 
REMARK   11  A    between atoms: N_10  and  C_7 
REMARK   12  A    between atoms: O_21  and  C_8 
REMARK   13  A    between atoms: O_22  and  C_9 
REMARK   14  A    between atoms: O_23  and  N_15 
ROOT
HETATM    1  C   UNK N   1      27.847  19.055   7.580  0.00  0.00     0.148 A 
HETATM    2  C   UNK N   1      28.637  18.267   6.711  0.00  0.00     0.137 A 
HETATM    3  C   UNK N   1      27.100  20.112   7.018  0.00  0.00     0.176 A 
HETATM    4  C   UNK N   1      27.916  19.572   4.867  0.00  0.00     0.224 A 
HETATM    5  N   UNK N   1      28.655  18.557   5.384  0.00  0.00    -0.306 N 
ATOM      6  HN  UNK N   1      29.238  17.999   4.759  1.00  0.00     0.171 HD
HETATM    7  N   UNK N   1      27.149  20.339   5.682  0.00  0.00    -0.301 N 
ATOM      8  HN  UNK N   1      26.599  21.099   5.281  1.00  0.00     0.171 HD
ENDROOT
BRANCH   2   9
HETATM    9  N   UNK N   1      29.411  17.167   7.176  0.00  0.00    -0.372 N 
HETATM   10  H   UNK N   1      29.447  16.988   8.144  0.00  0.00     0.161 HD
BRANCH   9  11
HETATM   11  C   UNK N   1      30.148  16.305   6.282  0.00  0.00     0.155 C 
BRANCH  11  12
HETATM   12  C   UNK N   1      31.600  16.736   6.065  0.00  0.00     0.167 C 
BRANCH  12  13
HETATM   13  C   UNK N   1      32.255  17.323   7.334  0.00  0.00     0.179 C 
BRANCH  13  14
HETATM   14  C   UNK N   1      33.795  17.301   7.222  0.00  0.00     0.173 C 
BRANCH  14  15
HETATM   15  C   UNK N   1      34.438  18.100   8.350  0.00  0.00     0.198 C 
BRANCH  15  16
HETATM   16  O   UNK N   1      34.252  17.445   9.569  0.00  0.00    -0.398 OA
HETATM   17  H   UNK N   1      34.111  16.485   9.594  0.00  0.00     0.209 HD
ENDBRANCH  15  16
ENDBRANCH  14  15
BRANCH  14  18
HETATM   18  O   UNK N   1      34.210  17.825   5.995  0.00  0.00    -0.391 OA
HETATM   19  H   UNK N   1      35.115  17.681   5.677  0.00  0.00     0.210 HD
ENDBRANCH  14  18
ENDBRANCH  13  14
BRANCH  13  20
HETATM   20  O   UNK N   1      31.884  16.543   8.436  0.00  0.00    -0.390 OA
HETATM   21  H   UNK N   1      31.155  15.908   8.366  0.00  0.00     0.210 HD
ENDBRANCH  13  20
ENDBRANCH  12  13
BRANCH  12  22
HETATM   22  O   UNK N   1      31.688  17.627   4.991  0.00  0.00    -0.391 OA
HETATM   23  H   UNK N   1      32.377  18.309   4.970  0.00  0.00     0.210 HD
ENDBRANCH  12  22
ENDBRANCH  11  12
ENDBRANCH   9  11
ENDBRANCH   2   9
BRANCH   1  24
HETATM   24  N   UNK N   1      27.838  18.790   8.979  0.00  0.00    -0.261 N 
ATOM     25  HN  UNK N   1      28.210  19.494   9.617  1.00  0.00     0.194 HD
BRANCH  24  26
HETATM   26  O   UNK N   1      27.409  17.771   9.428  0.00  0.00    -0.289 OA
ATOM     27  HO  UNK N   1      27.918  16.968   9.434  1.00  0.00     0.244 HD
ENDBRANCH  24  26
ENDBRANCH   1  24
BRANCH   3  28
HETATM   28  O   UNK N   1      26.335  20.906   7.787  0.00  0.00    -0.344 OA
HETATM   29  H   UNK N   1      25.442  21.075   7.558  0.00  0.00     0.219 HD
ENDBRANCH   3  28
BRANCH   4  30
HETATM   30  O   UNK N   1      27.940  19.816   3.547  0.00  0.00    -0.332 OA
HETATM   31  H   UNK N   1      28.371  19.228   2.958  0.00  0.00     0.221 HD
ENDBRANCH   4  30
TORSDOF 14
ENDMDL
MODEL 7
REMARK VINA RESULT:      -5.4      4.600      7.101
REMARK  14 active torsions:
REMARK  status: ('A' for Active; 'I' for Inactive)
REMARK    1  A    between atoms: C_3  and  C_1 
REMARK    2  A    between atoms: N_10  and  C_1 
REMARK    3  A    between atoms: C_4  and  C_2 
REMARK    4  A    between atoms: O_17  and  C_2 
REMARK    5  A    between atoms: C_6  and  C_3 
REMARK    6  A    between atoms: C_3  and  O_18 
REMARK    7  A    between atoms: C_6  and  C_4 
REMARK    8  A    between atoms: C_4  and  O_19 
REMARK    9  A    between atoms: N_15  and  C_5 
REMARK   10  A    between atoms: C_6  and  O_20 
REMARK   11  A    between atoms: N_10  and  C_7 
REMARK   12  A    between atoms: O_21  and  C_8 
REMARK   13  A    between atoms: O_22  and  C_9 
REMARK   14  A    between atoms: O_23  and  N_15 
ROOT
HETATM    1  C   UNK N   1      28.089  18.559   7.275  0.00  0.00     0.148 A 
HETATM    2  C   UNK N   1      29.229  17.745   7.074  0.00  0.00     0.137 A 
HETATM    3  C   UNK N   1      27.386  19.005   6.134  0.00  0.00     0.176 A 
HETATM    4  C   UNK N   1      28.903  17.864   4.728  0.00  0.00     0.224 A 
HETATM    5  N   UNK N   1      29.605  17.432   5.806  0.00  0.00    -0.306 N 
ATOM      6  HN  UNK N   1      30.437  16.858   5.661  1.00  0.00     0.171 HD
HETATM    7  N   UNK N   1      27.805  18.643   4.897  0.00  0.00    -0.301 N 
ATOM      8  HN  UNK N   1      27.287  18.961   4.078  1.00  0.00     0.171 HD
ENDROOT
BRANCH   2   9
HETATM    9  N   UNK N   1      29.994  17.229   8.157  0.00  0.00    -0.372 N 
HETATM   10  H   UNK N   1      29.660  16.438   8.639  0.00  0.00     0.161 HD
BRANCH   9  11
HETATM   11  C   UNK N   1      31.241  17.824   8.577  0.00  0.00     0.155 C 
BRANCH  11  12
HETATM   12  C   UNK N   1      32.390  16.822   8.710  0.00  0.00     0.167 C 
BRANCH  12  13
HETATM   13  C   UNK N   1      32.961  16.369   7.348  0.00  0.00     0.179 C 
BRANCH  13  14
HETATM   14  C   UNK N   1      33.336  17.585   6.474  0.00  0.00     0.173 C 
BRANCH  14  15
HETATM   15  C   UNK N   1      33.399  17.201   5.000  0.00  0.00     0.198 C 
BRANCH  15  16
HETATM   16  O   UNK N   1      32.220  17.581   4.355  0.00  0.00    -0.398 OA
HETATM   17  H   UNK N   1      31.386  17.631   4.846  0.00  0.00     0.209 HD
ENDBRANCH  15  16
ENDBRANCH  14  15
BRANCH  14  18
HETATM   18  O   UNK N   1      34.570  18.113   6.863  0.00  0.00    -0.391 OA
HETATM   19  H   UNK N   1      35.372  17.570   6.834  0.00  0.00     0.210 HD
ENDBRANCH  14  18
ENDBRANCH  13  14
BRANCH  13  20
HETATM   20  O   UNK N   1      31.984  15.628   6.674  0.00  0.00    -0.390 OA
HETATM   21  H   UNK N   1      31.548  15.989   5.886  0.00  0.00     0.210 HD
ENDBRANCH  13  20
ENDBRANCH  12  13
BRANCH  12  22
HETATM   22  O   UNK N   1      31.993  15.727   9.483  0.00  0.00    -0.391 OA
HETATM   23  H   UNK N   1      31.099  15.360   9.397  0.00  0.00     0.210 HD
ENDBRANCH  12  22
ENDBRANCH  11  12
ENDBRANCH   9  11
ENDBRANCH   2   9
BRANCH   1  24
HETATM   24  N   UNK N   1      27.694  18.927   8.592  0.00  0.00    -0.261 N 
ATOM     25  HN  UNK N   1      27.642  19.917   8.833  1.00  0.00     0.194 HD
BRANCH  24  26
HETATM   26  O   UNK N   1      27.423  18.114   9.422  0.00  0.00    -0.289 OA
ATOM     27  HO  UNK N   1      28.093  17.638   9.900  1.00  0.00     0.244 HD
ENDBRANCH  24  26
ENDBRANCH   1  24
BRANCH   3  28
HETATM   28  O   UNK N   1      26.300  19.788   6.253  0.00  0.00    -0.344 OA
HETATM   29  H   UNK N   1      25.917  19.948   7.093  0.00  0.00     0.219 HD
ENDBRANCH   3  28
BRANCH   4  30
HETATM   30  O   UNK N   1      29.291  17.515   3.491  0.00  0.00    -0.332 OA
HETATM   31  H   UNK N   1      30.148  17.169   3.335  0.00  0.00     0.221 HD
ENDBRANCH   4  30
TORSDOF 14
ENDMDL
MODEL 8
REMARK VINA RESULT:      -5.2      2.117      3.732
REMARK  14 active torsions:
REMARK  status: ('A' for Active; 'I' for Inactive)
REMARK    1  A    between atoms: C_3  and  C_1 
REMARK    2  A    between atoms: N_10  and  C_1 
REMARK    3  A    between atoms: C_4  and  C_2 
REMARK    4  A    between atoms: O_17  and  C_2 
REMARK    5  A    between atoms: C_6  and  C_3 
REMARK    6  A    between atoms: C_3  and  O_18 
REMARK    7  A    between atoms: C_6  and  C_4 
REMARK    8  A    between atoms: C_4  and  O_19 
REMARK    9  A    between atoms: N_15  and  C_5 
REMARK   10  A    between atoms: C_6  and  O_20 
REMARK   11  A    between atoms: N_10  and  C_7 
REMARK   12  A    between atoms: O_21  and  C_8 
REMARK   13  A    between atoms: O_22  and  C_9 
REMARK   14  A    between atoms: O_23  and  N_15 
ROOT
HETATM    1  C   UNK N   1      32.347  17.037   6.837  0.00  0.00     0.148 A 
HETATM    2  C   UNK N   1      32.849  16.886   8.151  0.00  0.00     0.137 A 
HETATM    3  C   UNK N   1      30.949  17.141   6.671  0.00  0.00     0.176 A 
HETATM    4  C   UNK N   1      30.638  16.954   9.006  0.00  0.00     0.224 A 
HETATM    5  N   UNK N   1      31.978  16.839   9.193  0.00  0.00    -0.306 N 
ATOM      6  HN  UNK N   1      32.338  16.713  10.139  1.00  0.00     0.171 HD
HETATM    7  N   UNK N   1      30.135  17.103   7.755  0.00  0.00    -0.301 N 
ATOM      8  HN  UNK N   1      29.127  17.188   7.628  1.00  0.00     0.171 HD
ENDROOT
BRANCH   2   9
HETATM    9  N   UNK N   1      34.242  16.792   8.426  0.00  0.00    -0.372 N 
HETATM   10  H   UNK N   1      34.855  16.550   7.695  0.00  0.00     0.161 HD
BRANCH   9  11
HETATM   11  C   UNK N   1      34.790  17.037   9.740  0.00  0.00     0.155 C 
BRANCH  11  12
HETATM   12  C   UNK N   1      35.483  15.820  10.357  0.00  0.00     0.167 C 
BRANCH  12  13
HETATM   13  C   UNK N   1      34.670  15.174  11.500  0.00  0.00     0.179 C 
BRANCH  13  14
HETATM   14  C   UNK N   1      35.213  13.769  11.838  0.00  0.00     0.173 C 
BRANCH  14  15
HETATM   15  C   UNK N   1      35.198  12.866  10.609  0.00  0.00     0.198 C 
BRANCH  15  16
HETATM   16  O   UNK N   1      33.985  12.178  10.534  0.00  0.00    -0.398 OA
HETATM   17  H   UNK N   1      33.422  12.259   9.748  0.00  0.00     0.209 HD
ENDBRANCH  15  16
ENDBRANCH  14  15
BRANCH  14  18
HETATM   18  O   UNK N   1      34.458  13.174  12.852  0.00  0.00    -0.391 OA
HETATM   19  H   UNK N   1      33.668  12.653  12.640  0.00  0.00     0.210 HD
ENDBRANCH  14  18
ENDBRANCH  13  14
BRANCH  13  20
HETATM   20  O   UNK N   1      33.339  15.044  11.090  0.00  0.00    -0.390 OA
HETATM   21  H   UNK N   1      33.127  14.787  10.179  0.00  0.00     0.210 HD
ENDBRANCH  13  20
ENDBRANCH  12  13
BRANCH  12  22
HETATM   22  O   UNK N   1      36.772  16.158  10.781  0.00  0.00    -0.391 OA
HETATM   23  H   UNK N   1      37.192  15.682  11.514  0.00  0.00     0.210 HD
ENDBRANCH  12  22
ENDBRANCH  11  12
ENDBRANCH   9  11
ENDBRANCH   2   9
BRANCH   1  24
HETATM   24  N   UNK N   1      33.239  17.057   5.727  0.00  0.00    -0.261 N 
ATOM     25  HN  UNK N   1      33.063  16.430   4.942  1.00  0.00     0.194 HD
BRANCH  24  26
HETATM   26  O   UNK N   1      34.185  17.784   5.687  0.00  0.00    -0.289 OA
ATOM     27  HO  UNK N   1      35.044  17.479   5.417  1.00  0.00     0.244 HD
ENDBRANCH  24  26
ENDBRANCH   1  24
BRANCH   3  28
HETATM   28  O   UNK N   1      30.405  17.278   5.449  0.00  0.00    -0.344 OA
HETATM   29  H   UNK N   1      29.519  17.567   5.352  0.00  0.00     0.219 HD
ENDBRANCH   3  28
BRANCH   4  30
HETATM   30  O   UNK N   1      29.808  16.926  10.060  0.00  0.00    -0.332 OA
HETATM   31  H   UNK N   1      29.757  16.170  10.612  0.00  0.00     0.221 HD
ENDBRANCH   4  30
TORSDOF 14
ENDMDL
MODEL 9
REMARK VINA RESULT:      -5.2      5.207      9.107
REMARK  14 active torsions:
REMARK  status: ('A' for Active; 'I' for Inactive)
REMARK    1  A    between atoms: C_3  and  C_1 
REMARK    2  A    between atoms: N_10  and  C_1 
REMARK    3  A    between atoms: C_4  and  C_2 
REMARK    4  A    between atoms: O_17  and  C_2 
REMARK    5  A    between atoms: C_6  and  C_3 
REMARK    6  A    between atoms: C_3  and  O_18 
REMARK    7  A    between atoms: C_6  and  C_4 
REMARK    8  A    between atoms: C_4  and  O_19 
REMARK    9  A    between atoms: N_15  and  C_5 
REMARK   10  A    between atoms: C_6  and  O_20 
REMARK   11  A    between atoms: N_10  and  C_7 
REMARK   12  A    between atoms: O_21  and  C_8 
REMARK   13  A    between atoms: O_22  and  C_9 
REMARK   14  A    between atoms: O_23  and  N_15 
ROOT
HETATM    1  C   UNK N   1      29.260  17.552   8.289  0.00  0.00     0.148 A 
HETATM    2  C   UNK N   1      29.796  16.975   7.113  0.00  0.00     0.137 A 
HETATM    3  C   UNK N   1      30.161  18.116   9.218  0.00  0.00     0.176 A 
HETATM    4  C   UNK N   1      31.985  17.539   7.831  0.00  0.00     0.224 A 
HETATM    5  N   UNK N   1      31.142  16.978   6.927  0.00  0.00    -0.306 N 
ATOM      6  HN  UNK N   1      31.530  16.547   6.086  1.00  0.00     0.171 HD
HETATM    7  N   UNK N   1      31.492  18.101   8.964  0.00  0.00    -0.301 N 
ATOM      8  HN  UNK N   1      32.136  18.519   9.635  1.00  0.00     0.171 HD
ENDROOT
BRANCH   2   9
HETATM    9  N   UNK N   1      28.972  16.398   6.107  0.00  0.00    -0.372 N 
HETATM   10  H   UNK N   1      28.180  15.881   6.381  0.00  0.00     0.161 HD
BRANCH   9  11
HETATM   11  C   UNK N   1      29.256  16.540   4.698  0.00  0.00     0.155 C 
BRANCH  11  12
HETATM   12  C   UNK N   1      28.283  17.463   3.961  0.00  0.00     0.167 C 
BRANCH  12  13
HETATM   13  C   UNK N   1      28.047  18.804   4.691  0.00  0.00     0.179 C 
BRANCH  13  14
HETATM   14  C   UNK N   1      26.602  18.893   5.228  0.00  0.00     0.173 C 
BRANCH  14  15
HETATM   15  C   UNK N   1      26.342  20.248   5.875  0.00  0.00     0.198 C 
BRANCH  15  16
HETATM   16  O   UNK N   1      26.797  20.246   7.195  0.00  0.00    -0.398 OA
HETATM   17  H   UNK N   1      27.744  20.168   7.388  0.00  0.00     0.209 HD
ENDBRANCH  15  16
ENDBRANCH  14  15
BRANCH  14  18
HETATM   18  O   UNK N   1      26.357  17.884   6.163  0.00  0.00    -0.391 OA
HETATM   19  H   UNK N   1      26.972  17.141   6.262  0.00  0.00     0.210 HD
ENDBRANCH  14  18
ENDBRANCH  13  14
BRANCH  13  20
HETATM   20  O   UNK N   1      28.245  19.852   3.785  0.00  0.00    -0.390 OA
HETATM   21  H   UNK N   1      29.047  19.888   3.241  0.00  0.00     0.210 HD
ENDBRANCH  13  20
ENDBRANCH  12  13
BRANCH  12  22
HETATM   22  O   UNK N   1      27.076  16.801   3.715  0.00  0.00    -0.391 OA
HETATM   23  H   UNK N   1      26.802  16.054   4.269  0.00  0.00     0.210 HD
ENDBRANCH  12  22
ENDBRANCH  11  12
ENDBRANCH   9  11
ENDBRANCH   2   9
BRANCH   1  24
HETATM   24  N   UNK N   1      27.856  17.532   8.521  0.00  0.00    -0.261 N 
ATOM     25  HN  UNK N   1      27.298  16.783   8.109  1.00  0.00     0.194 HD
BRANCH  24  26
HETATM   26  O   UNK N   1      27.311  18.363   9.181  0.00  0.00    -0.289 OA
ATOM     27  HO  UNK N   1      27.008  19.184   8.810  1.00  0.00     0.244 HD
ENDBRANCH  24  26
ENDBRANCH   1  24
BRANCH   3  28
HETATM   28  O   UNK N   1      29.720  18.673  10.359  0.00  0.00    -0.344 OA
HETATM   29  H   UNK N   1      28.853  18.498  10.671  0.00  0.00     0.219 HD
ENDBRANCH   3  28
BRANCH   4  30
HETATM   30  O   UNK N   1      33.307  17.545   7.603  0.00  0.00    -0.332 OA
HETATM   31  H   UNK N   1      33.690  16.959   6.979  0.00  0.00     0.221 HD
ENDBRANCH   4  30
TORSDOF 14
ENDMDL
