REMARK  5 active torsions:
REMARK  status: ('A' for Active; 'I' for Inactive)
REMARK    1  A    between atoms: C_2  and  C_3 
REMARK    2  A    between atoms: C_3  and  C_4 
REMARK    3  A    between atoms: C_4  and  C_5 
REMARK    4  A    between atoms: C_4  and  C_8 
REMARK    5  A    between atoms: C_5  and  C_6 
REMARK       I    between atoms: C_8  and  N_9 
ROOT
HETATM    1  C   UNK N   1       3.837   1.669   0.010  0.00  0.00     0.077 C 
ENDROOT
BRANCH   1   2
HETATM    2  C   UNK N   1       2.689   2.571   0.451  0.00  0.00     0.013 C 
BRANCH   2   3
HETATM    3  C   UNK N   1       1.442   2.322  -0.383  0.00  0.00    -0.004 C 
HETATM    4  C   UNK N   1       0.351   3.289   0.027  0.00  0.00     0.005 C 
ENDBRANCH   2   3
ENDBRANCH   1   2
BRANCH   1   5
HETATM    5  C   UNK N   1       5.149   2.328  -0.416  0.00  0.00     0.013 C 
BRANCH   5   6
HETATM    6  C   UNK N   1       6.321   1.794   0.390  0.00  0.00    -0.004 C 
HETATM    7  C   UNK N   1       7.602   2.464  -0.060  0.00  0.00     0.005 C 
ENDBRANCH   5   6
ENDBRANCH   1   5
BRANCH   1   8
HETATM    8  C   UNK N   1       3.688   0.168   0.004  0.00  0.00     0.219 C 
HETATM    9  N   UNK N   1       4.709  -0.623  -0.363  0.00  0.00    -0.370 N 
HETATM   10  H   UNK N   1       4.582  -1.562  -0.632  0.00  0.00     0.159 HD
HETATM   11  H   UNK N   1       5.621  -0.251  -0.363  0.00  0.00     0.159 HD
HETATM   12  O   UNK N   1       2.623  -0.341   0.340  0.00  0.00    -0.273 OA
ENDBRANCH   1   8
TORSDOF 5
