MODEL 1
REMARK VINA RESULT:      -5.9      0.000      0.000
REMARK  3 active torsions:
REMARK  status: ('A' for Active; 'I' for Inactive)
REMARK    1  A    between atoms: C_7  and  N_11 
REMARK    2  A    between atoms: S_18  and  C_8 
REMARK    3  A    between atoms: S_18  and  N_10 
ROOT
HETATM    1  C   UNK N   1      33.586  14.719   3.774  0.00  0.00     0.026 C 
HETATM    2  C   UNK N   1      32.015  16.680   3.662  0.00  0.00     0.049 C 
HETATM    3  C   UNK N   1      29.668  17.152   6.644  0.00  0.00     0.044 A 
HETATM    4  C   UNK N   1      33.408  16.184   4.129  0.00  0.00     0.112 C 
HETATM    5  C   UNK N   1      30.818  16.728   5.918  0.00  0.00    -0.005 A 
HETATM    6  C   UNK N   1      30.826  16.149   4.510  0.00  0.00     0.112 C 
HETATM    7  C   UNK N   1      29.993  17.597   7.935  0.00  0.00     0.121 A 
HETATM    8  C   UNK N   1      32.000  16.841   6.639  0.00  0.00     0.110 A 
HETATM    9  O   UNK N   1      34.604  17.497   6.266  0.00  0.00    -0.222 OA
HETATM   10  O   UNK N   1      34.121  15.174   6.628  0.00  0.00    -0.222 OA
HETATM   11  S   UNK N   1      31.636  17.456   8.127  0.00  0.00    -0.064 SA
HETATM   12  S   UNK N   1      33.559  16.422   5.931  0.00  0.00     0.186 S 
ENDROOT
BRANCH   7  13
HETATM   13  S   UNK N   1      28.833  18.075   9.205  0.00  0.00     0.263 S 
HETATM   14  O   UNK N   1      29.493  18.833  10.367  0.00  0.00    -0.200 OA
HETATM   15  O   UNK N   1      28.231  16.857   9.919  0.00  0.00    -0.200 OA
BRANCH  13  16
HETATM   16  N   UNK N   1      27.448  19.063   8.740  0.00  0.00    -0.324 N 
HETATM   17  H   UNK N   1      26.462  18.823   8.847  0.00  0.00     0.169 HD
HETATM   18  H   UNK N   1      27.653  19.969   8.319  0.00  0.00     0.169 HD
ENDBRANCH  13  16
ENDBRANCH   7  13
BRANCH   6  19
HETATM   19  N   UNK N   1      29.540  16.334   3.824  0.00  0.00    -0.417 N 
HETATM   20  C   UNK N   1      29.554  15.713   2.504  0.00  0.00     0.140 C 
HETATM   21  H   UNK N   1      28.743  16.832   4.219  0.00  0.00     0.153 HD
ENDBRANCH   6  19
TORSDOF 3
ENDMDL
MODEL 2
REMARK VINA RESULT:      -5.9      6.335      7.666
REMARK  3 active torsions:
REMARK  status: ('A' for Active; 'I' for Inactive)
REMARK    1  A    between atoms: C_7  and  N_11 
REMARK    2  A    between atoms: S_18  and  C_8 
REMARK    3  A    between atoms: S_18  and  N_10 
ROOT
HETATM    1  C   UNK N   1      36.409  11.286  12.296  0.00  0.00     0.026 C 
HETATM    2  C   UNK N   1      37.704  12.775  10.737  0.00  0.00     0.049 C 
HETATM    3  C   UNK N   1      35.667  15.300   8.714  0.00  0.00     0.044 A 
HETATM    4  C   UNK N   1      37.125  12.618  12.167  0.00  0.00     0.112 C 
HETATM    5  C   UNK N   1      35.995  14.414   9.780  0.00  0.00    -0.005 A 
HETATM    6  C   UNK N   1      36.639  13.042   9.637  0.00  0.00     0.112 C 
HETATM    7  C   UNK N   1      35.043  16.470   9.173  0.00  0.00     0.121 A 
HETATM    8  C   UNK N   1      35.626  14.893  11.030  0.00  0.00     0.110 A 
HETATM    9  O   UNK N   1      36.528  14.930  13.587  0.00  0.00    -0.222 OA
HETATM   10  O   UNK N   1      34.659  13.496  13.126  0.00  0.00    -0.222 OA
HETATM   11  S   UNK N   1      34.923  16.372  10.826  0.00  0.00    -0.064 SA
HETATM   12  S   UNK N   1      35.974  13.991  12.504  0.00  0.00     0.186 S 
ENDROOT
BRANCH   7  13
HETATM   13  S   UNK N   1      34.351  17.763   8.154  0.00  0.00     0.263 S 
HETATM   14  O   UNK N   1      34.604  17.547   6.654  0.00  0.00    -0.200 OA
HETATM   15  O   UNK N   1      35.036  19.116   8.402  0.00  0.00    -0.200 OA
BRANCH  13  16
HETATM   16  N   UNK N   1      32.624  18.095   8.285  0.00  0.00    -0.324 N 
HETATM   17  H   UNK N   1      31.864  17.553   7.873  0.00  0.00     0.169 HD
HETATM   18  H   UNK N   1      32.356  18.915   8.829  0.00  0.00     0.169 HD
ENDBRANCH  13  16
ENDBRANCH   7  13
BRANCH   6  19
HETATM   19  N   UNK N   1      37.176  12.815   8.289  0.00  0.00    -0.417 N 
HETATM   20  C   UNK N   1      38.624  12.993   8.263  0.00  0.00     0.140 C 
HETATM   21  H   UNK N   1      36.611  12.566   7.478  0.00  0.00     0.153 HD
ENDBRANCH   6  19
TORSDOF 3
ENDMDL
MODEL 3
REMARK VINA RESULT:      -5.9      2.480      5.084
REMARK  3 active torsions:
REMARK  status: ('A' for Active; 'I' for Inactive)
REMARK    1  A    between atoms: C_7  and  N_11 
REMARK    2  A    between atoms: S_18  and  C_8 
REMARK    3  A    between atoms: S_18  and  N_10 
ROOT
HETATM    1  C   UNK N   1      26.724  17.833   5.472  0.00  0.00     0.026 C 
HETATM    2  C   UNK N   1      28.295  15.892   5.775  0.00  0.00     0.049 C 
HETATM    3  C   UNK N   1      31.936  16.758   6.560  0.00  0.00     0.044 A 
HETATM    4  C   UNK N   1      27.329  16.876   6.484  0.00  0.00     0.112 C 
HETATM    5  C   UNK N   1      30.522  16.920   6.487  0.00  0.00    -0.005 A 
HETATM    6  C   UNK N   1      29.636  16.528   5.313  0.00  0.00     0.112 C 
HETATM    7  C   UNK N   1      32.463  17.260   7.760  0.00  0.00     0.121 A 
HETATM    8  C   UNK N   1      29.978  17.536   7.606  0.00  0.00     0.110 A 
HETATM    9  O   UNK N   1      27.769  17.416   9.173  0.00  0.00    -0.222 OA
HETATM   10  O   UNK N   1      27.943  19.306   7.704  0.00  0.00    -0.222 OA
HETATM   11  S   UNK N   1      31.205  17.864   8.660  0.00  0.00    -0.064 SA
HETATM   12  S   UNK N   1      28.242  17.800   7.763  0.00  0.00     0.186 S 
ENDROOT
BRANCH   7  13
HETATM   13  S   UNK N   1      34.195  17.377   8.181  0.00  0.00     0.263 S 
HETATM   14  O   UNK N   1      34.831  18.705   7.743  0.00  0.00    -0.200 OA
HETATM   15  O   UNK N   1      35.041  16.350   7.414  0.00  0.00    -0.200 OA
BRANCH  13  16
HETATM   16  N   UNK N   1      34.658  17.181   9.871  0.00  0.00    -0.324 N 
HETATM   17  H   UNK N   1      34.675  16.311  10.403  0.00  0.00     0.169 HD
HETATM   18  H   UNK N   1      34.937  18.026  10.370  0.00  0.00     0.169 HD
ENDBRANCH  13  16
ENDBRANCH   7  13
BRANCH   6  19
HETATM   19  N   UNK N   1      30.339  15.679   4.342  0.00  0.00    -0.417 N 
HETATM   20  C   UNK N   1      30.423  16.329   3.038  0.00  0.00     0.140 C 
HETATM   21  H   UNK N   1      30.718  14.757   4.552  0.00  0.00     0.153 HD
ENDBRANCH   6  19
TORSDOF 3
ENDMDL
MODEL 4
REMARK VINA RESULT:      -5.7     12.281     14.228
REMARK  3 active torsions:
REMARK  status: ('A' for Active; 'I' for Inactive)
REMARK    1  A    between atoms: C_7  and  N_11 
REMARK    2  A    between atoms: S_18  and  C_8 
REMARK    3  A    between atoms: S_18  and  N_10 
ROOT
HETATM    1  C   UNK N   1      25.827  26.090  -6.664  0.00  0.00     0.026 C 
HETATM    2  C   UNK N   1      26.060  23.616  -6.273  0.00  0.00     0.049 C 
HETATM    3  C   UNK N   1      29.557  22.358  -5.373  0.00  0.00     0.044 A 
HETATM    4  C   UNK N   1      25.782  24.993  -5.616  0.00  0.00     0.112 C 
HETATM    5  C   UNK N   1      28.469  23.269  -5.499  0.00  0.00    -0.005 A 
HETATM    6  C   UNK N   1      27.538  23.392  -6.698  0.00  0.00     0.112 C 
HETATM    7  C   UNK N   1      30.248  22.526  -4.163  0.00  0.00     0.121 A 
HETATM    8  C   UNK N   1      28.332  24.121  -4.411  0.00  0.00     0.110 A 
HETATM    9  O   UNK N   1      26.392  25.290  -2.921  0.00  0.00    -0.222 OA
HETATM   10  O   UNK N   1      27.611  26.721  -4.415  0.00  0.00    -0.222 OA
HETATM   11  S   UNK N   1      29.515  23.753  -3.320  0.00  0.00    -0.064 SA
HETATM   12  S   UNK N   1      27.027  25.303  -4.320  0.00  0.00     0.186 S 
ENDROOT
BRANCH   7  13
HETATM   13  S   UNK N   1      31.748  21.684  -3.684  0.00  0.00     0.263 S 
HETATM   14  O   UNK N   1      32.066  21.826  -2.188  0.00  0.00    -0.200 OA
HETATM   15  O   UNK N   1      32.990  22.311  -4.335  0.00  0.00    -0.200 OA
BRANCH  13  16
HETATM   16  N   UNK N   1      31.879  19.958  -4.019  0.00  0.00    -0.324 N 
HETATM   17  H   UNK N   1      32.293  19.524  -4.845  0.00  0.00     0.169 HD
HETATM   18  H   UNK N   1      31.500  19.325  -3.315  0.00  0.00     0.169 HD
ENDBRANCH  13  16
ENDBRANCH   7  13
BRANCH   6  19
HETATM   19  N   UNK N   1      27.675  22.264  -7.628  0.00  0.00    -0.417 N 
HETATM   20  C   UNK N   1      26.387  21.621  -7.869  0.00  0.00     0.140 C 
HETATM   21  H   UNK N   1      28.555  21.969  -8.050  0.00  0.00     0.153 HD
ENDBRANCH   6  19
TORSDOF 3
ENDMDL
MODEL 5
REMARK VINA RESULT:      -5.6      5.898      7.477
REMARK  3 active torsions:
REMARK  status: ('A' for Active; 'I' for Inactive)
REMARK    1  A    between atoms: C_7  and  N_11 
REMARK    2  A    between atoms: S_18  and  C_8 
REMARK    3  A    between atoms: S_18  and  N_10 
ROOT
HETATM    1  C   UNK N   1      36.310  10.730  10.878  0.00  0.00     0.026 C 
HETATM    2  C   UNK N   1      35.205  12.705  11.976  0.00  0.00     0.049 C 
HETATM    3  C   UNK N   1      35.178  15.966   9.979  0.00  0.00     0.044 A 
HETATM    4  C   UNK N   1      35.003  11.484  11.042  0.00  0.00     0.112 C 
HETATM    5  C   UNK N   1      35.228  14.563  10.224  0.00  0.00    -0.005 A 
HETATM    6  C   UNK N   1      36.004  13.876  11.340  0.00  0.00     0.112 C 
HETATM    7  C   UNK N   1      34.410  16.276   8.846  0.00  0.00     0.121 A 
HETATM    8  C   UNK N   1      34.518  13.814   9.296  0.00  0.00     0.110 A 
HETATM    9  O   UNK N   1      32.949  11.606   9.175  0.00  0.00    -0.222 OA
HETATM   10  O   UNK N   1      35.160  11.407   8.260  0.00  0.00    -0.222 OA
HETATM   11  S   UNK N   1      33.838  14.854   8.209  0.00  0.00    -0.064 SA
HETATM   12  S   UNK N   1      34.396  12.060   9.422  0.00  0.00     0.186 S 
ENDROOT
BRANCH   7  13
HETATM   13  S   UNK N   1      34.213  17.896   8.121  0.00  0.00     0.263 S 
HETATM   14  O   UNK N   1      34.528  17.924   6.618  0.00  0.00    -0.200 OA
HETATM   15  O   UNK N   1      35.232  18.901   8.679  0.00  0.00    -0.200 OA
BRANCH  13  16
HETATM   16  N   UNK N   1      32.649  18.696   8.277  0.00  0.00    -0.324 N 
HETATM   17  H   UNK N   1      31.767  18.266   8.555  0.00  0.00     0.169 HD
HETATM   18  H   UNK N   1      32.623  19.694   8.067  0.00  0.00     0.169 HD
ENDBRANCH  13  16
ENDBRANCH   7  13
BRANCH   6  19
HETATM   19  N   UNK N   1      36.483  14.826  12.352  0.00  0.00    -0.417 N 
HETATM   20  C   UNK N   1      36.305  14.293  13.699  0.00  0.00     0.140 C 
HETATM   21  H   UNK N   1      36.887  15.737  12.142  0.00  0.00     0.153 HD
ENDBRANCH   6  19
TORSDOF 3
ENDMDL
MODEL 6
REMARK VINA RESULT:      -5.5     12.344     13.586
REMARK  3 active torsions:
REMARK  status: ('A' for Active; 'I' for Inactive)
REMARK    1  A    between atoms: C_7  and  N_11 
REMARK    2  A    between atoms: S_18  and  C_8 
REMARK    3  A    between atoms: S_18  and  N_10 
ROOT
HETATM    1  C   UNK N   1      32.535  21.383  -2.866  0.00  0.00     0.026 C 
HETATM    2  C   UNK N   1      32.093  22.203  -5.203  0.00  0.00     0.049 C 
HETATM    3  C   UNK N   1      28.423  22.519  -6.229  0.00  0.00     0.044 A 
HETATM    4  C   UNK N   1      32.289  22.614  -3.720  0.00  0.00     0.112 C 
HETATM    5  C   UNK N   1      29.558  22.462  -5.369  0.00  0.00    -0.005 A 
HETATM    6  C   UNK N   1      30.736  21.508  -5.503  0.00  0.00     0.112 C 
HETATM    7  C   UNK N   1      27.490  23.480  -5.808  0.00  0.00     0.121 A 
HETATM    8  C   UNK N   1      29.494  23.357  -4.309  0.00  0.00     0.110 A 
HETATM    9  O   UNK N   1      31.114  24.981  -2.863  0.00  0.00    -0.222 OA
HETATM   10  O   UNK N   1      30.332  22.991  -1.771  0.00  0.00    -0.222 OA
HETATM   11  S   UNK N   1      28.081  24.202  -4.435  0.00  0.00    -0.064 SA
HETATM   12  S   UNK N   1      30.806  23.502  -3.141  0.00  0.00     0.186 S 
ENDROOT
BRANCH   7  13
HETATM   13  S   UNK N   1      25.879  23.766  -6.524  0.00  0.00     0.263 S 
HETATM   14  O   UNK N   1      25.025  24.749  -5.711  0.00  0.00    -0.200 OA
HETATM   15  O   UNK N   1      25.012  22.499  -6.506  0.00  0.00    -0.200 OA
BRANCH  13  16
HETATM   16  N   UNK N   1      25.797  24.351  -8.186  0.00  0.00    -0.324 N 
HETATM   17  H   UNK N   1      26.517  24.259  -8.903  0.00  0.00     0.169 HD
HETATM   18  H   UNK N   1      24.942  24.834  -8.459  0.00  0.00     0.169 HD
ENDBRANCH  13  16
ENDBRANCH   7  13
BRANCH   6  19
HETATM   19  N   UNK N   1      30.750  20.819  -6.800  0.00  0.00    -0.417 N 
HETATM   20  C   UNK N   1      31.999  20.089  -6.995  0.00  0.00     0.140 C 
HETATM   21  H   UNK N   1      29.988  20.847  -7.476  0.00  0.00     0.153 HD
ENDBRANCH   6  19
TORSDOF 3
ENDMDL
MODEL 7
REMARK VINA RESULT:      -5.4     10.118     11.196
REMARK  3 active torsions:
REMARK  status: ('A' for Active; 'I' for Inactive)
REMARK    1  A    between atoms: C_7  and  N_11 
REMARK    2  A    between atoms: S_18  and  C_8 
REMARK    3  A    between atoms: S_18  and  N_10 
ROOT
HETATM    1  C   UNK N   1      20.491  12.498   4.065  0.00  0.00     0.026 C 
HETATM    2  C   UNK N   1      20.893  13.799   1.950  0.00  0.00     0.049 C 
HETATM    3  C   UNK N   1      20.369  17.581   2.154  0.00  0.00     0.044 A 
HETATM    4  C   UNK N   1      21.528  13.258   3.257  0.00  0.00     0.112 C 
HETATM    5  C   UNK N   1      20.643  16.256   2.600  0.00  0.00    -0.005 A 
HETATM    6  C   UNK N   1      19.919  14.993   2.153  0.00  0.00     0.112 C 
HETATM    7  C   UNK N   1      21.183  18.531   2.790  0.00  0.00     0.121 A 
HETATM    8  C   UNK N   1      21.643  16.192   3.561  0.00  0.00     0.110 A 
HETATM    9  O   UNK N   1      23.723  14.613   4.290  0.00  0.00    -0.222 OA
HETATM   10  O   UNK N   1      21.785  14.563   5.707  0.00  0.00    -0.222 OA
HETATM   11  S   UNK N   1      22.181  17.727   3.845  0.00  0.00    -0.064 SA
HETATM   12  S   UNK N   1      22.188  14.654   4.227  0.00  0.00     0.186 S 
ENDROOT
BRANCH   7  13
HETATM   13  S   UNK N   1      21.060  20.304   2.619  0.00  0.00     0.263 S 
HETATM   14  O   UNK N   1      22.406  21.021   2.806  0.00  0.00    -0.200 OA
HETATM   15  O   UNK N   1      20.208  20.929   3.732  0.00  0.00    -0.200 OA
BRANCH  13  16
HETATM   16  N   UNK N   1      20.398  20.953   1.118  0.00  0.00    -0.324 N 
HETATM   17  H   UNK N   1      20.908  21.134   0.253  0.00  0.00     0.169 HD
HETATM   18  H   UNK N   1      19.402  21.173   1.114  0.00  0.00     0.169 HD
ENDBRANCH  13  16
ENDBRANCH   7  13
BRANCH   6  19
HETATM   19  N   UNK N   1      19.078  15.221   0.971  0.00  0.00    -0.417 N 
HETATM   20  C   UNK N   1      18.616  13.958   0.403  0.00  0.00     0.140 C 
HETATM   21  H   UNK N   1      18.848  16.140   0.596  0.00  0.00     0.153 HD
ENDBRANCH   6  19
TORSDOF 3
ENDMDL
MODEL 8
REMARK VINA RESULT:      -5.4      7.089      8.634
REMARK  3 active torsions:
REMARK  status: ('A' for Active; 'I' for Inactive)
REMARK    1  A    between atoms: C_7  and  N_11 
REMARK    2  A    between atoms: S_18  and  C_8 
REMARK    3  A    between atoms: S_18  and  N_10 
ROOT
HETATM    1  C   UNK N   1      37.097  10.522  12.831  0.00  0.00     0.026 C 
HETATM    2  C   UNK N   1      35.678  12.466  13.563  0.00  0.00     0.049 C 
HETATM    3  C   UNK N   1      35.433  15.405  11.130  0.00  0.00     0.044 A 
HETATM    4  C   UNK N   1      35.700  11.117  12.799  0.00  0.00     0.112 C 
HETATM    5  C   UNK N   1      35.628  14.065  11.572  0.00  0.00    -0.005 A 
HETATM    6  C   UNK N   1      36.383  13.636  12.823  0.00  0.00     0.112 C 
HETATM    7  C   UNK N   1      34.732  15.462   9.915  0.00  0.00     0.121 A 
HETATM    8  C   UNK N   1      35.092  13.115  10.713  0.00  0.00     0.110 A 
HETATM    9  O   UNK N   1      33.812  10.727  10.799  0.00  0.00    -0.222 OA
HETATM   10  O   UNK N   1      36.100  10.696  10.072  0.00  0.00    -0.222 OA
HETATM   11  S   UNK N   1      34.388  13.907   9.447  0.00  0.00    -0.064 SA
HETATM   12  S   UNK N   1      35.169  11.392  11.077  0.00  0.00     0.186 S 
ENDROOT
BRANCH   7  13
HETATM   13  S   UNK N   1      34.407  16.934   8.957  0.00  0.00     0.263 S 
HETATM   14  O   UNK N   1      34.830  16.800   7.486  0.00  0.00    -0.200 OA
HETATM   15  O   UNK N   1      35.258  18.123   9.427  0.00  0.00    -0.200 OA
BRANCH  13  16
HETATM   16  N   UNK N   1      32.754  17.548   8.905  0.00  0.00    -0.324 N 
HETATM   17  H   UNK N   1      32.466  18.521   8.807  0.00  0.00     0.169 HD
HETATM   18  H   UNK N   1      32.007  16.857   8.983  0.00  0.00     0.169 HD
ENDBRANCH  13  16
ENDBRANCH   7  13
BRANCH   6  19
HETATM   19  N   UNK N   1      36.659  14.764  13.722  0.00  0.00    -0.417 N 
HETATM   20  C   UNK N   1      36.827  14.311  15.099  0.00  0.00     0.140 C 
HETATM   21  H   UNK N   1      36.725  15.736  13.423  0.00  0.00     0.153 HD
ENDBRANCH   6  19
TORSDOF 3
ENDMDL
MODEL 9
REMARK VINA RESULT:      -5.2     14.020     15.416
REMARK  3 active torsions:
REMARK  status: ('A' for Active; 'I' for Inactive)
REMARK    1  A    between atoms: C_7  and  N_11 
REMARK    2  A    between atoms: S_18  and  C_8 
REMARK    3  A    between atoms: S_18  and  N_10 
ROOT
HETATM    1  C   UNK N   1      26.571  30.233  -3.913  0.00  0.00     0.026 C 
HETATM    2  C   UNK N   1      28.262  29.099  -5.389  0.00  0.00     0.049 C 
HETATM    3  C   UNK N   1      30.047  26.060  -3.908  0.00  0.00     0.044 A 
HETATM    4  C   UNK N   1      26.778  29.139  -4.945  0.00  0.00     0.112 C 
HETATM    5  C   UNK N   1      29.025  27.033  -4.096  0.00  0.00    -0.005 A 
HETATM    6  C   UNK N   1      29.238  28.523  -4.325  0.00  0.00     0.112 C 
HETATM    7  C   UNK N   1      29.521  24.779  -3.676  0.00  0.00     0.121 A 
HETATM    8  C   UNK N   1      27.741  26.512  -4.005  0.00  0.00     0.110 A 
HETATM    9  O   UNK N   1      25.299  26.795  -5.149  0.00  0.00    -0.222 OA
HETATM   10  O   UNK N   1      25.552  27.660  -2.924  0.00  0.00    -0.222 OA
HETATM   11  S   UNK N   1      27.865  24.892  -3.710  0.00  0.00    -0.064 SA
HETATM   12  S   UNK N   1      26.315  27.518  -4.250  0.00  0.00     0.186 S 
ENDROOT
BRANCH   7  13
HETATM   13  S   UNK N   1      30.457  23.318  -3.255  0.00  0.00     0.263 S 
HETATM   14  O   UNK N   1      30.625  23.127  -1.740  0.00  0.00    -0.200 OA
HETATM   15  O   UNK N   1      31.915  23.416  -3.729  0.00  0.00    -0.200 OA
BRANCH  13  16
HETATM   16  N   UNK N   1      29.886  21.761  -3.854  0.00  0.00    -0.324 N 
HETATM   17  H   UNK N   1      30.452  20.936  -4.051  0.00  0.00     0.169 HD
HETATM   18  H   UNK N   1      28.883  21.675  -4.023  0.00  0.00     0.169 HD
ENDBRANCH  13  16
ENDBRANCH   7  13
BRANCH   6  19
HETATM   19  N   UNK N   1      30.637  28.845  -4.634  0.00  0.00    -0.417 N 
HETATM   20  C   UNK N   1      31.281  29.524  -3.514  0.00  0.00     0.140 C 
HETATM   21  H   UNK N   1      31.098  28.624  -5.516  0.00  0.00     0.153 HD
ENDBRANCH   6  19
TORSDOF 3
ENDMDL
