MODEL 1
REMARK VINA RESULT:      -4.5      0.000      0.000
REMARK  3 active torsions:
REMARK  status: ('A' for Active; 'I' for Inactive)
REMARK    1  A    between atoms: C_4  and  O_7 
REMARK    2  A    between atoms: C_5  and  O_8 
REMARK    3  A    between atoms: C_6  and  O_9 
ROOT
HETATM    1  C   UNK N   1      21.373  18.226   5.430  0.00  0.00     0.042 C 
HETATM    2  C   UNK N   1      19.863  18.854   1.961  0.00  0.00     0.071 C 
HETATM    3  C   UNK N   1      20.910  19.016   4.217  0.00  0.00     0.149 C 
HETATM    4  C   UNK N   1      20.283  18.056   3.188  0.00  0.00     0.149 C 
HETATM    5  C   UNK N   1      21.078  19.595   1.422  0.00  0.00     0.175 C 
HETATM    6  C   UNK N   1      21.681  20.467   2.534  0.00  0.00     0.285 C 
HETATM    7  O   UNK N   1      22.036  19.688   3.670  0.00  0.00    -0.351 OA
ENDROOT
BRANCH   4   8
HETATM    8  O   UNK N   1      19.166  17.416   3.728  0.00  0.00    -0.393 OA
HETATM    9  H   UNK N   1      19.066  16.548   4.150  0.00  0.00     0.210 HD
ENDBRANCH   4   8
BRANCH   5  10
HETATM   10  O   UNK N   1      20.708  20.381   0.329  0.00  0.00    -0.391 OA
HETATM   11  H   UNK N   1      19.883  20.877   0.200  0.00  0.00     0.210 HD
ENDBRANCH   5  10
BRANCH   6  12
HETATM   12  O   UNK N   1      20.812  21.504   2.897  0.00  0.00    -0.369 OA
HETATM   13  H   UNK N   1      19.896  21.806   2.988  0.00  0.00     0.212 HD
ENDBRANCH   6  12
TORSDOF 3
ENDMDL
MODEL 2
REMARK VINA RESULT:      -4.4      9.614     11.134
REMARK  3 active torsions:
REMARK  status: ('A' for Active; 'I' for Inactive)
REMARK    1  A    between atoms: C_4  and  O_7 
REMARK    2  A    between atoms: C_5  and  O_8 
REMARK    3  A    between atoms: C_6  and  O_9 
ROOT
HETATM    1  C   UNK N   1      32.587  17.595   7.586  0.00  0.00     0.042 C 
HETATM    2  C   UNK N   1      28.774  17.233   7.768  0.00  0.00     0.071 C 
HETATM    3  C   UNK N   1      31.214  17.457   8.222  0.00  0.00     0.149 C 
HETATM    4  C   UNK N   1      30.148  17.326   7.118  0.00  0.00     0.149 C 
HETATM    5  C   UNK N   1      28.569  18.454   8.653  0.00  0.00     0.175 C 
HETATM    6  C   UNK N   1      29.716  18.545   9.672  0.00  0.00     0.285 C 
HETATM    7  O   UNK N   1      30.981  18.605   9.025  0.00  0.00    -0.351 OA
ENDROOT
BRANCH   4   8
HETATM    8  O   UNK N   1      30.374  16.185   6.347  0.00  0.00    -0.393 OA
HETATM    9  H   UNK N   1      30.459  16.065   5.388  0.00  0.00     0.210 HD
ENDBRANCH   4   8
BRANCH   5  10
HETATM   10  O   UNK N   1      27.339  18.364   9.308  0.00  0.00    -0.391 OA
HETATM   11  H   UNK N   1      26.460  18.233   8.916  0.00  0.00     0.210 HD
ENDBRANCH   5  10
BRANCH   6  12
HETATM   12  O   UNK N   1      29.676  17.482  10.583  0.00  0.00    -0.369 OA
HETATM   13  H   UNK N   1      30.089  17.042  11.342  0.00  0.00     0.212 HD
ENDBRANCH   6  12
TORSDOF 3
ENDMDL
MODEL 3
REMARK VINA RESULT:      -4.2     18.578     20.160
REMARK  3 active torsions:
REMARK  status: ('A' for Active; 'I' for Inactive)
REMARK    1  A    between atoms: C_4  and  O_7 
REMARK    2  A    between atoms: C_5  and  O_8 
REMARK    3  A    between atoms: C_6  and  O_9 
ROOT
HETATM    1  C   UNK N   1      33.781  10.706  14.049  0.00  0.00     0.042 C 
HETATM    2  C   UNK N   1      35.961  13.859  13.930  0.00  0.00     0.071 C 
HETATM    3  C   UNK N   1      34.493  11.947  14.562  0.00  0.00     0.149 C 
HETATM    4  C   UNK N   1      35.217  12.643  13.394  0.00  0.00     0.149 C 
HETATM    5  C   UNK N   1      36.907  13.406  15.033  0.00  0.00     0.175 C 
HETATM    6  C   UNK N   1      36.111  12.658  16.114  0.00  0.00     0.285 C 
HETATM    7  O   UNK N   1      35.412  11.546  15.568  0.00  0.00    -0.351 OA
ENDROOT
BRANCH   4   8
HETATM    8  O   UNK N   1      34.305  13.051  12.421  0.00  0.00    -0.393 OA
HETATM    9  H   UNK N   1      33.928  13.922  12.220  0.00  0.00     0.210 HD
ENDBRANCH   4   8
BRANCH   5  10
HETATM   10  O   UNK N   1      37.559  14.511  15.582  0.00  0.00    -0.391 OA
HETATM   11  H   UNK N   1      38.011  14.575  16.439  0.00  0.00     0.210 HD
ENDBRANCH   5  10
BRANCH   6  12
HETATM   12  O   UNK N   1      35.229  13.515  16.784  0.00  0.00    -0.369 OA
HETATM   13  H   UNK N   1      34.389  13.999  16.766  0.00  0.00     0.212 HD
ENDBRANCH   6  12
TORSDOF 3
ENDMDL
MODEL 4
REMARK VINA RESULT:      -4.2     13.177     14.697
REMARK  3 active torsions:
REMARK  status: ('A' for Active; 'I' for Inactive)
REMARK    1  A    between atoms: C_4  and  O_7 
REMARK    2  A    between atoms: C_5  and  O_8 
REMARK    3  A    between atoms: C_6  and  O_9 
ROOT
HETATM    1  C   UNK N   1      33.217  17.087   4.923  0.00  0.00     0.042 C 
HETATM    2  C   UNK N   1      34.887  16.038   8.212  0.00  0.00     0.071 C 
HETATM    3  C   UNK N   1      33.945  17.248   6.247  0.00  0.00     0.149 C 
HETATM    4  C   UNK N   1      34.196  15.860   6.867  0.00  0.00     0.149 C 
HETATM    5  C   UNK N   1      34.024  16.935   9.088  0.00  0.00     0.175 C 
HETATM    6  C   UNK N   1      33.764  18.264   8.360  0.00  0.00     0.285 C 
HETATM    7  O   UNK N   1      33.142  18.052   7.099  0.00  0.00    -0.351 OA
ENDROOT
BRANCH   4   8
HETATM    8  O   UNK N   1      35.003  15.086   6.032  0.00  0.00    -0.393 OA
HETATM    9  H   UNK N   1      34.783  14.384   5.398  0.00  0.00     0.210 HD
ENDBRANCH   4   8
BRANCH   5  10
HETATM   10  O   UNK N   1      34.663  17.163  10.309  0.00  0.00    -0.391 OA
HETATM   11  H   UNK N   1      35.372  16.642  10.720  0.00  0.00     0.210 HD
ENDBRANCH   5  10
BRANCH   6  12
HETATM   12  O   UNK N   1      34.944  19.004   8.211  0.00  0.00    -0.369 OA
HETATM   13  H   UNK N   1      35.434  19.811   8.432  0.00  0.00     0.212 HD
ENDBRANCH   6  12
TORSDOF 3
ENDMDL
MODEL 5
REMARK VINA RESULT:      -4.1      1.429      2.645
REMARK  3 active torsions:
REMARK  status: ('A' for Active; 'I' for Inactive)
REMARK    1  A    between atoms: C_4  and  O_7 
REMARK    2  A    between atoms: C_5  and  O_8 
REMARK    3  A    between atoms: C_6  and  O_9 
ROOT
HETATM    1  C   UNK N   1      20.227  16.242   2.985  0.00  0.00     0.042 C 
HETATM    2  C   UNK N   1      22.254  19.483   3.295  0.00  0.00     0.071 C 
HETATM    3  C   UNK N   1      20.782  17.600   2.588  0.00  0.00     0.149 C 
HETATM    4  C   UNK N   1      21.739  18.104   3.685  0.00  0.00     0.149 C 
HETATM    5  C   UNK N   1      21.062  20.404   3.074  0.00  0.00     0.175 C 
HETATM    6  C   UNK N   1      20.126  19.786   2.022  0.00  0.00     0.285 C 
HETATM    7  O   UNK N   1      19.689  18.490   2.413  0.00  0.00    -0.351 OA
ENDROOT
BRANCH   4   8
HETATM    8  O   UNK N   1      22.819  17.233   3.835  0.00  0.00    -0.393 OA
HETATM    9  H   UNK N   1      23.352  17.001   4.612  0.00  0.00     0.210 HD
ENDBRANCH   4   8
BRANCH   5  10
HETATM   10  O   UNK N   1      21.504  21.661   2.658  0.00  0.00    -0.391 OA
HETATM   11  H   UNK N   1      22.413  22.001   2.642  0.00  0.00     0.210 HD
ENDBRANCH   5  10
BRANCH   6  12
HETATM   12  O   UNK N   1      20.733  19.744   0.761  0.00  0.00    -0.369 OA
HETATM   13  H   UNK N   1      21.536  19.886   0.236  0.00  0.00     0.212 HD
ENDBRANCH   6  12
TORSDOF 3
ENDMDL
MODEL 6
REMARK VINA RESULT:      -4.1      9.094     10.891
REMARK  3 active torsions:
REMARK  status: ('A' for Active; 'I' for Inactive)
REMARK    1  A    between atoms: C_4  and  O_7 
REMARK    2  A    between atoms: C_5  and  O_8 
REMARK    3  A    between atoms: C_6  and  O_9 
ROOT
HETATM    1  C   UNK N   1      31.687  16.277   6.454  0.00  0.00     0.042 C 
HETATM    2  C   UNK N   1      29.802  17.984   9.325  0.00  0.00     0.071 C 
HETATM    3  C   UNK N   1      30.662  17.171   7.131  0.00  0.00     0.149 C 
HETATM    4  C   UNK N   1      30.862  17.118   8.657  0.00  0.00     0.149 C 
HETATM    5  C   UNK N   1      28.428  17.498   8.886  0.00  0.00     0.175 C 
HETATM    6  C   UNK N   1      28.345  17.514   7.351  0.00  0.00     0.285 C 
HETATM    7  O   UNK N   1      29.367  16.714   6.768  0.00  0.00    -0.351 OA
ENDROOT
BRANCH   4   8
HETATM    8  O   UNK N   1      32.129  17.588   9.005  0.00  0.00    -0.393 OA
HETATM    9  H   UNK N   1      32.987  17.138   9.059  0.00  0.00     0.210 HD
ENDBRANCH   4   8
BRANCH   5  10
HETATM   10  O   UNK N   1      27.438  18.313   9.437  0.00  0.00    -0.391 OA
HETATM   11  H   UNK N   1      26.582  18.560   9.051  0.00  0.00     0.210 HD
ENDBRANCH   5  10
BRANCH   6  12
HETATM   12  O   UNK N   1      28.395  18.821   6.851  0.00  0.00    -0.369 OA
HETATM   13  H   UNK N   1      28.606  19.752   7.020  0.00  0.00     0.212 HD
ENDBRANCH   6  12
TORSDOF 3
ENDMDL
MODEL 7
REMARK VINA RESULT:      -4.1     21.791     22.980
REMARK  3 active torsions:
REMARK  status: ('A' for Active; 'I' for Inactive)
REMARK    1  A    between atoms: C_4  and  O_7 
REMARK    2  A    between atoms: C_5  and  O_8 
REMARK    3  A    between atoms: C_6  and  O_9 
ROOT
HETATM    1  C   UNK N   1      40.927  22.662   1.695  0.00  0.00     0.042 C 
HETATM    2  C   UNK N   1      43.875  20.966   3.468  0.00  0.00     0.071 C 
HETATM    3  C   UNK N   1      42.374  22.357   2.045  0.00  0.00     0.149 C 
HETATM    4  C   UNK N   1      42.422  21.232   3.095  0.00  0.00     0.149 C 
HETATM    5  C   UNK N   1      44.499  22.266   3.956  0.00  0.00     0.175 C 
HETATM    6  C   UNK N   1      44.338  23.348   2.876  0.00  0.00     0.285 C 
HETATM    7  O   UNK N   1      42.970  23.547   2.540  0.00  0.00    -0.351 OA
ENDROOT
BRANCH   4   8
HETATM    8  O   UNK N   1      41.852  20.062   2.592  0.00  0.00    -0.393 OA
HETATM    9  H   UNK N   1      41.124  19.920   1.967  0.00  0.00     0.210 HD
ENDBRANCH   4   8
BRANCH   5  10
HETATM   10  O   UNK N   1      45.848  22.063   4.249  0.00  0.00    -0.391 OA
HETATM   11  H   UNK N   1      46.591  22.670   4.099  0.00  0.00     0.210 HD
ENDBRANCH   5  10
BRANCH   6  12
HETATM   12  O   UNK N   1      45.089  23.045   1.734  0.00  0.00    -0.369 OA
HETATM   13  H   UNK N   1      45.944  23.101   1.281  0.00  0.00     0.212 HD
ENDBRANCH   6  12
TORSDOF 3
ENDMDL
MODEL 8
REMARK VINA RESULT:      -4.1     21.550     22.596
REMARK  3 active torsions:
REMARK  status: ('A' for Active; 'I' for Inactive)
REMARK    1  A    between atoms: C_4  and  O_7 
REMARK    2  A    between atoms: C_5  and  O_8 
REMARK    3  A    between atoms: C_6  and  O_9 
ROOT
HETATM    1  C   UNK N   1      45.138  19.914   3.369  0.00  0.00     0.042 C 
HETATM    2  C   UNK N   1      41.801  21.675   2.681  0.00  0.00     0.071 C 
HETATM    3  C   UNK N   1      44.096  21.020   3.400  0.00  0.00     0.149 C 
HETATM    4  C   UNK N   1      42.820  20.543   2.681  0.00  0.00     0.149 C 
HETATM    5  C   UNK N   1      42.430  22.898   2.031  0.00  0.00     0.175 C 
HETATM    6  C   UNK N   1      43.733  23.255   2.765  0.00  0.00     0.285 C 
HETATM    7  O   UNK N   1      44.645  22.164   2.763  0.00  0.00    -0.351 OA
ENDROOT
BRANCH   4   8
HETATM    8  O   UNK N   1      42.276  19.431   3.326  0.00  0.00    -0.393 OA
HETATM    9  H   UNK N   1      41.357  19.148   3.450  0.00  0.00     0.210 HD
ENDBRANCH   4   8
BRANCH   5  10
HETATM   10  O   UNK N   1      41.536  23.970   2.071  0.00  0.00    -0.391 OA
HETATM   11  H   UNK N   1      41.544  24.734   2.671  0.00  0.00     0.210 HD
ENDBRANCH   5  10
BRANCH   6  12
HETATM   12  O   UNK N   1      43.480  23.686   4.074  0.00  0.00    -0.369 OA
HETATM   13  H   UNK N   1      42.925  23.610   4.865  0.00  0.00     0.212 HD
ENDBRANCH   6  12
TORSDOF 3
ENDMDL
MODEL 9
REMARK VINA RESULT:      -4.0      7.534      9.772
REMARK  3 active torsions:
REMARK  status: ('A' for Active; 'I' for Inactive)
REMARK    1  A    between atoms: C_4  and  O_7 
REMARK    2  A    between atoms: C_5  and  O_8 
REMARK    3  A    between atoms: C_6  and  O_9 
ROOT
HETATM    1  C   UNK N   1      21.522  15.143   7.714  0.00  0.00     0.042 C 
HETATM    2  C   UNK N   1      21.155  12.671  10.624  0.00  0.00     0.071 C 
HETATM    3  C   UNK N   1      21.704  13.855   8.500  0.00  0.00     0.149 C 
HETATM    4  C   UNK N   1      20.930  13.950   9.828  0.00  0.00     0.149 C 
HETATM    5  C   UNK N   1      22.652  12.476  10.819  0.00  0.00     0.175 C 
HETATM    6  C   UNK N   1      23.350  12.468   9.449  0.00  0.00     0.285 C 
HETATM    7  O   UNK N   1      23.093  13.668   8.729  0.00  0.00    -0.351 OA
ENDROOT
BRANCH   4   8
HETATM    8  O   UNK N   1      19.564  14.113   9.592  0.00  0.00    -0.393 OA
HETATM    9  H   UNK N   1      18.889  14.630  10.060  0.00  0.00     0.210 HD
ENDBRANCH   4   8
BRANCH   5  10
HETATM   10  O   UNK N   1      22.890  11.278  11.495  0.00  0.00    -0.391 OA
HETATM   11  H   UNK N   1      22.422  10.433  11.400  0.00  0.00     0.210 HD
ENDBRANCH   5  10
BRANCH   6  12
HETATM   12  O   UNK N   1      22.979  11.349   8.693  0.00  0.00    -0.369 OA
HETATM   13  H   UNK N   1      22.512  11.008   7.914  0.00  0.00     0.212 HD
ENDBRANCH   6  12
TORSDOF 3
ENDMDL
