REMARK  18 active torsions:
REMARK  status: ('A' for Active; 'I' for Inactive)
REMARK    1  A    between atoms: C_4  and  C_1 
REMARK    2  A    between atoms: O_19  and  C_1 
REMARK    3  A    between atoms: C_5  and  C_2 
REMARK    4  A    between atoms: O_20  and  C_2 
REMARK    5  A    between atoms: C_6  and  C_3 
REMARK    6  A    between atoms: O_21  and  C_3 
REMARK    7  A    between atoms: C_7  and  O_22 
REMARK    8  A    between atoms: C_8  and  O_23 
REMARK    9  A    between atoms: C_9  and  O_24 
REMARK   10  A    between atoms: C_10  and  O_25 
REMARK   11  A    between atoms: C_11  and  O_26 
REMARK   12  A    between atoms: C_12  and  O_27 
REMARK   13  A    between atoms: C_13  and  O_28 
REMARK   14  A    between atoms: C_14  and  O_33 
REMARK   15  A    between atoms: C_15  and  O_34 
REMARK   16  A    between atoms: C_16  and  O_29 
REMARK   17  A    between atoms: C_17  and  O_34 
REMARK   18  A    between atoms: C_18  and  O_33 
ROOT
HETATM    1  C   UNK N   1       0.962  -3.786   0.478  0.00  0.00     0.180 C 
HETATM    2  C   UNK N   1      -0.424  -5.801   0.267  0.00  0.00     0.183 C 
HETATM    3  C   UNK N   1       0.409  -6.151  -0.983  0.00  0.00     0.204 C 
HETATM    4  C   UNK N   1      -0.504  -4.262   0.473  0.00  0.00     0.187 C 
HETATM    5  C   UNK N   1       1.801  -5.451  -0.972  0.00  0.00     0.292 C 
HETATM    6  O   UNK N   1       1.598  -4.065  -0.756  0.00  0.00    -0.348 OA
ENDROOT
BRANCH   4   7
HETATM    7  O   UNK N   1      -1.295  -3.638  -0.544  0.00  0.00    -0.348 OA
BRANCH   7   8
HETATM    8  C   UNK N   1      -1.966  -2.477  -0.048  0.00  0.00     0.292 C 
HETATM    9  C   UNK N   1      -3.166  -2.111  -0.946  0.00  0.00     0.204 C 
HETATM   10  C   UNK N   1      -3.836  -0.829  -0.396  0.00  0.00     0.183 C 
HETATM   11  C   UNK N   1      -2.779   0.281  -0.262  0.00  0.00     0.180 C 
HETATM   12  C   UNK N   1      -1.602  -0.249   0.575  0.00  0.00     0.179 C 
HETATM   13  O   UNK N   1      -1.061  -1.391  -0.059  0.00  0.00    -0.348 OA
BRANCH   9  14
HETATM   14  O   UNK N   1      -4.091  -3.156  -0.982  0.00  0.00    -0.388 OA
HETATM   15  H   UNK N   1      -5.041  -2.963  -1.008  0.00  0.00     0.210 HD
ENDBRANCH   9  14
BRANCH  10  16
HETATM   16  O   UNK N   1      -4.405  -1.089   0.857  0.00  0.00    -0.390 OA
HETATM   17  H   UNK N   1      -4.758  -0.838   1.725  0.00  0.00     0.210 HD
ENDBRANCH  10  16
BRANCH  11  18
HETATM   18  O   UNK N   1      -3.336   1.415   0.338  0.00  0.00    -0.390 OA
HETATM   19  H   UNK N   1      -2.848   2.143   0.754  0.00  0.00     0.210 HD
ENDBRANCH  11  18
BRANCH  12  20
HETATM   20  C   UNK N   1      -0.499   0.798   0.718  0.00  0.00     0.198 C 
BRANCH  20  21
HETATM   21  O   UNK N   1       0.066   1.109  -0.521  0.00  0.00    -0.398 OA
HETATM   22  H   UNK N   1       0.449   0.877  -1.382  0.00  0.00     0.209 HD
ENDBRANCH  20  21
ENDBRANCH  12  20
ENDBRANCH   7   8
ENDBRANCH   4   7
BRANCH   1  23
HETATM   23  C   UNK N   1       1.243  -2.336   0.861  0.00  0.00     0.198 C 
BRANCH  23  24
HETATM   24  O   UNK N   1       1.519  -1.555  -0.267  0.00  0.00    -0.398 OA
HETATM   25  H   UNK N   1       2.083  -1.449  -1.049  0.00  0.00     0.209 HD
ENDBRANCH  23  24
ENDBRANCH   1  23
BRANCH   2  26
HETATM   26  O   UNK N   1      -1.707  -6.347   0.178  0.00  0.00    -0.390 OA
HETATM   27  H   UNK N   1      -2.480  -5.764   0.116  0.00  0.00     0.210 HD
ENDBRANCH   2  26
BRANCH   3  28
HETATM   28  O   UNK N   1       0.561  -7.538  -1.104  0.00  0.00    -0.388 OA
HETATM   29  H   UNK N   1      -0.219  -8.110  -1.187  0.00  0.00     0.210 HD
ENDBRANCH   3  28
BRANCH   5  30
HETATM   30  O   UNK N   1       2.771  -6.077  -0.121  0.00  0.00    -0.348 OA
BRANCH  30  31
HETATM   31  C   UNK N   1       3.739  -5.288   0.604  0.00  0.00     0.187 C 
HETATM   32  C   UNK N   1       4.383  -4.044  -0.119  0.00  0.00     0.180 C 
HETATM   33  O   UNK N   1       5.211  -4.415  -1.215  0.00  0.00    -0.349 OA
HETATM   34  C   UNK N   1       6.279  -5.273  -0.839  0.00  0.00     0.288 C 
HETATM   35  C   UNK N   1       5.764  -6.560  -0.177  0.00  0.00     0.204 C 
HETATM   36  C   UNK N   1       4.898  -6.206   1.036  0.00  0.00     0.183 C 
BRANCH  32  37
HETATM   37  C   UNK N   1       5.122  -3.129   0.873  0.00  0.00     0.198 C 
BRANCH  37  38
HETATM   38  O   UNK N   1       4.243  -2.629   1.838  0.00  0.00    -0.398 OA
HETATM   39  H   UNK N   1       4.239  -1.928   2.508  0.00  0.00     0.209 HD
ENDBRANCH  37  38
ENDBRANCH  32  37
BRANCH  34  40
HETATM   40  O   UNK N   1       7.201  -4.607  -0.021  0.00  0.00    -0.369 OA
HETATM   41  H   UNK N   1       7.920  -4.929   0.546  0.00  0.00     0.212 HD
ENDBRANCH  34  40
BRANCH  35  42
HETATM   42  O   UNK N   1       6.843  -7.357   0.214  0.00  0.00    -0.388 OA
HETATM   43  H   UNK N   1       6.739  -8.282   0.485  0.00  0.00     0.210 HD
ENDBRANCH  35  42
BRANCH  36  44
HETATM   44  O   UNK N   1       4.402  -7.368   1.636  0.00  0.00    -0.390 OA
HETATM   45  H   UNK N   1       3.532  -7.473   2.052  0.00  0.00     0.210 HD
ENDBRANCH  36  44
ENDBRANCH  30  31
ENDBRANCH   5  30
TORSDOF 18
