REMARK  10 active torsions:
REMARK  status: ('A' for Active; 'I' for Inactive)
REMARK    1  A    between atoms: C_7  and  C_4 
REMARK    2  A    between atoms: O_21  and  C_4 
REMARK    3  A    between atoms: C_6  and  O_23 
REMARK    4  A    between atoms: C_8  and  N_12 
REMARK    5  A    between atoms: P_24  and  O_15 
REMARK    6  A    between atoms: P_24  and  O_16 
REMARK    7  A    between atoms: P_25  and  O_18 
REMARK    8  A    between atoms: P_25  and  O_19 
REMARK    9  A    between atoms: P_24  and  O_21 
REMARK   10  A    between atoms: P_25  and  O_23 
ROOT
HETATM    1  C   UNK N   1      -0.098   2.325  -0.304  0.00  0.00     0.089 C 
HETATM    2  C   UNK N   1      -1.312   3.157  -0.010  0.00  0.00     0.169 C 
HETATM    3  C   UNK N   1      -2.150   2.086   0.659  0.00  0.00     0.178 C 
HETATM    4  C   UNK N   1      -0.709   0.968  -0.674  0.00  0.00     0.235 C 
HETATM    5  O   UNK N   1      -2.016   0.921  -0.115  0.00  0.00    -0.356 OA
ENDROOT
BRANCH   4   6
HETATM    6  N   UNK N   1       0.089  -0.213  -0.242  0.00  0.00    -0.282 N 
HETATM    7  C   UNK N   1      -0.521  -1.431  -0.331  0.00  0.00     0.110 A 
HETATM    8  C   UNK N   1       0.130  -2.603   0.052  0.00  0.00     0.022 A 
HETATM    9  C   UNK N   1      -0.585  -3.909  -0.033  0.00  0.00     0.056 C 
HETATM   10  C   UNK N   1       1.443  -2.522   0.514  0.00  0.00     0.256 A 
HETATM   11  N   UNK N   1       2.055  -1.305   0.586  0.00  0.00    -0.275 N 
HETATM   12  O   UNK N   1       2.048  -3.525   0.852  0.00  0.00    -0.267 OA
HETATM   13  C   UNK N   1       1.404  -0.155   0.221  0.00  0.00     0.331 A 
HETATM   14  H   UNK N   1       2.985  -1.252   0.907  0.00  0.00     0.173 HD
HETATM   15  O   UNK N   1       2.007   0.900   0.288  0.00  0.00    -0.246 OA
ENDBRANCH   4   6
BRANCH   2  16
HETATM   16  O   UNK N   1      -1.134   4.245   0.902  0.00  0.00    -0.289 OA
BRANCH  16  17
HETATM   17  P   UNK N   1      -0.064   5.585   0.406  0.00  0.00     0.391 P 
HETATM   18  O   UNK N   1       0.687   5.083  -0.857  0.00  0.00    -0.632 OA
BRANCH  17  19
HETATM   19  O   UNK N   1       1.036   4.393   1.026  0.00  0.00    -0.307 OA
HETATM   20  H   UNK N   1       0.767   3.528   1.373  0.00  0.00     0.222 HD
ENDBRANCH  17  19
BRANCH  17  21
HETATM   21  O   UNK N   1      -1.273   5.691  -0.838  0.00  0.00    -0.307 OA
HETATM   22  H   UNK N   1      -1.559   6.305  -1.533  0.00  0.00     0.222 HD
ENDBRANCH  17  21
ENDBRANCH  16  17
ENDBRANCH   2  16
BRANCH   3  23
HETATM   23  C   UNK N   1      -3.614   2.489   0.872  0.00  0.00     0.215 C 
BRANCH  23  24
HETATM   24  O   UNK N   1      -4.212   3.040  -0.269  0.00  0.00    -0.294 OA
BRANCH  24  25
HETATM   25  P   UNK N   1      -5.714   3.700   0.321  0.00  0.00     0.390 P 
HETATM   26  O   UNK N   1      -6.179   2.938  -0.948  0.00  0.00    -0.632 OA
BRANCH  25  27
HETATM   27  O   UNK N   1      -6.601   4.915  -0.545  0.00  0.00    -0.307 OA
HETATM   28  H   UNK N   1      -6.261   5.683  -1.029  0.00  0.00     0.222 HD
ENDBRANCH  25  27
BRANCH  25  29
HETATM   29  O   UNK N   1      -4.680   5.013  -0.156  0.00  0.00    -0.307 OA
HETATM   30  H   UNK N   1      -3.757   4.879  -0.422  0.00  0.00     0.222 HD
ENDBRANCH  25  29
ENDBRANCH  24  25
ENDBRANCH  23  24
ENDBRANCH   3  23
TORSDOF 10
