MODEL 1
REMARK VINA RESULT:      -5.4      0.000      0.000
REMARK  5 active torsions:
REMARK  status: ('A' for Active; 'I' for Inactive)
REMARK    1  A    between atoms: C_2  and  N_1 
REMARK    2  A    between atoms: C_2  and  C_3 
REMARK    3  A    between atoms: C_2  and  C_12 
REMARK    4  A    between atoms: C_3  and  N_4 
REMARK    5  A    between atoms: C_12  and  O_13 
ROOT
HETATM    1  N   UNK N   1      22.676  19.293   3.572  0.00  0.00    -0.307 N 
HETATM    2  C   UNK N   1      22.900  17.992   3.909  0.00  0.00     0.101 A 
HETATM    3  C   UNK N   1      24.201  17.493   3.970  0.00  0.00     0.092 A 
HETATM    4  C   UNK N   1      25.262  18.345   3.677  0.00  0.00     0.250 A 
HETATM    5  O   UNK N   1      26.406  17.931   3.713  0.00  0.00    -0.268 OA
HETATM    6  N   UNK N   1      25.017  19.649   3.339  0.00  0.00    -0.275 N 
HETATM    7  C   UNK N   1      23.737  20.124   3.283  0.00  0.00     0.329 A 
HETATM    8  O   UNK N   1      23.541  21.288   2.965  0.00  0.00    -0.246 OA
HETATM    9  H   UNK N   1      25.770  20.249   3.136  0.00  0.00     0.173 HD
ENDROOT
BRANCH   1  10
HETATM   10  C   UNK N   1      21.305  19.778   3.460  0.00  0.00     0.168 C 
BRANCH  10  11
HETATM   11  C   UNK N   1      20.656  19.394   2.133  0.00  0.00     0.192 C 
BRANCH  11  12
HETATM   12  N   UNK N   1      19.239  19.118   2.308  0.00  0.00    -0.416 N 
HETATM   13  H   UNK N   1      18.567  19.538   2.950  0.00  0.00     0.150 HD
HETATM   14  H   UNK N   1      18.859  18.396   1.696  0.00  0.00     0.150 HD
ENDBRANCH  11  12
BRANCH  11  15
HETATM   15  C   UNK N   1      20.819  20.531   1.178  0.00  0.00     0.164 C 
HETATM   16  O   UNK N   1      20.909  20.313  -0.018  0.00  0.00    -0.648 OA
BRANCH  15  17
HETATM   17  O   UNK N   1      20.875  21.799   1.635  0.00  0.00    -0.775 OA
HETATM   18  H   UNK N   1      20.312  22.250   2.231  0.00  0.00     0.167 HD
ENDBRANCH  15  17
ENDBRANCH  11  15
ENDBRANCH  10  11
ENDBRANCH   1  10
TORSDOF 5
ENDMDL
MODEL 2
REMARK VINA RESULT:      -5.2      8.043     11.595
REMARK  5 active torsions:
REMARK  status: ('A' for Active; 'I' for Inactive)
REMARK    1  A    between atoms: C_2  and  N_1 
REMARK    2  A    between atoms: C_2  and  C_3 
REMARK    3  A    between atoms: C_2  and  C_12 
REMARK    4  A    between atoms: C_3  and  N_4 
REMARK    5  A    between atoms: C_12  and  O_13 
ROOT
HETATM    1  N   UNK N   1      31.479  16.868   7.717  0.00  0.00    -0.307 N 
HETATM    2  C   UNK N   1      30.564  17.161   8.682  0.00  0.00     0.101 A 
HETATM    3  C   UNK N   1      29.285  17.597   8.334  0.00  0.00     0.092 A 
HETATM    4  C   UNK N   1      28.966  17.732   6.986  0.00  0.00     0.250 A 
HETATM    5  O   UNK N   1      27.860  18.121   6.656  0.00  0.00    -0.268 OA
HETATM    6  N   UNK N   1      29.899  17.435   6.030  0.00  0.00    -0.275 N 
HETATM    7  C   UNK N   1      31.148  17.008   6.385  0.00  0.00     0.329 A 
HETATM    8  O   UNK N   1      31.970  16.762   5.516  0.00  0.00    -0.246 OA
HETATM    9  H   UNK N   1      29.668  17.528   5.078  0.00  0.00     0.173 HD
ENDROOT
BRANCH   1  10
HETATM   10  C   UNK N   1      32.826  16.468   8.105  0.00  0.00     0.168 C 
BRANCH  10  11
HETATM   11  C   UNK N   1      33.549  17.547   8.906  0.00  0.00     0.192 C 
BRANCH  11  12
HETATM   12  N   UNK N   1      34.337  16.960   9.978  0.00  0.00    -0.416 N 
HETATM   13  H   UNK N   1      35.290  16.597   9.963  0.00  0.00     0.150 HD
HETATM   14  H   UNK N   1      33.867  16.902  10.881  0.00  0.00     0.150 HD
ENDBRANCH  11  12
BRANCH  11  15
HETATM   15  C   UNK N   1      34.456  18.295   7.985  0.00  0.00     0.164 C 
HETATM   16  O   UNK N   1      35.137  19.211   8.413  0.00  0.00    -0.648 OA
BRANCH  15  17
HETATM   17  O   UNK N   1      34.519  17.966   6.679  0.00  0.00    -0.775 OA
HETATM   18  H   UNK N   1      34.826  18.461   5.946  0.00  0.00     0.167 HD
ENDBRANCH  15  17
ENDBRANCH  11  15
ENDBRANCH  10  11
ENDBRANCH   1  10
TORSDOF 5
ENDMDL
MODEL 3
REMARK VINA RESULT:      -5.1      2.416      2.793
REMARK  5 active torsions:
REMARK  status: ('A' for Active; 'I' for Inactive)
REMARK    1  A    between atoms: C_2  and  N_1 
REMARK    2  A    between atoms: C_2  and  C_3 
REMARK    3  A    between atoms: C_2  and  C_12 
REMARK    4  A    between atoms: C_3  and  N_4 
REMARK    5  A    between atoms: C_12  and  O_13 
ROOT
HETATM    1  N   UNK N   1      21.661  18.309   4.623  0.00  0.00    -0.307 N 
HETATM    2  C   UNK N   1      22.367  17.502   3.782  0.00  0.00     0.101 A 
HETATM    3  C   UNK N   1      23.098  16.426   4.285  0.00  0.00     0.092 A 
HETATM    4  C   UNK N   1      23.096  16.195   5.658  0.00  0.00     0.250 A 
HETATM    5  O   UNK N   1      23.733  15.269   6.123  0.00  0.00    -0.268 OA
HETATM    6  N   UNK N   1      22.381  17.017   6.487  0.00  0.00    -0.275 N 
HETATM    7  C   UNK N   1      21.670  18.069   5.980  0.00  0.00     0.329 A 
HETATM    8  O   UNK N   1      21.050  18.797   6.740  0.00  0.00    -0.246 OA
HETATM    9  H   UNK N   1      22.378  16.848   7.457  0.00  0.00     0.173 HD
ENDROOT
BRANCH   1  10
HETATM   10  C   UNK N   1      20.950  19.461   4.081  0.00  0.00     0.168 C 
BRANCH  10  11
HETATM   11  C   UNK N   1      20.675  19.327   2.586  0.00  0.00     0.192 C 
BRANCH  11  12
HETATM   12  N   UNK N   1      19.250  19.188   2.329  0.00  0.00    -0.416 N 
HETATM   13  H   UNK N   1      18.483  19.024   2.982  0.00  0.00     0.150 HD
HETATM   14  H   UNK N   1      18.975  19.268   1.350  0.00  0.00     0.150 HD
ENDBRANCH  11  12
BRANCH  11  15
HETATM   15  C   UNK N   1      21.179  20.553   1.898  0.00  0.00     0.164 C 
HETATM   16  O   UNK N   1      21.281  20.571   0.683  0.00  0.00    -0.648 OA
BRANCH  15  17
HETATM   17  O   UNK N   1      21.530  21.639   2.616  0.00  0.00    -0.775 OA
HETATM   18  H   UNK N   1      21.350  22.546   2.465  0.00  0.00     0.167 HD
ENDBRANCH  15  17
ENDBRANCH  11  15
ENDBRANCH  10  11
ENDBRANCH   1  10
TORSDOF 5
ENDMDL
MODEL 4
REMARK VINA RESULT:      -5.1     12.516     14.493
REMARK  5 active torsions:
REMARK  status: ('A' for Active; 'I' for Inactive)
REMARK    1  A    between atoms: C_2  and  N_1 
REMARK    2  A    between atoms: C_2  and  C_3 
REMARK    3  A    between atoms: C_2  and  C_12 
REMARK    4  A    between atoms: C_3  and  N_4 
REMARK    5  A    between atoms: C_12  and  O_13 
ROOT
HETATM    1  N   UNK N   1      34.457  15.766  10.144  0.00  0.00    -0.307 N 
HETATM    2  C   UNK N   1      34.157  14.471  10.443  0.00  0.00     0.101 A 
HETATM    3  C   UNK N   1      34.951  13.750  11.335  0.00  0.00     0.092 A 
HETATM    4  C   UNK N   1      36.055  14.375  11.908  0.00  0.00     0.250 A 
HETATM    5  O   UNK N   1      36.770  13.765  12.681  0.00  0.00    -0.268 OA
HETATM    6  N   UNK N   1      36.341  15.677  11.594  0.00  0.00    -0.275 N 
HETATM    7  C   UNK N   1      35.554  16.371  10.719  0.00  0.00     0.329 A 
HETATM    8  O   UNK N   1      35.837  17.527  10.443  0.00  0.00    -0.246 OA
HETATM    9  H   UNK N   1      37.120  16.117  12.005  0.00  0.00     0.173 HD
ENDROOT
BRANCH   1  10
HETATM   10  C   UNK N   1      33.645  16.482   9.167  0.00  0.00     0.168 C 
BRANCH  10  11
HETATM   11  C   UNK N   1      34.138  16.279   7.737  0.00  0.00     0.192 C 
BRANCH  11  12
HETATM   12  N   UNK N   1      33.164  15.537   6.951  0.00  0.00    -0.416 N 
HETATM   13  H   UNK N   1      32.166  15.403   7.109  0.00  0.00     0.150 HD
HETATM   14  H   UNK N   1      33.535  15.083   6.117  0.00  0.00     0.150 HD
ENDBRANCH  11  12
BRANCH  11  15
HETATM   15  C   UNK N   1      34.351  17.619   7.113  0.00  0.00     0.164 C 
HETATM   16  O   UNK N   1      34.073  17.795   5.939  0.00  0.00    -0.648 OA
BRANCH  15  17
HETATM   17  O   UNK N   1      34.858  18.634   7.842  0.00  0.00    -0.775 OA
HETATM   18  H   UNK N   1      35.717  19.008   7.840  0.00  0.00     0.167 HD
ENDBRANCH  15  17
ENDBRANCH  11  15
ENDBRANCH  10  11
ENDBRANCH   1  10
TORSDOF 5
ENDMDL
MODEL 5
REMARK VINA RESULT:      -5.0      9.694     11.587
REMARK  5 active torsions:
REMARK  status: ('A' for Active; 'I' for Inactive)
REMARK    1  A    between atoms: C_2  and  N_1 
REMARK    2  A    between atoms: C_2  and  C_3 
REMARK    3  A    between atoms: C_2  and  C_12 
REMARK    4  A    between atoms: C_3  and  N_4 
REMARK    5  A    between atoms: C_12  and  O_13 
ROOT
HETATM    1  N   UNK N   1      30.415  23.372  -3.556  0.00  0.00    -0.307 N 
HETATM    2  C   UNK N   1      29.625  23.742  -4.603  0.00  0.00     0.101 A 
HETATM    3  C   UNK N   1      28.260  23.962  -4.413  0.00  0.00     0.092 A 
HETATM    4  C   UNK N   1      27.723  23.793  -3.141  0.00  0.00     0.250 A 
HETATM    5  O   UNK N   1      26.534  23.969  -2.951  0.00  0.00    -0.268 OA
HETATM    6  N   UNK N   1      28.533  23.419  -2.102  0.00  0.00    -0.275 N 
HETATM    7  C   UNK N   1      29.868  23.206  -2.302  0.00  0.00     0.329 A 
HETATM    8  O   UNK N   1      30.569  22.860  -1.363  0.00  0.00    -0.246 OA
HETATM    9  H   UNK N   1      28.150  23.305  -1.202  0.00  0.00     0.173 HD
ENDROOT
BRANCH   1  10
HETATM   10  C   UNK N   1      31.828  23.093  -3.789  0.00  0.00     0.168 C 
BRANCH  10  11
HETATM   11  C   UNK N   1      32.074  21.652  -4.228  0.00  0.00     0.192 C 
BRANCH  11  12
HETATM   12  N   UNK N   1      32.677  21.607  -5.551  0.00  0.00    -0.416 N 
HETATM   13  H   UNK N   1      33.178  20.848  -6.014  0.00  0.00     0.150 HD
HETATM   14  H   UNK N   1      32.586  22.462  -6.099  0.00  0.00     0.150 HD
ENDBRANCH  11  12
BRANCH  11  15
HETATM   15  C   UNK N   1      32.997  21.008  -3.247  0.00  0.00     0.164 C 
HETATM   16  O   UNK N   1      33.908  20.300  -3.642  0.00  0.00    -0.648 OA
BRANCH  15  17
HETATM   17  O   UNK N   1      32.822  21.199  -1.924  0.00  0.00    -0.775 OA
HETATM   18  H   UNK N   1      32.043  21.391  -1.440  0.00  0.00     0.167 HD
ENDBRANCH  15  17
ENDBRANCH  11  15
ENDBRANCH  10  11
ENDBRANCH   1  10
TORSDOF 5
ENDMDL
MODEL 6
REMARK VINA RESULT:      -5.0     12.531     15.928
REMARK  5 active torsions:
REMARK  status: ('A' for Active; 'I' for Inactive)
REMARK    1  A    between atoms: C_2  and  N_1 
REMARK    2  A    between atoms: C_2  and  C_3 
REMARK    3  A    between atoms: C_2  and  C_12 
REMARK    4  A    between atoms: C_3  and  N_4 
REMARK    5  A    between atoms: C_12  and  O_13 
ROOT
HETATM    1  N   UNK N   1      35.382  15.165   9.761  0.00  0.00    -0.307 N 
HETATM    2  C   UNK N   1      34.578  14.265   9.129  0.00  0.00     0.101 A 
HETATM    3  C   UNK N   1      33.317  14.646   8.670  0.00  0.00     0.092 A 
HETATM    4  C   UNK N   1      32.895  15.957   8.874  0.00  0.00     0.250 A 
HETATM    5  O   UNK N   1      31.795  16.311   8.492  0.00  0.00    -0.268 OA
HETATM    6  N   UNK N   1      33.717  16.846   9.512  0.00  0.00    -0.275 N 
HETATM    7  C   UNK N   1      34.950  16.460   9.957  0.00  0.00     0.329 A 
HETATM    8  O   UNK N   1      35.660  17.267  10.537  0.00  0.00    -0.246 OA
HETATM    9  H   UNK N   1      33.416  17.773   9.651  0.00  0.00     0.173 HD
ENDROOT
BRANCH   1  10
HETATM   10  C   UNK N   1      36.673  14.730  10.282  0.00  0.00     0.168 C 
BRANCH  10  11
HETATM   11  C   UNK N   1      36.537  13.655  11.356  0.00  0.00     0.192 C 
BRANCH  11  12
HETATM   12  N   UNK N   1      37.836  13.099  11.703  0.00  0.00    -0.416 N 
HETATM   13  H   UNK N   1      38.505  12.595  11.122  0.00  0.00     0.150 HD
HETATM   14  H   UNK N   1      38.120  13.234  12.673  0.00  0.00     0.150 HD
ENDBRANCH  11  12
BRANCH  11  15
HETATM   15  C   UNK N   1      35.929  14.273  12.572  0.00  0.00     0.164 C 
HETATM   16  O   UNK N   1      34.962  13.751  13.101  0.00  0.00    -0.648 OA
BRANCH  15  17
HETATM   17  O   UNK N   1      36.440  15.411  13.083  0.00  0.00    -0.775 OA
HETATM   18  H   UNK N   1      37.319  15.733  13.079  0.00  0.00     0.167 HD
ENDBRANCH  15  17
ENDBRANCH  11  15
ENDBRANCH  10  11
ENDBRANCH   1  10
TORSDOF 5
ENDMDL
MODEL 7
REMARK VINA RESULT:      -4.8      8.722      9.902
REMARK  5 active torsions:
REMARK  status: ('A' for Active; 'I' for Inactive)
REMARK    1  A    between atoms: C_2  and  N_1 
REMARK    2  A    between atoms: C_2  and  C_3 
REMARK    3  A    between atoms: C_2  and  C_12 
REMARK    4  A    between atoms: C_3  and  N_4 
REMARK    5  A    between atoms: C_12  and  O_13 
ROOT
HETATM    1  N   UNK N   1      22.453  12.305   9.741  0.00  0.00    -0.307 N 
HETATM    2  C   UNK N   1      23.791  12.187   9.968  0.00  0.00     0.101 A 
HETATM    3  C   UNK N   1      24.274  12.026  11.266  0.00  0.00     0.092 A 
HETATM    4  C   UNK N   1      23.367  11.994  12.322  0.00  0.00     0.250 A 
HETATM    5  O   UNK N   1      23.764  11.864  13.465  0.00  0.00    -0.268 OA
HETATM    6  N   UNK N   1      22.026  12.115  12.074  0.00  0.00    -0.275 N 
HETATM    7  C   UNK N   1      21.567  12.272  10.796  0.00  0.00     0.329 A 
HETATM    8  O   UNK N   1      20.367  12.393  10.600  0.00  0.00    -0.246 OA
HETATM    9  H   UNK N   1      21.388  12.087  12.822  0.00  0.00     0.173 HD
ENDROOT
BRANCH   1  10
HETATM   10  C   UNK N   1      21.974  12.528   8.381  0.00  0.00     0.168 C 
BRANCH  10  11
HETATM   11  C   UNK N   1      22.342  13.912   7.852  0.00  0.00     0.192 C 
BRANCH  11  12
HETATM   12  N   UNK N   1      22.712  13.851   6.447  0.00  0.00    -0.416 N 
HETATM   13  H   UNK N   1      22.485  13.148   5.743  0.00  0.00     0.150 HD
HETATM   14  H   UNK N   1      23.283  14.627   6.114  0.00  0.00     0.150 HD
ENDBRANCH  11  12
BRANCH  11  15
HETATM   15  C   UNK N   1      21.158  14.809   8.008  0.00  0.00     0.164 C 
HETATM   16  O   UNK N   1      21.273  16.008   7.815  0.00  0.00    -0.648 OA
BRANCH  15  17
HETATM   17  O   UNK N   1      19.963  14.300   8.370  0.00  0.00    -0.775 OA
HETATM   18  H   UNK N   1      19.470  13.596   7.998  0.00  0.00     0.167 HD
ENDBRANCH  15  17
ENDBRANCH  11  15
ENDBRANCH  10  11
ENDBRANCH   1  10
TORSDOF 5
ENDMDL
MODEL 8
REMARK VINA RESULT:      -4.8      3.345      4.449
REMARK  5 active torsions:
REMARK  status: ('A' for Active; 'I' for Inactive)
REMARK    1  A    between atoms: C_2  and  N_1 
REMARK    2  A    between atoms: C_2  and  C_3 
REMARK    3  A    between atoms: C_2  and  C_12 
REMARK    4  A    between atoms: C_3  and  N_4 
REMARK    5  A    between atoms: C_12  and  O_13 
ROOT
HETATM    1  N   UNK N   1      19.952  17.682   2.169  0.00  0.00    -0.307 N 
HETATM    2  C   UNK N   1      19.941  17.145   0.917  0.00  0.00     0.101 A 
HETATM    3  C   UNK N   1      20.136  15.776   0.734  0.00  0.00     0.092 A 
HETATM    4  C   UNK N   1      20.346  14.972   1.851  0.00  0.00     0.250 A 
HETATM    5  O   UNK N   1      20.528  13.776   1.719  0.00  0.00    -0.268 OA
HETATM    6  N   UNK N   1      20.353  15.530   3.102  0.00  0.00    -0.275 N 
HETATM    7  C   UNK N   1      20.161  16.873   3.266  0.00  0.00     0.329 A 
HETATM    8  O   UNK N   1      20.186  17.351   4.389  0.00  0.00    -0.246 OA
HETATM    9  H   UNK N   1      20.497  14.958   3.889  0.00  0.00     0.173 HD
ENDROOT
BRANCH   1  10
HETATM   10  C   UNK N   1      19.801  19.123   2.331  0.00  0.00     0.168 C 
BRANCH  10  11
HETATM   11  C   UNK N   1      20.902  19.909   1.624  0.00  0.00     0.192 C 
BRANCH  11  12
HETATM   12  N   UNK N   1      20.337  20.925   0.749  0.00  0.00    -0.416 N 
HETATM   13  H   UNK N   1      20.272  21.934   0.879  0.00  0.00     0.150 HD
HETATM   14  H   UNK N   1      19.948  20.575  -0.126  0.00  0.00     0.150 HD
ENDBRANCH  11  12
BRANCH  11  15
HETATM   15  C   UNK N   1      21.752  20.571   2.658  0.00  0.00     0.164 C 
HETATM   16  O   UNK N   1      22.321  19.898   3.500  0.00  0.00    -0.648 OA
BRANCH  15  17
HETATM   17  O   UNK N   1      21.887  21.913   2.668  0.00  0.00    -0.775 OA
HETATM   18  H   UNK N   1      21.411  22.570   2.201  0.00  0.00     0.167 HD
ENDBRANCH  15  17
ENDBRANCH  11  15
ENDBRANCH  10  11
ENDBRANCH   1  10
TORSDOF 5
ENDMDL
MODEL 9
REMARK VINA RESULT:      -4.7     15.869     18.296
REMARK  5 active torsions:
REMARK  status: ('A' for Active; 'I' for Inactive)
REMARK    1  A    between atoms: C_2  and  N_1 
REMARK    2  A    between atoms: C_2  and  C_3 
REMARK    3  A    between atoms: C_2  and  C_12 
REMARK    4  A    between atoms: C_3  and  N_4 
REMARK    5  A    between atoms: C_12  and  O_13 
ROOT
HETATM    1  N   UNK N   1      36.063  13.681  14.577  0.00  0.00    -0.307 N 
HETATM    2  C   UNK N   1      36.891  14.474  15.314  0.00  0.00     0.101 A 
HETATM    3  C   UNK N   1      36.676  14.640  16.682  0.00  0.00     0.092 A 
HETATM    4  C   UNK N   1      35.600  13.987  17.277  0.00  0.00     0.250 A 
HETATM    5  O   UNK N   1      35.385  14.123  18.467  0.00  0.00    -0.268 OA
HETATM    6  N   UNK N   1      34.779  13.195  16.520  0.00  0.00    -0.275 N 
HETATM    7  C   UNK N   1      35.002  13.041  15.181  0.00  0.00     0.329 A 
HETATM    8  O   UNK N   1      34.248  12.341  14.523  0.00  0.00    -0.246 OA
HETATM    9  H   UNK N   1      34.022  12.731  16.946  0.00  0.00     0.173 HD
ENDROOT
BRANCH   1  10
HETATM   10  C   UNK N   1      36.275  13.566  13.139  0.00  0.00     0.168 C 
BRANCH  10  11
HETATM   11  C   UNK N   1      35.681  14.740  12.366  0.00  0.00     0.192 C 
BRANCH  11  12
HETATM   12  N   UNK N   1      36.699  15.409  11.571  0.00  0.00    -0.416 N 
HETATM   13  H   UNK N   1      36.596  16.083  10.813  0.00  0.00     0.150 HD
HETATM   14  H   UNK N   1      37.661  15.169  11.809  0.00  0.00     0.150 HD
ENDBRANCH  11  12
BRANCH  11  15
HETATM   15  C   UNK N   1      34.615  14.221  11.458  0.00  0.00     0.164 C 
HETATM   16  O   UNK N   1      34.777  13.164  10.872  0.00  0.00    -0.648 OA
BRANCH  15  17
HETATM   17  O   UNK N   1      33.476  14.920  11.277  0.00  0.00    -0.775 OA
HETATM   18  H   UNK N   1      32.612  14.759  11.598  0.00  0.00     0.167 HD
ENDBRANCH  15  17
ENDBRANCH  11  15
ENDBRANCH  10  11
ENDBRANCH   1  10
TORSDOF 5
ENDMDL
