MODEL 1
REMARK VINA RESULT:      -5.1      0.000      0.000
REMARK  1 active torsions:
REMARK  status: ('A' for Active; 'I' for Inactive)
REMARK    1  A    between atoms: O_14  and  C_4 
ROOT
HETATM    1  C   UNK N   1      34.934  15.931  11.023  0.00  0.00     0.182 A 
HETATM    2  C   UNK N   1      34.576  17.218   9.366  0.00  0.00     0.129 A 
HETATM    3  C   UNK N   1      33.742  16.167   9.281  0.00  0.00     0.139 A 
HETATM    4  C   UNK N   1      34.543  18.211   8.399  0.00  0.00     0.173 A 
HETATM    5  C   UNK N   1      32.805  16.992   7.315  0.00  0.00     0.157 A 
HETATM    6 Br   UNK N   1      31.565  16.826   5.887  0.00  0.00    -0.010 Br
HETATM    7  N   UNK N   1      35.342  17.100  10.455  0.00  0.00    -0.346 N 
ATOM      8  HN  UNK N   1      36.067  17.738  10.786  1.00  0.00     0.167 HD
HETATM    9  N   UNK N   1      33.940  15.335  10.309  0.00  0.00    -0.337 N 
HETATM   10  N   UNK N   1      32.851  16.022   8.278  0.00  0.00    -0.320 N 
ATOM     11  HN  UNK N   1      32.231  15.213   8.239  1.00  0.00     0.169 HD
HETATM   12  N   UNK N   1      33.646  18.079   7.377  0.00  0.00    -0.315 N 
ATOM     13  HN  UNK N   1      33.600  18.794   6.652  1.00  0.00     0.170 HD
HETATM   14  H   UNK N   1      33.476  14.488  10.505  0.00  0.00     0.168 HD
ENDROOT
BRANCH   4  15
HETATM   15  O   UNK N   1      35.365  19.273   8.460  0.00  0.00    -0.344 OA
HETATM   16  H   UNK N   1      36.265  19.182   8.217  0.00  0.00     0.219 HD
ENDBRANCH   4  15
TORSDOF 1
ENDMDL
MODEL 2
REMARK VINA RESULT:      -4.9     12.227     12.997
REMARK  1 active torsions:
REMARK  status: ('A' for Active; 'I' for Inactive)
REMARK    1  A    between atoms: O_14  and  C_4 
ROOT
HETATM    1  C   UNK N   1      24.357  11.867  11.178  0.00  0.00     0.182 A 
HETATM    2  C   UNK N   1      22.284  12.331  11.040  0.00  0.00     0.129 A 
HETATM    3  C   UNK N   1      22.962  13.141  10.208  0.00  0.00     0.139 A 
HETATM    4  C   UNK N   1      20.905  12.433  11.137  0.00  0.00     0.173 A 
HETATM    5  C   UNK N   1      20.996  14.187   9.525  0.00  0.00     0.157 A 
HETATM    6 Br   UNK N   1      20.105  15.485   8.464  0.00  0.00    -0.010 Br
HETATM    7  N   UNK N   1      23.135  11.514  11.668  0.00  0.00    -0.346 N 
ATOM      8  HN  UNK N   1      22.921  10.792  12.356  1.00  0.00     0.167 HD
HETATM    9  N   UNK N   1      24.272  12.876  10.269  0.00  0.00    -0.337 N 
HETATM   10  N   UNK N   1      22.356  14.072   9.442  0.00  0.00    -0.320 N 
ATOM     11  HN  UNK N   1      22.897  14.673   8.819  1.00  0.00     0.169 HD
HETATM   12  N   UNK N   1      20.277  13.371  10.368  0.00  0.00    -0.315 N 
ATOM     13  HN  UNK N   1      19.264  13.468  10.420  1.00  0.00     0.170 HD
HETATM   14  H   UNK N   1      25.004  13.309   9.773  0.00  0.00     0.168 HD
ENDROOT
BRANCH   4  15
HETATM   15  O   UNK N   1      20.202  11.636  11.960  0.00  0.00    -0.344 OA
HETATM   16  H   UNK N   1      19.804  10.856  11.629  0.00  0.00     0.219 HD
ENDBRANCH   4  15
TORSDOF 1
ENDMDL
MODEL 3
REMARK VINA RESULT:      -4.8     15.116     15.537
REMARK  1 active torsions:
REMARK  status: ('A' for Active; 'I' for Inactive)
REMARK    1  A    between atoms: O_14  and  C_4 
ROOT
HETATM    1  C   UNK N   1      20.822  20.755   2.310  0.00  0.00     0.182 A 
HETATM    2  C   UNK N   1      20.395  18.745   1.755  0.00  0.00     0.129 A 
HETATM    3  C   UNK N   1      20.338  18.841   3.095  0.00  0.00     0.139 A 
HETATM    4  C   UNK N   1      20.153  17.528   1.136  0.00  0.00     0.173 A 
HETATM    5  C   UNK N   1      19.809  16.582   3.296  0.00  0.00     0.157 A 
HETATM    6 Br   UNK N   1      19.401  15.078   4.380  0.00  0.00    -0.010 Br
HETATM    7  N   UNK N   1      20.698  19.936   1.229  0.00  0.00    -0.346 N 
ATOM      8  HN  UNK N   1      20.811  20.177   0.244  1.00  0.00     0.167 HD
HETATM    9  N   UNK N   1      20.602  20.095   3.480  0.00  0.00    -0.337 N 
HETATM   10  N   UNK N   1      20.050  17.790   3.890  0.00  0.00    -0.320 N 
ATOM     11  HN  UNK N   1      20.014  17.893   4.904  1.00  0.00     0.169 HD
HETATM   12  N   UNK N   1      19.860  16.455   1.927  0.00  0.00    -0.315 N 
ATOM     13  HN  UNK N   1      19.678  15.548   1.498  1.00  0.00     0.170 HD
HETATM   14  H   UNK N   1      20.631  20.457   4.395  0.00  0.00     0.168 HD
ENDROOT
BRANCH   4  15
HETATM   15  O   UNK N   1      20.203  17.403  -0.202  0.00  0.00    -0.344 OA
HETATM   16  H   UNK N   1      21.021  17.494  -0.650  0.00  0.00     0.219 HD
ENDBRANCH   4  15
TORSDOF 1
ENDMDL
MODEL 4
REMARK VINA RESULT:      -4.7      4.996      6.312
REMARK  1 active torsions:
REMARK  status: ('A' for Active; 'I' for Inactive)
REMARK    1  A    between atoms: O_14  and  C_4 
ROOT
HETATM    1  C   UNK N   1      35.871  15.278  10.521  0.00  0.00     0.182 A 
HETATM    2  C   UNK N   1      36.006  14.533  12.511  0.00  0.00     0.129 A 
HETATM    3  C   UNK N   1      35.177  13.740  11.811  0.00  0.00     0.139 A 
HETATM    4  C   UNK N   1      36.265  14.261  13.846  0.00  0.00     0.173 A 
HETATM    5  C   UNK N   1      34.811  12.381  13.667  0.00  0.00     0.157 A 
HETATM    6 Br   UNK N   1      33.973  10.877  14.465  0.00  0.00    -0.010 Br
HETATM    7  N   UNK N   1      36.462  15.515  11.726  0.00  0.00    -0.346 N 
ATOM      8  HN  UNK N   1      37.105  16.268  11.972  1.00  0.00     0.167 HD
HETATM    9  N   UNK N   1      35.069  14.180  10.552  0.00  0.00    -0.337 N 
HETATM   10  N   UNK N   1      34.567  12.664  12.351  0.00  0.00    -0.320 N 
ATOM     11  HN  UNK N   1      33.943  12.080  11.795  1.00  0.00     0.169 HD
HETATM   12  N   UNK N   1      35.655  13.176  14.407  0.00  0.00    -0.315 N 
ATOM     13  HN  UNK N   1      35.827  12.953  15.387  1.00  0.00     0.170 HD
HETATM   14  H   UNK N   1      34.534  13.799   9.818  0.00  0.00     0.168 HD
ENDROOT
BRANCH   4  15
HETATM   15  O   UNK N   1      37.089  15.038  14.569  0.00  0.00    -0.344 OA
HETATM   16  H   UNK N   1      37.270  14.824  15.464  0.00  0.00     0.219 HD
ENDBRANCH   4  15
TORSDOF 1
ENDMDL
MODEL 5
REMARK VINA RESULT:      -4.7     11.120     11.959
REMARK  1 active torsions:
REMARK  status: ('A' for Active; 'I' for Inactive)
REMARK    1  A    between atoms: O_14  and  C_4 
ROOT
HETATM    1  C   UNK N   1      20.994  12.103  11.634  0.00  0.00     0.182 A 
HETATM    2  C   UNK N   1      22.999  12.334  10.958  0.00  0.00     0.129 A 
HETATM    3  C   UNK N   1      22.173  12.868  10.042  0.00  0.00     0.139 A 
HETATM    4  C   UNK N   1      24.371  12.357  10.754  0.00  0.00     0.173 A 
HETATM    5  C   UNK N   1      23.968  13.471   8.685  0.00  0.00     0.157 A 
HETATM    6 Br   UNK N   1      24.636  14.266   7.096  0.00  0.00    -0.010 Br
HETATM    7  N   UNK N   1      22.287  11.843  11.977  0.00  0.00    -0.346 N 
ATOM      8  HN  UNK N   1      22.631  11.379  12.818  1.00  0.00     0.167 HD
HETATM    9  N   UNK N   1      20.901  12.740  10.435  0.00  0.00    -0.337 N 
HETATM   10  N   UNK N   1      22.619  13.440   8.903  0.00  0.00    -0.320 N 
ATOM     11  HN  UNK N   1      21.968  13.837   8.225  1.00  0.00     0.169 HD
HETATM   12  N   UNK N   1      24.837  12.932   9.607  0.00  0.00    -0.315 N 
ATOM     13  HN  UNK N   1      25.841  12.962   9.431  1.00  0.00     0.170 HD
HETATM   14  H   UNK N   1      20.087  13.037   9.967  0.00  0.00     0.168 HD
ENDROOT
BRANCH   4  15
HETATM   15  O   UNK N   1      25.219  11.831  11.654  0.00  0.00    -0.344 OA
HETATM   16  H   UNK N   1      25.281  10.901  11.751  0.00  0.00     0.219 HD
ENDBRANCH   4  15
TORSDOF 1
ENDMDL
MODEL 6
REMARK VINA RESULT:      -4.6      3.325      4.298
REMARK  1 active torsions:
REMARK  status: ('A' for Active; 'I' for Inactive)
REMARK    1  A    between atoms: O_14  and  C_4 
ROOT
HETATM    1  C   UNK N   1      32.361  15.558   8.950  0.00  0.00     0.182 A 
HETATM    2  C   UNK N   1      34.140  16.029  10.021  0.00  0.00     0.129 A 
HETATM    3  C   UNK N   1      33.712  14.815  10.411  0.00  0.00     0.139 A 
HETATM    4  C   UNK N   1      35.290  16.570  10.575  0.00  0.00     0.173 A 
HETATM    5  C   UNK N   1      35.496  14.595  11.892  0.00  0.00     0.157 A 
HETATM    6 Br   UNK N   1      36.437  13.587  13.197  0.00  0.00    -0.010 Br
HETATM    7  N   UNK N   1      33.309  16.526   9.099  0.00  0.00    -0.346 N 
ATOM      8  HN  UNK N   1      33.370  17.423   8.618  1.00  0.00     0.167 HD
HETATM    9  N   UNK N   1      32.593  14.486   9.755  0.00  0.00    -0.337 N 
HETATM   10  N   UNK N   1      34.360  14.076  11.336  0.00  0.00    -0.320 N 
ATOM     11  HN  UNK N   1      34.012  13.158  11.611  1.00  0.00     0.169 HD
HETATM   12  N   UNK N   1      35.956  15.835  11.512  0.00  0.00    -0.315 N 
ATOM     13  HN  UNK N   1      36.805  16.208  11.935  1.00  0.00     0.170 HD
HETATM   14  H   UNK N   1      32.061  13.662   9.837  0.00  0.00     0.168 HD
ENDROOT
BRANCH   4  15
HETATM   15  O   UNK N   1      35.740  17.781  10.203  0.00  0.00    -0.344 OA
HETATM   16  H   UNK N   1      36.661  17.950  10.175  0.00  0.00     0.219 HD
ENDBRANCH   4  15
TORSDOF 1
ENDMDL
MODEL 7
REMARK VINA RESULT:      -4.6      2.662      3.541
REMARK  1 active torsions:
REMARK  status: ('A' for Active; 'I' for Inactive)
REMARK    1  A    between atoms: O_14  and  C_4 
ROOT
HETATM    1  C   UNK N   1      35.659  14.298  12.649  0.00  0.00     0.182 A 
HETATM    2  C   UNK N   1      34.460  14.729  10.944  0.00  0.00     0.129 A 
HETATM    3  C   UNK N   1      35.300  15.758  11.149  0.00  0.00     0.139 A 
HETATM    4  C   UNK N   1      33.565  14.764   9.885  0.00  0.00     0.173 A 
HETATM    5  C   UNK N   1      34.444  16.903   9.310  0.00  0.00     0.157 A 
HETATM    6 Br   UNK N   1      34.440  18.425   8.175  0.00  0.00    -0.010 Br
HETATM    7  N   UNK N   1      34.661  13.790  11.873  0.00  0.00    -0.346 N 
ATOM      8  HN  UNK N   1      34.178  12.897  11.979  1.00  0.00     0.167 HD
HETATM    9  N   UNK N   1      36.071  15.521  12.216  0.00  0.00    -0.337 N 
HETATM   10  N   UNK N   1      35.320  16.852  10.359  0.00  0.00    -0.320 N 
ATOM     11  HN  UNK N   1      35.969  17.618  10.540  1.00  0.00     0.169 HD
HETATM   12  N   UNK N   1      33.573  15.864   9.077  0.00  0.00    -0.315 N 
ATOM     13  HN  UNK N   1      32.926  15.916   8.291  1.00  0.00     0.170 HD
HETATM   14  H   UNK N   1      36.773  16.095  12.600  0.00  0.00     0.168 HD
ENDROOT
BRANCH   4  15
HETATM   15  O   UNK N   1      32.714  13.748   9.657  0.00  0.00    -0.344 OA
HETATM   16  H   UNK N   1      31.966  13.631  10.209  0.00  0.00     0.219 HD
ENDBRANCH   4  15
TORSDOF 1
ENDMDL
MODEL 8
REMARK VINA RESULT:      -4.5     11.068     11.866
REMARK  1 active torsions:
REMARK  status: ('A' for Active; 'I' for Inactive)
REMARK    1  A    between atoms: O_14  and  C_4 
ROOT
HETATM    1  C   UNK N   1      22.973  11.837  12.322  0.00  0.00     0.182 A 
HETATM    2  C   UNK N   1      22.557  12.483  10.336  0.00  0.00     0.129 A 
HETATM    3  C   UNK N   1      23.882  12.568  10.547  0.00  0.00     0.139 A 
HETATM    4  C   UNK N   1      22.024  12.848   9.109  0.00  0.00     0.173 A 
HETATM    5  C   UNK N   1      24.236  13.367   8.388  0.00  0.00     0.157 A 
HETATM    6 Br   UNK N   1      25.415  13.983   7.033  0.00  0.00    -0.010 Br
HETATM    7  N   UNK N   1      21.954  12.024  11.437  0.00  0.00    -0.346 N 
ATOM      8  HN  UNK N   1      20.958  11.853  11.583  1.00  0.00     0.167 HD
HETATM    9  N   UNK N   1      24.180  12.169  11.788  0.00  0.00    -0.337 N 
HETATM   10  N   UNK N   1      24.744  13.003   9.603  0.00  0.00    -0.320 N 
ATOM     11  HN  UNK N   1      25.745  13.057   9.792  1.00  0.00     0.169 HD
HETATM   12  N   UNK N   1      22.884  13.290   8.144  0.00  0.00    -0.315 N 
ATOM     13  HN  UNK N   1      22.519  13.565   7.233  1.00  0.00     0.170 HD
HETATM   14  H   UNK N   1      25.066  12.126  12.217  0.00  0.00     0.168 HD
ENDROOT
BRANCH   4  15
HETATM   15  O   UNK N   1      20.704  12.772   8.872  0.00  0.00    -0.344 OA
HETATM   16  H   UNK N   1      20.166  13.534   8.968  0.00  0.00     0.219 HD
ENDBRANCH   4  15
TORSDOF 1
ENDMDL
MODEL 9
REMARK VINA RESULT:      -4.5      4.479      5.341
REMARK  1 active torsions:
REMARK  status: ('A' for Active; 'I' for Inactive)
REMARK    1  A    between atoms: O_14  and  C_4 
ROOT
HETATM    1  C   UNK N   1      31.427  16.692   8.677  0.00  0.00     0.182 A 
HETATM    2  C   UNK N   1      29.492  17.483   8.268  0.00  0.00     0.129 A 
HETATM    3  C   UNK N   1      30.141  17.312   7.103  0.00  0.00     0.139 A 
HETATM    4  C   UNK N   1      28.202  17.990   8.276  0.00  0.00     0.173 A 
HETATM    5  C   UNK N   1      28.317  18.116   5.899  0.00  0.00     0.157 A 
HETATM    6 Br   UNK N   1      27.504  18.555   4.241  0.00  0.00    -0.010 Br
HETATM    7  N   UNK N   1      30.276  17.101   9.282  0.00  0.00    -0.346 N 
ATOM      8  HN  UNK N   1      30.063  17.113  10.280  1.00  0.00     0.167 HD
HETATM    9  N   UNK N   1      31.364  16.815   7.323  0.00  0.00    -0.337 N 
HETATM   10  N   UNK N   1      29.589  17.615   5.909  0.00  0.00    -0.320 N 
ATOM     11  HN  UNK N   1      30.106  17.474   5.041  1.00  0.00     0.169 HD
HETATM   12  N   UNK N   1      27.629  18.301   7.076  0.00  0.00    -0.315 N 
ATOM     13  HN  UNK N   1      26.682  18.676   7.053  1.00  0.00     0.170 HD
HETATM   14  H   UNK N   1      32.057  16.590   6.660  0.00  0.00     0.168 HD
ENDROOT
BRANCH   4  15
HETATM   15  O   UNK N   1      27.530  18.171   9.426  0.00  0.00    -0.344 OA
HETATM   16  H   UNK N   1      26.641  17.885   9.499  0.00  0.00     0.219 HD
ENDBRANCH   4  15
TORSDOF 1
ENDMDL
