MODEL 1
REMARK VINA RESULT:      -4.4      0.000      0.000
REMARK  3 active torsions:
REMARK  status: ('A' for Active; 'I' for Inactive)
REMARK    1  A    between atoms: C_6  and  C_7 
REMARK    2  A    between atoms: C_6  and  C_8 
REMARK    3  A    between atoms: C_7  and  N_9 
ROOT
HETATM    1  C   UNK N   1      35.302  11.679  19.483  0.00  0.00     0.000 A 
HETATM    2  C   UNK N   1      35.171  13.052  19.261  0.00  0.00     0.001 A 
HETATM    3  C   UNK N   1      35.513  10.814  18.404  0.00  0.00     0.001 A 
HETATM    4  C   UNK N   1      35.249  13.563  17.962  0.00  0.00     0.007 A 
HETATM    5  C   UNK N   1      35.591  11.325  17.105  0.00  0.00     0.007 A 
HETATM    6  C   UNK N   1      35.461  12.698  16.874  0.00  0.00    -0.057 A 
ENDROOT
BRANCH   6   7
HETATM    7  C   UNK N   1      35.552  13.200  15.463  0.00  0.00     0.057 C 
BRANCH   7   8
HETATM    8  C   UNK N   1      36.734  14.119  15.198  0.00  0.00     0.115 C 
BRANCH   8   9
HETATM    9  N   UNK N   1      36.713  14.536  13.808  0.00  0.00    -0.430 N 
HETATM   10  H   UNK N   1      37.546  14.947  13.386  0.00  0.00     0.149 HD
HETATM   11  H   UNK N   1      35.865  14.417  13.252  0.00  0.00     0.149 HD
ENDBRANCH   8   9
ENDBRANCH   7   8
ENDBRANCH   6   7
TORSDOF 3
ENDMDL
MODEL 2
REMARK VINA RESULT:      -4.1     14.008     14.851
REMARK  3 active torsions:
REMARK  status: ('A' for Active; 'I' for Inactive)
REMARK    1  A    between atoms: C_6  and  C_7 
REMARK    2  A    between atoms: C_6  and  C_8 
REMARK    3  A    between atoms: C_7  and  N_9 
ROOT
HETATM    1  C   UNK N   1      20.252  13.049  10.722  0.00  0.00     0.000 A 
HETATM    2  C   UNK N   1      20.972  12.111  11.466  0.00  0.00     0.001 A 
HETATM    3  C   UNK N   1      20.863  13.708   9.651  0.00  0.00     0.001 A 
HETATM    4  C   UNK N   1      22.302  11.831  11.141  0.00  0.00     0.007 A 
HETATM    5  C   UNK N   1      22.193  13.429   9.326  0.00  0.00     0.007 A 
HETATM    6  C   UNK N   1      22.922  12.491  10.064  0.00  0.00    -0.057 A 
ENDROOT
BRANCH   6   7
HETATM    7  C   UNK N   1      24.347  12.224   9.678  0.00  0.00     0.057 C 
BRANCH   7   8
HETATM    8  C   UNK N   1      25.203  13.472   9.529  0.00  0.00     0.115 C 
BRANCH   8   9
HETATM    9  N   UNK N   1      25.937  13.698  10.760  0.00  0.00    -0.430 N 
HETATM   10  H   UNK N   1      25.752  13.117  11.578  0.00  0.00     0.149 HD
HETATM   11  H   UNK N   1      26.638  14.438  10.808  0.00  0.00     0.149 HD
ENDBRANCH   8   9
ENDBRANCH   7   8
ENDBRANCH   6   7
TORSDOF 3
ENDMDL
MODEL 3
REMARK VINA RESULT:      -4.1     14.487     15.287
REMARK  3 active torsions:
REMARK  status: ('A' for Active; 'I' for Inactive)
REMARK    1  A    between atoms: C_6  and  C_7 
REMARK    2  A    between atoms: C_6  and  C_8 
REMARK    3  A    between atoms: C_7  and  N_9 
ROOT
HETATM    1  C   UNK N   1      24.480  12.041  11.039  0.00  0.00     0.000 A 
HETATM    2  C   UNK N   1      23.307  11.788  11.755  0.00  0.00     0.001 A 
HETATM    3  C   UNK N   1      24.439  12.842   9.893  0.00  0.00     0.001 A 
HETATM    4  C   UNK N   1      22.094  12.335  11.328  0.00  0.00     0.007 A 
HETATM    5  C   UNK N   1      23.225  13.388   9.465  0.00  0.00     0.007 A 
HETATM    6  C   UNK N   1      22.047  13.140  10.176  0.00  0.00    -0.057 A 
ENDROOT
BRANCH   6   7
HETATM    7  C   UNK N   1      20.767  13.748   9.680  0.00  0.00     0.057 C 
BRANCH   7   8
HETATM    8  C   UNK N   1      20.935  15.100   9.004  0.00  0.00     0.115 C 
BRANCH   8   9
HETATM    9  N   UNK N   1      19.646  15.763   8.937  0.00  0.00    -0.430 N 
HETATM   10  H   UNK N   1      19.317  16.320   9.726  0.00  0.00     0.149 HD
HETATM   11  H   UNK N   1      19.068  15.673   8.100  0.00  0.00     0.149 HD
ENDBRANCH   8   9
ENDBRANCH   7   8
ENDBRANCH   6   7
TORSDOF 3
ENDMDL
MODEL 4
REMARK VINA RESULT:      -4.1      9.387     11.694
REMARK  3 active torsions:
REMARK  status: ('A' for Active; 'I' for Inactive)
REMARK    1  A    between atoms: C_6  and  C_7 
REMARK    2  A    between atoms: C_6  and  C_8 
REMARK    3  A    between atoms: C_7  and  N_9 
ROOT
HETATM    1  C   UNK N   1      31.336  17.127   5.390  0.00  0.00     0.000 A 
HETATM    2  C   UNK N   1      32.652  17.332   4.968  0.00  0.00     0.001 A 
HETATM    3  C   UNK N   1      31.029  17.149   6.754  0.00  0.00     0.001 A 
HETATM    4  C   UNK N   1      33.662  17.559   5.907  0.00  0.00     0.007 A 
HETATM    5  C   UNK N   1      32.039  17.376   7.694  0.00  0.00     0.007 A 
HETATM    6  C   UNK N   1      33.359  17.583   7.280  0.00  0.00    -0.057 A 
ENDROOT
BRANCH   6   7
HETATM    7  C   UNK N   1      34.409  17.823   8.325  0.00  0.00     0.057 C 
BRANCH   7   8
HETATM    8  C   UNK N   1      34.562  16.695   9.333  0.00  0.00     0.115 C 
BRANCH   8   9
HETATM    9  N   UNK N   1      35.076  17.234  10.579  0.00  0.00    -0.430 N 
HETATM   10  H   UNK N   1      36.055  17.510  10.649  0.00  0.00     0.149 HD
HETATM   11  H   UNK N   1      34.457  17.337  11.384  0.00  0.00     0.149 HD
ENDBRANCH   8   9
ENDBRANCH   7   8
ENDBRANCH   6   7
TORSDOF 3
ENDMDL
MODEL 5
REMARK VINA RESULT:      -4.1     11.163     12.184
REMARK  3 active torsions:
REMARK  status: ('A' for Active; 'I' for Inactive)
REMARK    1  A    between atoms: C_6  and  C_7 
REMARK    2  A    between atoms: C_6  and  C_8 
REMARK    3  A    between atoms: C_7  and  N_9 
ROOT
HETATM    1  C   UNK N   1      33.478  17.449   6.197  0.00  0.00     0.000 A 
HETATM    2  C   UNK N   1      32.208  17.040   5.784  0.00  0.00     0.001 A 
HETATM    3  C   UNK N   1      33.663  17.958   7.487  0.00  0.00     0.001 A 
HETATM    4  C   UNK N   1      31.122  17.138   6.658  0.00  0.00     0.007 A 
HETATM    5  C   UNK N   1      32.577  18.057   8.361  0.00  0.00     0.007 A 
HETATM    6  C   UNK N   1      31.302  17.650   7.956  0.00  0.00    -0.057 A 
ENDROOT
BRANCH   6   7
HETATM    7  C   UNK N   1      30.166  17.774   8.929  0.00  0.00     0.057 C 
BRANCH   7   8
HETATM    8  C   UNK N   1      29.015  18.642   8.443  0.00  0.00     0.115 C 
BRANCH   8   9
HETATM    9  N   UNK N   1      27.811  18.290   9.172  0.00  0.00    -0.430 N 
HETATM   10  H   UNK N   1      27.878  17.782  10.054  0.00  0.00     0.149 HD
HETATM   11  H   UNK N   1      26.896  18.550   8.802  0.00  0.00     0.149 HD
ENDBRANCH   8   9
ENDBRANCH   7   8
ENDBRANCH   6   7
TORSDOF 3
ENDMDL
MODEL 6
REMARK VINA RESULT:      -4.1     27.998     28.937
REMARK  3 active torsions:
REMARK  status: ('A' for Active; 'I' for Inactive)
REMARK    1  A    between atoms: C_6  and  C_7 
REMARK    2  A    between atoms: C_6  and  C_8 
REMARK    3  A    between atoms: C_7  and  N_9 
ROOT
HETATM    1  C   UNK N   1      26.948  26.832  -7.917  0.00  0.00     0.000 A 
HETATM    2  C   UNK N   1      27.669  27.840  -7.272  0.00  0.00     0.001 A 
HETATM    3  C   UNK N   1      25.799  26.304  -7.320  0.00  0.00     0.001 A 
HETATM    4  C   UNK N   1      27.244  28.321  -6.031  0.00  0.00     0.007 A 
HETATM    5  C   UNK N   1      25.373  26.785  -6.079  0.00  0.00     0.007 A 
HETATM    6  C   UNK N   1      26.089  27.793  -5.425  0.00  0.00    -0.057 A 
ENDROOT
BRANCH   6   7
HETATM    7  C   UNK N   1      25.594  28.278  -4.094  0.00  0.00     0.057 C 
BRANCH   7   8
HETATM    8  C   UNK N   1      26.404  29.421  -3.501  0.00  0.00     0.115 C 
BRANCH   8   9
HETATM    9  N   UNK N   1      27.207  28.918  -2.402  0.00  0.00    -0.430 N 
HETATM   10  H   UNK N   1      28.024  29.440  -2.086  0.00  0.00     0.149 HD
HETATM   11  H   UNK N   1      26.954  28.040  -1.946  0.00  0.00     0.149 HD
ENDBRANCH   8   9
ENDBRANCH   7   8
ENDBRANCH   6   7
TORSDOF 3
ENDMDL
MODEL 7
REMARK VINA RESULT:      -4.0      2.164      2.727
REMARK  3 active torsions:
REMARK  status: ('A' for Active; 'I' for Inactive)
REMARK    1  A    between atoms: C_6  and  C_7 
REMARK    2  A    between atoms: C_6  and  C_8 
REMARK    3  A    between atoms: C_7  and  N_9 
ROOT
HETATM    1  C   UNK N   1      35.340  12.976  18.779  0.00  0.00     0.000 A 
HETATM    2  C   UNK N   1      35.080  13.561  17.537  0.00  0.00     0.001 A 
HETATM    3  C   UNK N   1      35.390  11.583  18.899  0.00  0.00     0.001 A 
HETATM    4  C   UNK N   1      34.869  12.756  16.414  0.00  0.00     0.007 A 
HETATM    5  C   UNK N   1      35.178  10.778  17.776  0.00  0.00     0.007 A 
HETATM    6  C   UNK N   1      34.917  11.355  16.529  0.00  0.00    -0.057 A 
ENDROOT
BRANCH   6   7
HETATM    7  C   UNK N   1      34.697  10.451  15.351  0.00  0.00     0.057 C 
BRANCH   7   8
HETATM    8  C   UNK N   1      33.455  10.774  14.535  0.00  0.00     0.115 C 
BRANCH   8   9
HETATM    9  N   UNK N   1      33.783  10.715  13.123  0.00  0.00    -0.430 N 
HETATM   10  H   UNK N   1      33.467   9.926  12.558  0.00  0.00     0.149 HD
HETATM   11  H   UNK N   1      34.331  11.462  12.694  0.00  0.00     0.149 HD
ENDBRANCH   8   9
ENDBRANCH   7   8
ENDBRANCH   6   7
TORSDOF 3
ENDMDL
MODEL 8
REMARK VINA RESULT:      -4.0      3.328      4.998
REMARK  3 active torsions:
REMARK  status: ('A' for Active; 'I' for Inactive)
REMARK    1  A    between atoms: C_6  and  C_7 
REMARK    2  A    between atoms: C_6  and  C_8 
REMARK    3  A    between atoms: C_7  and  N_9 
ROOT
HETATM    1  C   UNK N   1      35.231  13.126  17.023  0.00  0.00     0.000 A 
HETATM    2  C   UNK N   1      35.320  11.742  16.857  0.00  0.00     0.001 A 
HETATM    3  C   UNK N   1      35.188  13.674  18.309  0.00  0.00     0.001 A 
HETATM    4  C   UNK N   1      35.366  10.904  17.974  0.00  0.00     0.007 A 
HETATM    5  C   UNK N   1      35.235  12.835  19.427  0.00  0.00     0.007 A 
HETATM    6  C   UNK N   1      35.324  11.449  19.270  0.00  0.00    -0.057 A 
ENDROOT
BRANCH   6   7
HETATM    7  C   UNK N   1      35.371  10.588  20.498  0.00  0.00     0.057 C 
BRANCH   7   8
HETATM    8  C   UNK N   1      34.011  10.107  20.982  0.00  0.00     0.115 C 
BRANCH   8   9
HETATM    9  N   UNK N   1      33.509  11.026  21.986  0.00  0.00    -0.430 N 
HETATM   10  H   UNK N   1      34.133  11.380  22.711  0.00  0.00     0.149 HD
HETATM   11  H   UNK N   1      32.531  11.318  21.968  0.00  0.00     0.149 HD
ENDBRANCH   8   9
ENDBRANCH   7   8
ENDBRANCH   6   7
TORSDOF 3
ENDMDL
MODEL 9
REMARK VINA RESULT:      -4.0     26.464     27.748
REMARK  3 active torsions:
REMARK  status: ('A' for Active; 'I' for Inactive)
REMARK    1  A    between atoms: C_6  and  C_7 
REMARK    2  A    between atoms: C_6  and  C_8 
REMARK    3  A    between atoms: C_7  and  N_9 
ROOT
HETATM    1  C   UNK N   1      25.842  27.559  -3.576  0.00  0.00     0.000 A 
HETATM    2  C   UNK N   1      26.433  26.310  -3.373  0.00  0.00     0.001 A 
HETATM    3  C   UNK N   1      25.236  27.854  -4.801  0.00  0.00     0.001 A 
HETATM    4  C   UNK N   1      26.420  25.354  -4.394  0.00  0.00     0.007 A 
HETATM    5  C   UNK N   1      25.222  26.899  -5.821  0.00  0.00     0.007 A 
HETATM    6  C   UNK N   1      25.812  25.646  -5.628  0.00  0.00    -0.057 A 
ENDROOT
BRANCH   6   7
HETATM    7  C   UNK N   1      25.773  24.653  -6.752  0.00  0.00     0.057 C 
BRANCH   7   8
HETATM    8  C   UNK N   1      26.106  23.227  -6.342  0.00  0.00     0.115 C 
BRANCH   8   9
HETATM    9  N   UNK N   1      24.978  22.366  -6.647  0.00  0.00    -0.430 N 
HETATM   10  H   UNK N   1      24.370  22.584  -7.437  0.00  0.00     0.149 HD
HETATM   11  H   UNK N   1      24.794  21.543  -6.072  0.00  0.00     0.149 HD
ENDBRANCH   8   9
ENDBRANCH   7   8
ENDBRANCH   6   7
TORSDOF 3
ENDMDL
