MODEL 1
REMARK VINA RESULT:      -5.4      0.000      0.000
REMARK  15 active torsions:
REMARK  status: ('A' for Active; 'I' for Inactive)
REMARK    1  A    between atoms: C_3  and  C_2 
REMARK    2  A    between atoms: C_4  and  C_2 
REMARK    3  A    between atoms: C_5  and  C_3 
REMARK    4  A    between atoms: C_12  and  C_4 
REMARK    5  A    between atoms: N_16  and  C_5 
REMARK    6  A    between atoms: C_11  and  C_7 
REMARK    7  A    between atoms: C_10  and  C_8 
REMARK    8  A    between atoms: O_26  and  C_8 
REMARK    9  A    between atoms: C_14  and  C_12 
REMARK   10  A    between atoms: C_12  and  N_15 
REMARK   11  A    between atoms: O_20  and  C_13 
REMARK   12  A    between atoms: O_22  and  C_14 
REMARK   13  A    between atoms: P_27  and  O_23 
REMARK   14  A    between atoms: P_27  and  O_24 
REMARK   15  A    between atoms: P_27  and  O_26 
ROOT
HETATM    1  C   UNK N   1      23.280  11.792  13.289  0.00  0.00     0.071 C 
HETATM    2  C   UNK N   1      25.046  12.662  10.136  0.00  0.00     0.098 A 
HETATM    3  C   UNK N   1      23.512  12.138  11.859  0.00  0.00     0.039 A 
HETATM    4  C   UNK N   1      24.017  12.778   9.198  0.00  0.00    -0.004 A 
HETATM    5  C   UNK N   1      22.669  12.574   9.614  0.00  0.00     0.024 A 
HETATM    6  C   UNK N   1      22.439  12.229  10.963  0.00  0.00     0.100 A 
HETATM    7  N   UNK N   1      24.778  12.365  11.430  0.00  0.00    -0.367 N 
ATOM      8  HN  UNK N   1      25.547  12.311  12.097  1.00  0.00     0.165 HD
ENDROOT
BRANCH   5   9
HETATM    9  C   UNK N   1      21.475  12.639   8.704  0.00  0.00     0.097 C 
HETATM   10  N   UNK N   1      20.761  13.690   8.468  0.00  0.00    -0.398 N 
ATOM     11  HN  UNK N   1      19.995  13.595   7.801  1.00  0.00     0.158 HD
BRANCH  10  12
HETATM   12  C   UNK N   1      20.957  14.980   9.070  0.00  0.00     0.119 C 
BRANCH  12  13
HETATM   13  C   UNK N   1      19.647  15.735   9.102  0.00  0.00     0.020 C 
BRANCH  13  14
HETATM   14  C   UNK N   1      19.839  17.036   8.350  0.00  0.00     0.004 C 
BRANCH  14  15
HETATM   15  C   UNK N   1      20.831  16.917   7.193  0.00  0.00     0.035 C 
BRANCH  15  16
HETATM   16  C   UNK N   1      20.191  16.818   5.799  0.00  0.00     0.173 C 
BRANCH  16  17
HETATM   17  C   UNK N   1      19.233  15.663   5.726  0.00  0.00     0.163 C 
HETATM   18  O   UNK N   1      18.041  15.874   5.572  0.00  0.00    -0.648 OA
BRANCH  17  19
HETATM   19  O   UNK N   1      19.676  14.391   5.808  0.00  0.00    -0.775 OA
HETATM   20  H   UNK N   1      20.042  13.948   6.549  0.00  0.00     0.167 HD
ENDBRANCH  17  19
ENDBRANCH  16  17
BRANCH  16  21
HETATM   21  N   UNK N   1      21.215  16.640   4.779  0.00  0.00    -0.418 N 
HETATM   22  H   UNK N   1      21.974  15.959   4.808  0.00  0.00     0.150 HD
HETATM   23  H   UNK N   1      21.170  17.250   3.963  0.00  0.00     0.150 HD
ENDBRANCH  16  21
ENDBRANCH  15  16
ENDBRANCH  14  15
ENDBRANCH  13  14
ENDBRANCH  12  13
ENDBRANCH  10  12
ENDBRANCH   5   9
BRANCH   4  24
HETATM   24  C   UNK N   1      24.414  12.977   7.769  0.00  0.00     0.221 C 
BRANCH  24  25
HETATM   25  O   UNK N   1      24.914  14.268   7.561  0.00  0.00    -0.292 OA
BRANCH  25  26
HETATM   26  P   UNK N   1      24.192  14.803   6.070  0.00  0.00     0.391 P 
HETATM   27  O   UNK N   1      22.740  14.256   6.050  0.00  0.00    -0.632 OA
BRANCH  26  28
HETATM   28  O   UNK N   1      24.987  14.143   4.673  0.00  0.00    -0.307 OA
HETATM   29  H   UNK N   1      25.575  13.904   3.940  0.00  0.00     0.222 HD
ENDBRANCH  26  28
BRANCH  26  30
HETATM   30  O   UNK N   1      24.080  16.533   5.989  0.00  0.00    -0.307 OA
HETATM   31  H   UNK N   1      24.616  17.106   6.560  0.00  0.00     0.222 HD
ENDBRANCH  26  30
ENDBRANCH  25  26
ENDBRANCH  24  25
ENDBRANCH   4  24
BRANCH   6  32
HETATM   32  O   UNK N   1      21.185  12.000  11.402  0.00  0.00    -0.358 OA
HETATM   33  H   UNK N   1      20.826  11.135  11.371  0.00  0.00     0.217 HD
ENDBRANCH   6  32
TORSDOF 15
ENDMDL
MODEL 2
REMARK VINA RESULT:      -5.0      5.801      9.006
REMARK  15 active torsions:
REMARK  status: ('A' for Active; 'I' for Inactive)
REMARK    1  A    between atoms: C_3  and  C_2 
REMARK    2  A    between atoms: C_4  and  C_2 
REMARK    3  A    between atoms: C_5  and  C_3 
REMARK    4  A    between atoms: C_12  and  C_4 
REMARK    5  A    between atoms: N_16  and  C_5 
REMARK    6  A    between atoms: C_11  and  C_7 
REMARK    7  A    between atoms: C_10  and  C_8 
REMARK    8  A    between atoms: O_26  and  C_8 
REMARK    9  A    between atoms: C_14  and  C_12 
REMARK   10  A    between atoms: C_12  and  N_15 
REMARK   11  A    between atoms: O_20  and  C_13 
REMARK   12  A    between atoms: O_22  and  C_14 
REMARK   13  A    between atoms: P_27  and  O_23 
REMARK   14  A    between atoms: P_27  and  O_24 
REMARK   15  A    between atoms: P_27  and  O_26 
ROOT
HETATM    1  C   UNK N   1      20.691  20.893   0.979  0.00  0.00     0.071 C 
HETATM    2  C   UNK N   1      19.994  17.510   2.352  0.00  0.00     0.098 A 
HETATM    3  C   UNK N   1      20.744  19.701   1.870  0.00  0.00     0.039 A 
HETATM    4  C   UNK N   1      20.803  17.437   3.488  0.00  0.00    -0.004 A 
HETATM    5  C   UNK N   1      21.613  18.555   3.838  0.00  0.00     0.024 A 
HETATM    6  C   UNK N   1      21.585  19.684   2.991  0.00  0.00     0.100 A 
HETATM    7  N   UNK N   1      19.968  18.627   1.585  0.00  0.00    -0.367 N 
ATOM      8  HN  UNK N   1      19.349  18.660   0.775  1.00  0.00     0.165 HD
ENDROOT
BRANCH   5   9
HETATM    9  C   UNK N   1      22.548  18.598   5.014  0.00  0.00     0.097 C 
HETATM   10  N   UNK N   1      23.827  18.413   4.971  0.00  0.00    -0.398 N 
ATOM     11  HN  UNK N   1      24.342  18.503   5.846  1.00  0.00     0.158 HD
BRANCH  10  12
HETATM   12  C   UNK N   1      24.579  18.090   3.790  0.00  0.00     0.119 C 
BRANCH  12  13
HETATM   13  C   UNK N   1      26.040  17.916   4.144  0.00  0.00     0.020 C 
BRANCH  13  14
HETATM   14  C   UNK N   1      26.781  19.156   3.690  0.00  0.00     0.004 C 
BRANCH  14  15
HETATM   15  C   UNK N   1      27.682  19.746   4.775  0.00  0.00     0.035 C 
BRANCH  15  16
HETATM   16  C   UNK N   1      27.176  19.555   6.214  0.00  0.00     0.173 C 
BRANCH  16  17
HETATM   17  C   UNK N   1      26.722  20.860   6.802  0.00  0.00     0.163 C 
HETATM   18  O   UNK N   1      26.987  21.906   6.231  0.00  0.00    -0.648 OA
BRANCH  17  19
HETATM   19  O   UNK N   1      26.006  20.892   7.945  0.00  0.00    -0.775 OA
HETATM   20  H   UNK N   1      26.315  20.841   8.828  0.00  0.00     0.167 HD
ENDBRANCH  17  19
ENDBRANCH  16  17
BRANCH  16  21
HETATM   21  N   UNK N   1      28.228  19.003   7.056  0.00  0.00    -0.418 N 
HETATM   22  H   UNK N   1      28.088  18.408   7.872  0.00  0.00     0.150 HD
HETATM   23  H   UNK N   1      29.190  19.233   6.808  0.00  0.00     0.150 HD
ENDBRANCH  16  21
ENDBRANCH  15  16
ENDBRANCH  14  15
ENDBRANCH  13  14
ENDBRANCH  12  13
ENDBRANCH  10  12
ENDBRANCH   5   9
BRANCH   4  24
HETATM   24  C   UNK N   1      20.868  16.121   4.197  0.00  0.00     0.221 C 
BRANCH  24  25
HETATM   25  O   UNK N   1      19.956  15.210   3.653  0.00  0.00    -0.292 OA
BRANCH  25  26
HETATM   26  P   UNK N   1      18.965  14.701   4.991  0.00  0.00     0.391 P 
HETATM   27  O   UNK N   1      19.929  14.234   6.114  0.00  0.00    -0.632 OA
BRANCH  26  28
HETATM   28  O   UNK N   1      17.969  13.333   4.597  0.00  0.00    -0.307 OA
HETATM   29  H   UNK N   1      17.434  12.525   4.569  0.00  0.00     0.222 HD
ENDBRANCH  26  28
BRANCH  26  30
HETATM   30  O   UNK N   1      18.031  16.011   5.642  0.00  0.00    -0.307 OA
HETATM   31  H   UNK N   1      18.020  16.206   6.592  0.00  0.00     0.222 HD
ENDBRANCH  26  30
ENDBRANCH  25  26
ENDBRANCH  24  25
ENDBRANCH   4  24
BRANCH   6  32
HETATM   32  O   UNK N   1      22.352  20.759   3.263  0.00  0.00    -0.358 OA
HETATM   33  H   UNK N   1      21.981  21.619   3.242  0.00  0.00     0.217 HD
ENDBRANCH   6  32
TORSDOF 15
ENDMDL
MODEL 3
REMARK VINA RESULT:      -4.9      8.026     10.985
REMARK  15 active torsions:
REMARK  status: ('A' for Active; 'I' for Inactive)
REMARK    1  A    between atoms: C_3  and  C_2 
REMARK    2  A    between atoms: C_4  and  C_2 
REMARK    3  A    between atoms: C_5  and  C_3 
REMARK    4  A    between atoms: C_12  and  C_4 
REMARK    5  A    between atoms: N_16  and  C_5 
REMARK    6  A    between atoms: C_11  and  C_7 
REMARK    7  A    between atoms: C_10  and  C_8 
REMARK    8  A    between atoms: O_26  and  C_8 
REMARK    9  A    between atoms: C_14  and  C_12 
REMARK   10  A    between atoms: C_12  and  N_15 
REMARK   11  A    between atoms: O_20  and  C_13 
REMARK   12  A    between atoms: O_22  and  C_14 
REMARK   13  A    between atoms: P_27  and  O_23 
REMARK   14  A    between atoms: P_27  and  O_24 
REMARK   15  A    between atoms: P_27  and  O_26 
ROOT
HETATM    1  C   UNK N   1      26.730  21.687   6.248  0.00  0.00     0.071 C 
HETATM    2  C   UNK N   1      28.309  18.861   4.421  0.00  0.00     0.098 A 
HETATM    3  C   UNK N   1      27.361  20.365   5.983  0.00  0.00     0.039 A 
HETATM    4  C   UNK N   1      28.556  17.915   5.419  0.00  0.00    -0.004 A 
HETATM    5  C   UNK N   1      28.176  18.204   6.762  0.00  0.00     0.024 A 
HETATM    6  C   UNK N   1      27.593  19.461   7.028  0.00  0.00     0.100 A 
HETATM    7  N   UNK N   1      27.713  20.042   4.714  0.00  0.00    -0.367 N 
ATOM      8  HN  UNK N   1      27.523  20.703   3.961  1.00  0.00     0.165 HD
ENDROOT
BRANCH   5   9
HETATM    9  C   UNK N   1      28.410  17.289   7.931  0.00  0.00     0.097 C 
HETATM   10  N   UNK N   1      29.432  17.317   8.721  0.00  0.00    -0.398 N 
ATOM     11  HN  UNK N   1      29.444  16.654   9.495  1.00  0.00     0.158 HD
BRANCH  10  12
HETATM   12  C   UNK N   1      30.555  18.206   8.594  0.00  0.00     0.119 C 
BRANCH  12  13
HETATM   13  C   UNK N   1      31.836  17.459   8.892  0.00  0.00     0.020 C 
BRANCH  13  14
HETATM   14  C   UNK N   1      31.599  15.991   8.601  0.00  0.00     0.004 C 
BRANCH  14  15
HETATM   15  C   UNK N   1      32.741  15.343   7.820  0.00  0.00     0.035 C 
BRANCH  15  16
HETATM   16  C   UNK N   1      34.074  16.107   7.866  0.00  0.00     0.173 C 
BRANCH  16  17
HETATM   17  C   UNK N   1      34.394  16.714   6.530  0.00  0.00     0.163 C 
HETATM   18  O   UNK N   1      34.341  17.926   6.388  0.00  0.00    -0.648 OA
BRANCH  17  19
HETATM   19  O   UNK N   1      34.760  15.940   5.488  0.00  0.00    -0.775 OA
HETATM   20  H   UNK N   1      34.973  15.027   5.487  0.00  0.00     0.167 HD
ENDBRANCH  17  19
ENDBRANCH  16  17
BRANCH  16  21
HETATM   21  N   UNK N   1      35.161  15.215   8.246  0.00  0.00    -0.418 N 
HETATM   22  H   UNK N   1      35.100  14.457   8.926  0.00  0.00     0.150 HD
HETATM   23  H   UNK N   1      36.062  15.361   7.791  0.00  0.00     0.150 HD
ENDBRANCH  16  21
ENDBRANCH  15  16
ENDBRANCH  14  15
ENDBRANCH  13  14
ENDBRANCH  12  13
ENDBRANCH  10  12
ENDBRANCH   5   9
BRANCH   4  24
HETATM   24  C   UNK N   1      29.335  16.699   5.029  0.00  0.00     0.221 C 
BRANCH  24  25
HETATM   25  O   UNK N   1      30.686  16.837   5.366  0.00  0.00    -0.292 OA
BRANCH  25  26
HETATM   26  P   UNK N   1      31.551  16.687   3.863  0.00  0.00     0.391 P 
HETATM   27  O   UNK N   1      32.161  15.260   3.834  0.00  0.00    -0.632 OA
BRANCH  26  28
HETATM   28  O   UNK N   1      32.884  17.795   3.749  0.00  0.00    -0.307 OA
HETATM   29  H   UNK N   1      33.630  18.400   3.884  0.00  0.00     0.222 HD
ENDBRANCH  26  28
BRANCH  26  30
HETATM   30  O   UNK N   1      30.494  16.809   2.492  0.00  0.00    -0.307 OA
HETATM   31  H   UNK N   1      30.831  17.007   1.604  0.00  0.00     0.222 HD
ENDBRANCH  26  30
ENDBRANCH  25  26
ENDBRANCH  24  25
ENDBRANCH   4  24
BRANCH   6  32
HETATM   32  O   UNK N   1      27.239  19.794   8.286  0.00  0.00    -0.358 OA
HETATM   33  H   UNK N   1      27.748  19.493   9.013  0.00  0.00     0.217 HD
ENDBRANCH   6  32
TORSDOF 15
ENDMDL
MODEL 4
REMARK VINA RESULT:      -4.9      6.971      8.185
REMARK  15 active torsions:
REMARK  status: ('A' for Active; 'I' for Inactive)
REMARK    1  A    between atoms: C_3  and  C_2 
REMARK    2  A    between atoms: C_4  and  C_2 
REMARK    3  A    between atoms: C_5  and  C_3 
REMARK    4  A    between atoms: C_12  and  C_4 
REMARK    5  A    between atoms: N_16  and  C_5 
REMARK    6  A    between atoms: C_11  and  C_7 
REMARK    7  A    between atoms: C_10  and  C_8 
REMARK    8  A    between atoms: O_26  and  C_8 
REMARK    9  A    between atoms: C_14  and  C_12 
REMARK   10  A    between atoms: C_12  and  N_15 
REMARK   11  A    between atoms: O_20  and  C_13 
REMARK   12  A    between atoms: O_22  and  C_14 
REMARK   13  A    between atoms: P_27  and  O_23 
REMARK   14  A    between atoms: P_27  and  O_24 
REMARK   15  A    between atoms: P_27  and  O_26 
ROOT
HETATM    1  C   UNK N   1      33.462  17.685   8.441  0.00  0.00     0.071 C 
HETATM    2  C   UNK N   1      31.374  16.595   5.565  0.00  0.00     0.098 A 
HETATM    3  C   UNK N   1      32.263  17.357   7.622  0.00  0.00     0.039 A 
HETATM    4  C   UNK N   1      30.065  16.713   6.039  0.00  0.00    -0.004 A 
HETATM    5  C   UNK N   1      29.845  17.187   7.365  0.00  0.00     0.024 A 
HETATM    6  C   UNK N   1      30.975  17.485   8.157  0.00  0.00     0.100 A 
HETATM    7  N   UNK N   1      32.430  16.927   6.346  0.00  0.00    -0.367 N 
ATOM      8  HN  UNK N   1      33.373  16.854   5.965  1.00  0.00     0.165 HD
ENDROOT
BRANCH   5   9
HETATM    9  C   UNK N   1      28.495  17.333   8.006  0.00  0.00     0.097 C 
HETATM   10  N   UNK N   1      27.762  18.398   7.993  0.00  0.00    -0.398 N 
ATOM     11  HN  UNK N   1      26.849  18.344   8.444  1.00  0.00     0.158 HD
BRANCH  10  12
HETATM   12  C   UNK N   1      28.131  19.652   7.396  0.00  0.00     0.119 C 
BRANCH  12  13
HETATM   13  C   UNK N   1      27.018  20.658   7.588  0.00  0.00     0.020 C 
BRANCH  13  14
HETATM   14  C   UNK N   1      26.774  21.343   6.259  0.00  0.00     0.004 C 
BRANCH  14  15
HETATM   15  C   UNK N   1      25.969  20.485   5.282  0.00  0.00     0.035 C 
BRANCH  15  16
HETATM   16  C   UNK N   1      26.404  20.594   3.812  0.00  0.00     0.173 C 
BRANCH  16  17
HETATM   17  C   UNK N   1      25.316  20.120   2.892  0.00  0.00     0.163 C 
HETATM   18  O   UNK N   1      25.086  20.732   1.861  0.00  0.00    -0.648 OA
BRANCH  17  19
HETATM   19  O   UNK N   1      24.602  19.012   3.178  0.00  0.00    -0.775 OA
HETATM   20  H   UNK N   1      23.693  18.847   3.016  0.00  0.00     0.167 HD
ENDBRANCH  17  19
ENDBRANCH  16  17
BRANCH  16  21
HETATM   21  N   UNK N   1      27.599  19.797   3.573  0.00  0.00    -0.418 N 
HETATM   22  H   UNK N   1      27.869  19.380   2.682  0.00  0.00     0.150 HD
HETATM   23  H   UNK N   1      28.221  19.641   4.366  0.00  0.00     0.150 HD
ENDBRANCH  16  21
ENDBRANCH  15  16
ENDBRANCH  14  15
ENDBRANCH  13  14
ENDBRANCH  12  13
ENDBRANCH  10  12
ENDBRANCH   5   9
BRANCH   4  24
HETATM   24  C   UNK N   1      28.971  16.200   5.158  0.00  0.00     0.221 C 
BRANCH  24  25
HETATM   25  O   UNK N   1      28.063  17.216   4.839  0.00  0.00    -0.292 OA
BRANCH  25  26
HETATM   26  P   UNK N   1      26.535  16.412   4.617  0.00  0.00     0.391 P 
HETATM   27  O   UNK N   1      26.716  14.955   5.119  0.00  0.00    -0.632 OA
BRANCH  26  28
HETATM   28  O   UNK N   1      26.078  16.304   2.944  0.00  0.00    -0.307 OA
HETATM   29  H   UNK N   1      25.906  16.424   1.997  0.00  0.00     0.222 HD
ENDBRANCH  26  28
BRANCH  26  30
HETATM   30  O   UNK N   1      25.282  17.125   5.582  0.00  0.00    -0.307 OA
HETATM   31  H   UNK N   1      25.131  18.083   5.595  0.00  0.00     0.222 HD
ENDBRANCH  26  30
ENDBRANCH  25  26
ENDBRANCH  24  25
ENDBRANCH   4  24
BRANCH   6  32
HETATM   32  O   UNK N   1      30.822  17.912   9.427  0.00  0.00    -0.358 OA
HETATM   33  H   UNK N   1      30.305  18.672   9.608  0.00  0.00     0.217 HD
ENDBRANCH   6  32
TORSDOF 15
ENDMDL
MODEL 5
REMARK VINA RESULT:      -4.9      9.235     11.521
REMARK  15 active torsions:
REMARK  status: ('A' for Active; 'I' for Inactive)
REMARK    1  A    between atoms: C_3  and  C_2 
REMARK    2  A    between atoms: C_4  and  C_2 
REMARK    3  A    between atoms: C_5  and  C_3 
REMARK    4  A    between atoms: C_12  and  C_4 
REMARK    5  A    between atoms: N_16  and  C_5 
REMARK    6  A    between atoms: C_11  and  C_7 
REMARK    7  A    between atoms: C_10  and  C_8 
REMARK    8  A    between atoms: O_26  and  C_8 
REMARK    9  A    between atoms: C_14  and  C_12 
REMARK   10  A    between atoms: C_12  and  N_15 
REMARK   11  A    between atoms: O_20  and  C_13 
REMARK   12  A    between atoms: O_22  and  C_14 
REMARK   13  A    between atoms: P_27  and  O_23 
REMARK   14  A    between atoms: P_27  and  O_24 
REMARK   15  A    between atoms: P_27  and  O_26 
ROOT
HETATM    1  C   UNK N   1      34.898  12.306   3.091  0.00  0.00     0.071 C 
HETATM    2  C   UNK N   1      34.136  14.715   5.818  0.00  0.00     0.098 A 
HETATM    3  C   UNK N   1      34.428  13.536   3.788  0.00  0.00     0.039 A 
HETATM    4  C   UNK N   1      33.581  15.810   5.151  0.00  0.00    -0.004 A 
HETATM    5  C   UNK N   1      33.433  15.760   3.735  0.00  0.00     0.024 A 
HETATM    6  C   UNK N   1      33.890  14.606   3.062  0.00  0.00     0.100 A 
HETATM    7  N   UNK N   1      34.529  13.611   5.138  0.00  0.00    -0.367 N 
ATOM      8  HN  UNK N   1      34.908  12.817   5.654  1.00  0.00     0.165 HD
ENDROOT
BRANCH   5   9
HETATM    9  C   UNK N   1      32.880  16.876   2.895  0.00  0.00     0.097 C 
HETATM   10  N   UNK N   1      31.630  17.182   2.771  0.00  0.00    -0.398 N 
ATOM     11  HN  UNK N   1      31.401  17.987   2.189  1.00  0.00     0.158 HD
BRANCH  10  12
HETATM   12  C   UNK N   1      30.538  16.477   3.385  0.00  0.00     0.119 C 
BRANCH  12  13
HETATM   13  C   UNK N   1      29.924  17.331   4.472  0.00  0.00     0.020 C 
BRANCH  13  14
HETATM   14  C   UNK N   1      28.867  16.504   5.174  0.00  0.00     0.004 C 
BRANCH  14  15
HETATM   15  C   UNK N   1      28.185  17.252   6.320  0.00  0.00     0.035 C 
BRANCH  15  16
HETATM   16  C   UNK N   1      28.672  16.867   7.726  0.00  0.00     0.173 C 
BRANCH  16  17
HETATM   17  C   UNK N   1      27.987  17.693   8.777  0.00  0.00     0.163 C 
HETATM   18  O   UNK N   1      27.760  17.208   9.875  0.00  0.00    -0.648 OA
BRANCH  17  19
HETATM   19  O   UNK N   1      27.637  18.973   8.533  0.00  0.00    -0.775 OA
HETATM   20  H   UNK N   1      26.967  19.483   8.946  0.00  0.00     0.167 HD
ENDBRANCH  17  19
ENDBRANCH  16  17
BRANCH  16  21
HETATM   21  N   UNK N   1      30.110  17.065   7.841  0.00  0.00    -0.418 N 
HETATM   22  H   UNK N   1      30.690  17.611   7.203  0.00  0.00     0.150 HD
HETATM   23  H   UNK N   1      30.579  16.619   8.628  0.00  0.00     0.150 HD
ENDBRANCH  16  21
ENDBRANCH  15  16
ENDBRANCH  14  15
ENDBRANCH  13  14
ENDBRANCH  12  13
ENDBRANCH  10  12
ENDBRANCH   5   9
BRANCH   4  24
HETATM   24  C   UNK N   1      33.299  17.033   5.964  0.00  0.00     0.221 C 
BRANCH  24  25
HETATM   25  O   UNK N   1      34.487  17.666   6.349  0.00  0.00    -0.292 OA
BRANCH  25  26
HETATM   26  P   UNK N   1      34.265  18.074   8.027  0.00  0.00     0.391 P 
HETATM   27  O   UNK N   1      34.589  16.797   8.848  0.00  0.00    -0.632 OA
BRANCH  26  28
HETATM   28  O   UNK N   1      32.619  18.493   8.397  0.00  0.00    -0.307 OA
HETATM   29  H   UNK N   1      31.659  18.620   8.441  0.00  0.00     0.222 HD
ENDBRANCH  26  28
BRANCH  26  30
HETATM   30  O   UNK N   1      35.374  19.303   8.548  0.00  0.00    -0.307 OA
HETATM   31  H   UNK N   1      35.480  19.530   9.485  0.00  0.00     0.222 HD
ENDBRANCH  26  30
ENDBRANCH  25  26
ENDBRANCH  24  25
ENDBRANCH   4  24
BRANCH   6  32
HETATM   32  O   UNK N   1      33.796  14.519   1.720  0.00  0.00    -0.358 OA
HETATM   33  H   UNK N   1      34.423  14.018   1.237  0.00  0.00     0.217 HD
ENDBRANCH   6  32
TORSDOF 15
ENDMDL
MODEL 6
REMARK VINA RESULT:      -4.9     16.579     19.817
REMARK  15 active torsions:
REMARK  status: ('A' for Active; 'I' for Inactive)
REMARK    1  A    between atoms: C_3  and  C_2 
REMARK    2  A    between atoms: C_4  and  C_2 
REMARK    3  A    between atoms: C_5  and  C_3 
REMARK    4  A    between atoms: C_12  and  C_4 
REMARK    5  A    between atoms: N_16  and  C_5 
REMARK    6  A    between atoms: C_11  and  C_7 
REMARK    7  A    between atoms: C_10  and  C_8 
REMARK    8  A    between atoms: O_26  and  C_8 
REMARK    9  A    between atoms: C_14  and  C_12 
REMARK   10  A    between atoms: C_12  and  N_15 
REMARK   11  A    between atoms: O_20  and  C_13 
REMARK   12  A    between atoms: O_22  and  C_14 
REMARK   13  A    between atoms: P_27  and  O_23 
REMARK   14  A    between atoms: P_27  and  O_24 
REMARK   15  A    between atoms: P_27  and  O_26 
ROOT
HETATM    1  C   UNK N   1      29.144  29.947  -7.078  0.00  0.00     0.071 C 
HETATM    2  C   UNK N   1      27.362  26.889  -8.213  0.00  0.00     0.098 A 
HETATM    3  C   UNK N   1      28.191  28.804  -7.097  0.00  0.00     0.039 A 
HETATM    4  C   UNK N   1      26.444  26.638  -7.190  0.00  0.00    -0.004 A 
HETATM    5  C   UNK N   1      26.390  27.520  -6.072  0.00  0.00     0.024 A 
HETATM    6  C   UNK N   1      27.300  28.598  -6.035  0.00  0.00     0.100 A 
HETATM    7  N   UNK N   1      28.194  27.957  -8.156  0.00  0.00    -0.367 N 
ATOM      8  HN  UNK N   1      28.837  28.128  -8.929  1.00  0.00     0.165 HD
ENDROOT
BRANCH   5   9
HETATM    9  C   UNK N   1      25.473  27.350  -4.894  0.00  0.00     0.097 C 
HETATM   10  N   UNK N   1      25.801  26.857  -3.745  0.00  0.00    -0.398 N 
ATOM     11  HN  UNK N   1      25.080  26.831  -3.024  1.00  0.00     0.158 HD
BRANCH  10  12
HETATM   12  C   UNK N   1      27.098  26.342  -3.403  0.00  0.00     0.119 C 
BRANCH  12  13
HETATM   13  C   UNK N   1      27.140  24.851  -3.655  0.00  0.00     0.020 C 
BRANCH  13  14
HETATM   14  C   UNK N   1      28.288  24.570  -4.603  0.00  0.00     0.004 C 
BRANCH  14  15
HETATM   15  C   UNK N   1      29.108  23.343  -4.203  0.00  0.00     0.035 C 
BRANCH  15  16
HETATM   16  C   UNK N   1      30.512  23.651  -3.659  0.00  0.00     0.173 C 
BRANCH  16  17
HETATM   17  C   UNK N   1      30.779  22.884  -2.395  0.00  0.00     0.163 C 
HETATM   18  O   UNK N   1      30.082  23.077  -1.412  0.00  0.00    -0.648 OA
BRANCH  17  19
HETATM   19  O   UNK N   1      31.767  21.968  -2.337  0.00  0.00    -0.775 OA
HETATM   20  H   UNK N   1      32.402  21.754  -2.992  0.00  0.00     0.167 HD
ENDBRANCH  17  19
ENDBRANCH  16  17
BRANCH  16  21
HETATM   21  N   UNK N   1      30.652  25.073  -3.381  0.00  0.00    -0.418 N 
HETATM   22  H   UNK N   1      29.949  25.789  -3.567  0.00  0.00     0.150 HD
HETATM   23  H   UNK N   1      31.530  25.381  -2.964  0.00  0.00     0.150 HD
ENDBRANCH  16  21
ENDBRANCH  15  16
ENDBRANCH  14  15
ENDBRANCH  13  14
ENDBRANCH  12  13
ENDBRANCH  10  12
ENDBRANCH   5   9
BRANCH   4  24
HETATM   24  C   UNK N   1      25.660  25.367  -7.273  0.00  0.00     0.221 C 
BRANCH  24  25
HETATM   25  O   UNK N   1      26.484  24.288  -7.611  0.00  0.00    -0.292 OA
BRANCH  25  26
HETATM   26  P   UNK N   1      25.601  23.398  -8.818  0.00  0.00     0.391 P 
HETATM   27  O   UNK N   1      24.984  24.442  -9.786  0.00  0.00    -0.632 OA
BRANCH  26  28
HETATM   28  O   UNK N   1      24.271  22.505  -8.144  0.00  0.00    -0.307 OA
HETATM   29  H   UNK N   1      23.448  22.186  -7.743  0.00  0.00     0.222 HD
ENDBRANCH  26  28
BRANCH  26  30
HETATM   30  O   UNK N   1      26.642  22.384  -9.767  0.00  0.00    -0.307 OA
HETATM   31  H   UNK N   1      27.608  22.456  -9.716  0.00  0.00     0.222 HD
ENDBRANCH  26  30
ENDBRANCH  25  26
ENDBRANCH  24  25
ENDBRANCH   4  24
BRANCH   6  32
HETATM   32  O   UNK N   1      27.308  29.447  -4.987  0.00  0.00    -0.358 OA
HETATM   33  H   UNK N   1      27.960  29.363  -4.320  0.00  0.00     0.217 HD
ENDBRANCH   6  32
TORSDOF 15
ENDMDL
MODEL 7
REMARK VINA RESULT:      -4.8     16.350     19.397
REMARK  15 active torsions:
REMARK  status: ('A' for Active; 'I' for Inactive)
REMARK    1  A    between atoms: C_3  and  C_2 
REMARK    2  A    between atoms: C_4  and  C_2 
REMARK    3  A    between atoms: C_5  and  C_3 
REMARK    4  A    between atoms: C_12  and  C_4 
REMARK    5  A    between atoms: N_16  and  C_5 
REMARK    6  A    between atoms: C_11  and  C_7 
REMARK    7  A    between atoms: C_10  and  C_8 
REMARK    8  A    between atoms: O_26  and  C_8 
REMARK    9  A    between atoms: C_14  and  C_12 
REMARK   10  A    between atoms: C_12  and  N_15 
REMARK   11  A    between atoms: O_20  and  C_13 
REMARK   12  A    between atoms: O_22  and  C_14 
REMARK   13  A    between atoms: P_27  and  O_23 
REMARK   14  A    between atoms: P_27  and  O_24 
REMARK   15  A    between atoms: P_27  and  O_26 
ROOT
HETATM    1  C   UNK N   1      26.475  24.346 -10.151  0.00  0.00     0.071 C 
HETATM    2  C   UNK N   1      27.466  27.285  -8.103  0.00  0.00     0.098 A 
HETATM    3  C   UNK N   1      26.587  25.278  -8.995  0.00  0.00     0.039 A 
HETATM    4  C   UNK N   1      26.830  27.068  -6.878  0.00  0.00    -0.004 A 
HETATM    5  C   UNK N   1      26.045  25.893  -6.700  0.00  0.00     0.024 A 
HETATM    6  C   UNK N   1      25.917  25.010  -7.794  0.00  0.00     0.100 A 
HETATM    7  N   UNK N   1      27.347  26.394  -9.117  0.00  0.00    -0.367 N 
ATOM      8  HN  UNK N   1      27.842  26.567  -9.991  1.00  0.00     0.165 HD
ENDROOT
BRANCH   5   9
HETATM    9  C   UNK N   1      25.287  25.554  -5.448  0.00  0.00     0.097 C 
HETATM   10  N   UNK N   1      25.700  24.775  -4.502  0.00  0.00    -0.398 N 
ATOM     11  HN  UNK N   1      25.091  24.660  -3.692  1.00  0.00     0.158 HD
BRANCH  10  12
HETATM   12  C   UNK N   1      26.946  24.058  -4.500  0.00  0.00     0.119 C 
BRANCH  12  13
HETATM   13  C   UNK N   1      27.560  24.101  -3.119  0.00  0.00     0.020 C 
BRANCH  13  14
HETATM   14  C   UNK N   1      29.058  23.932  -3.269  0.00  0.00     0.004 C 
BRANCH  14  15
HETATM   15  C   UNK N   1      29.623  22.806  -2.403  0.00  0.00     0.035 C 
BRANCH  15  16
HETATM   16  C   UNK N   1      30.370  21.707  -3.176  0.00  0.00     0.173 C 
BRANCH  16  17
HETATM   17  C   UNK N   1      31.857  21.890  -3.068  0.00  0.00     0.163 C 
HETATM   18  O   UNK N   1      32.439  22.598  -3.875  0.00  0.00    -0.648 OA
BRANCH  17  19
HETATM   19  O   UNK N   1      32.558  21.300  -2.078  0.00  0.00    -0.775 OA
HETATM   20  H   UNK N   1      33.190  21.684  -1.503  0.00  0.00     0.167 HD
ENDBRANCH  17  19
ENDBRANCH  16  17
BRANCH  16  21
HETATM   21  N   UNK N   1      29.998  21.728  -4.583  0.00  0.00    -0.418 N 
HETATM   22  H   UNK N   1      30.598  21.460  -5.363  0.00  0.00     0.150 HD
HETATM   23  H   UNK N   1      29.053  22.039  -4.809  0.00  0.00     0.150 HD
ENDBRANCH  16  21
ENDBRANCH  15  16
ENDBRANCH  14  15
ENDBRANCH  13  14
ENDBRANCH  12  13
ENDBRANCH  10  12
ENDBRANCH   5   9
BRANCH   4  24
HETATM   24  C   UNK N   1      26.908  28.165  -5.864  0.00  0.00     0.221 C 
BRANCH  24  25
HETATM   25  O   UNK N   1      27.749  27.812  -4.803  0.00  0.00    -0.292 OA
BRANCH  25  26
HETATM   26  P   UNK N   1      27.031  28.532  -3.390  0.00  0.00     0.391 P 
HETATM   27  O   UNK N   1      26.207  27.421  -2.687  0.00  0.00    -0.632 OA
BRANCH  26  28
HETATM   28  O   UNK N   1      25.911  29.800  -3.787  0.00  0.00    -0.307 OA
HETATM   29  H   UNK N   1      25.231  30.385  -4.156  0.00  0.00     0.222 HD
ENDBRANCH  26  28
BRANCH  26  30
HETATM   30  O   UNK N   1      28.229  29.065  -2.254  0.00  0.00    -0.307 OA
HETATM   31  H   UNK N   1      28.465  30.001  -2.163  0.00  0.00     0.222 HD
ENDBRANCH  26  30
ENDBRANCH  25  26
ENDBRANCH  24  25
ENDBRANCH   4  24
BRANCH   6  32
HETATM   32  O   UNK N   1      25.164  23.898  -7.687  0.00  0.00    -0.358 OA
HETATM   33  H   UNK N   1      24.760  23.528  -8.448  0.00  0.00     0.217 HD
ENDBRANCH   6  32
TORSDOF 15
ENDMDL
MODEL 8
REMARK VINA RESULT:      -4.8      4.928      7.717
REMARK  15 active torsions:
REMARK  status: ('A' for Active; 'I' for Inactive)
REMARK    1  A    between atoms: C_3  and  C_2 
REMARK    2  A    between atoms: C_4  and  C_2 
REMARK    3  A    between atoms: C_5  and  C_3 
REMARK    4  A    between atoms: C_12  and  C_4 
REMARK    5  A    between atoms: N_16  and  C_5 
REMARK    6  A    between atoms: C_11  and  C_7 
REMARK    7  A    between atoms: C_10  and  C_8 
REMARK    8  A    between atoms: O_26  and  C_8 
REMARK    9  A    between atoms: C_14  and  C_12 
REMARK   10  A    between atoms: C_12  and  N_15 
REMARK   11  A    between atoms: O_20  and  C_13 
REMARK   12  A    between atoms: O_22  and  C_14 
REMARK   13  A    between atoms: P_27  and  O_23 
REMARK   14  A    between atoms: P_27  and  O_24 
REMARK   15  A    between atoms: P_27  and  O_26 
ROOT
HETATM    1  C   UNK N   1      20.447  16.378   8.710  0.00  0.00     0.071 C 
HETATM    2  C   UNK N   1      20.453  15.124   5.211  0.00  0.00     0.098 A 
HETATM    3  C   UNK N   1      20.580  16.356   7.227  0.00  0.00     0.039 A 
HETATM    4  C   UNK N   1      20.799  16.247   4.454  0.00  0.00    -0.004 A 
HETATM    5  C   UNK N   1      21.060  17.480   5.118  0.00  0.00     0.024 A 
HETATM    6  C   UNK N   1      20.921  17.518   6.522  0.00  0.00     0.100 A 
HETATM    7  N   UNK N   1      20.366  15.194   6.561  0.00  0.00    -0.367 N 
ATOM      8  HN  UNK N   1      20.134  14.353   7.089  1.00  0.00     0.165 HD
ENDROOT
BRANCH   5   9
HETATM    9  C   UNK N   1      21.412  18.765   4.425  0.00  0.00     0.097 C 
HETATM   10  N   UNK N   1      22.608  19.193   4.187  0.00  0.00    -0.398 N 
ATOM     11  HN  UNK N   1      22.699  20.072   3.677  1.00  0.00     0.158 HD
BRANCH  10  12
HETATM   12  C   UNK N   1      23.821  18.531   4.584  0.00  0.00     0.119 C 
BRANCH  12  13
HETATM   13  C   UNK N   1      24.864  18.678   3.498  0.00  0.00     0.020 C 
BRANCH  13  14
HETATM   14  C   UNK N   1      25.462  20.066   3.610  0.00  0.00     0.004 C 
BRANCH  14  15
HETATM   15  C   UNK N   1      26.987  20.054   3.708  0.00  0.00     0.035 C 
BRANCH  15  16
HETATM   16  C   UNK N   1      27.556  19.241   4.882  0.00  0.00     0.173 C 
BRANCH  16  17
HETATM   17  C   UNK N   1      27.521  20.037   6.155  0.00  0.00     0.163 C 
HETATM   18  O   UNK N   1      27.733  21.239   6.122  0.00  0.00    -0.648 OA
BRANCH  17  19
HETATM   19  O   UNK N   1      27.238  19.446   7.334  0.00  0.00    -0.775 OA
HETATM   20  H   UNK N   1      26.465  19.531   7.857  0.00  0.00     0.167 HD
ENDBRANCH  17  19
ENDBRANCH  16  17
BRANCH  16  21
HETATM   21  N   UNK N   1      28.933  18.850   4.613  0.00  0.00    -0.418 N 
HETATM   22  H   UNK N   1      29.420  18.057   5.031  0.00  0.00     0.150 HD
HETATM   23  H   UNK N   1      29.456  19.420   3.948  0.00  0.00     0.150 HD
ENDBRANCH  16  21
ENDBRANCH  15  16
ENDBRANCH  14  15
ENDBRANCH  13  14
ENDBRANCH  12  13
ENDBRANCH  10  12
ENDBRANCH   5   9
BRANCH   4  24
HETATM   24  C   UNK N   1      20.742  16.111   2.966  0.00  0.00     0.221 C 
BRANCH  24  25
HETATM   25  O   UNK N   1      19.623  16.768   2.443  0.00  0.00    -0.292 OA
BRANCH  25  26
HETATM   26  P   UNK N   1      19.828  16.717   0.715  0.00  0.00     0.391 P 
HETATM   27  O   UNK N   1      20.952  15.687   0.424  0.00  0.00    -0.632 OA
BRANCH  26  28
HETATM   28  O   UNK N   1      20.370  18.234   0.065  0.00  0.00    -0.307 OA
HETATM   29  H   UNK N   1      20.479  19.112  -0.332  0.00  0.00     0.222 HD
ENDBRANCH  26  28
BRANCH  26  30
HETATM   30  O   UNK N   1      18.400  16.145  -0.090  0.00  0.00    -0.307 OA
HETATM   31  H   UNK N   1      17.772  16.754  -0.508  0.00  0.00     0.222 HD
ENDBRANCH  26  30
ENDBRANCH  25  26
ENDBRANCH  24  25
ENDBRANCH   4  24
BRANCH   6  32
HETATM   32  O   UNK N   1      21.130  18.667   7.196  0.00  0.00    -0.358 OA
HETATM   33  H   UNK N   1      21.843  19.227   6.960  0.00  0.00     0.217 HD
ENDBRANCH   6  32
TORSDOF 15
ENDMDL
MODEL 9
REMARK VINA RESULT:      -4.8      1.550      1.960
REMARK  15 active torsions:
REMARK  status: ('A' for Active; 'I' for Inactive)
REMARK    1  A    between atoms: C_3  and  C_2 
REMARK    2  A    between atoms: C_4  and  C_2 
REMARK    3  A    between atoms: C_5  and  C_3 
REMARK    4  A    between atoms: C_12  and  C_4 
REMARK    5  A    between atoms: N_16  and  C_5 
REMARK    6  A    between atoms: C_11  and  C_7 
REMARK    7  A    between atoms: C_10  and  C_8 
REMARK    8  A    between atoms: O_26  and  C_8 
REMARK    9  A    between atoms: C_14  and  C_12 
REMARK   10  A    between atoms: C_12  and  N_15 
REMARK   11  A    between atoms: O_20  and  C_13 
REMARK   12  A    between atoms: O_22  and  C_14 
REMARK   13  A    between atoms: P_27  and  O_23 
REMARK   14  A    between atoms: P_27  and  O_24 
REMARK   15  A    between atoms: P_27  and  O_26 
ROOT
HETATM    1  C   UNK N   1      23.261  11.781  13.238  0.00  0.00     0.071 C 
HETATM    2  C   UNK N   1      25.033  12.710  10.105  0.00  0.00     0.098 A 
HETATM    3  C   UNK N   1      23.496  12.155  11.815  0.00  0.00     0.039 A 
HETATM    4  C   UNK N   1      24.006  12.844   9.167  0.00  0.00    -0.004 A 
HETATM    5  C   UNK N   1      22.658  12.634   9.577  0.00  0.00     0.024 A 
HETATM    6  C   UNK N   1      22.424  12.263  10.919  0.00  0.00     0.100 A 
HETATM    7  N   UNK N   1      24.763  12.388  11.393  0.00  0.00    -0.367 N 
ATOM      8  HN  UNK N   1      25.531  12.321  12.060  1.00  0.00     0.165 HD
ENDROOT
BRANCH   5   9
HETATM    9  C   UNK N   1      21.466  12.717   8.667  0.00  0.00     0.097 C 
HETATM   10  N   UNK N   1      20.711  13.754   8.501  0.00  0.00    -0.398 N 
ATOM     11  HN  UNK N   1      19.953  13.677   7.824  1.00  0.00     0.158 HD
BRANCH  10  12
HETATM   12  C   UNK N   1      20.855  15.004   9.195  0.00  0.00     0.119 C 
BRANCH  12  13
HETATM   13  C   UNK N   1      20.417  16.141   8.298  0.00  0.00     0.020 C 
BRANCH  13  14
HETATM   14  C   UNK N   1      21.421  16.257   7.169  0.00  0.00     0.004 C 
BRANCH  14  15
HETATM   15  C   UNK N   1      20.869  16.998   5.951  0.00  0.00     0.035 C 
BRANCH  15  16
HETATM   16  C   UNK N   1      21.625  18.281   5.574  0.00  0.00     0.173 C 
BRANCH  16  17
HETATM   17  C   UNK N   1      21.342  18.675   4.152  0.00  0.00     0.163 C 
HETATM   18  O   UNK N   1      22.205  19.239   3.498  0.00  0.00    -0.648 OA
BRANCH  17  19
HETATM   19  O   UNK N   1      20.153  18.396   3.580  0.00  0.00    -0.775 OA
HETATM   20  H   UNK N   1      19.481  17.820   3.887  0.00  0.00     0.167 HD
ENDBRANCH  17  19
ENDBRANCH  16  17
BRANCH  16  21
HETATM   21  N   UNK N   1      23.061  18.092   5.729  0.00  0.00    -0.418 N 
HETATM   22  H   UNK N   1      23.776  18.806   5.585  0.00  0.00     0.150 HD
HETATM   23  H   UNK N   1      23.380  17.164   6.007  0.00  0.00     0.150 HD
ENDBRANCH  16  21
ENDBRANCH  15  16
ENDBRANCH  14  15
ENDBRANCH  13  14
ENDBRANCH  12  13
ENDBRANCH  10  12
ENDBRANCH   5   9
BRANCH   4  24
HETATM   24  C   UNK N   1      24.407  13.071   7.744  0.00  0.00     0.221 C 
BRANCH  24  25
HETATM   25  O   UNK N   1      25.512  13.924   7.661  0.00  0.00    -0.292 OA
BRANCH  25  26
HETATM   26  P   UNK N   1      25.340  14.751   6.139  0.00  0.00     0.391 P 
HETATM   27  O   UNK N   1      23.920  14.422   5.605  0.00  0.00    -0.632 OA
BRANCH  26  28
HETATM   28  O   UNK N   1      26.461  14.178   4.941  0.00  0.00    -0.307 OA
HETATM   29  H   UNK N   1      27.110  14.052   4.232  0.00  0.00     0.222 HD
ENDBRANCH  26  28
BRANCH  26  30
HETATM   30  O   UNK N   1      25.421  16.475   6.325  0.00  0.00    -0.307 OA
HETATM   31  H   UNK N   1      24.769  16.962   6.852  0.00  0.00     0.222 HD
ENDBRANCH  26  30
ENDBRANCH  25  26
ENDBRANCH  24  25
ENDBRANCH   4  24
BRANCH   6  32
HETATM   32  O   UNK N   1      21.170  12.027  11.351  0.00  0.00    -0.358 OA
HETATM   33  H   UNK N   1      20.909  12.300  12.209  0.00  0.00     0.217 HD
ENDBRANCH   6  32
TORSDOF 15
ENDMDL
