MODEL 1
REMARK VINA RESULT:      -9.0      0.000      0.000
REMARK  4 active torsions:
REMARK  status: ('A' for Active; 'I' for Inactive)
REMARK    1  A    between atoms: C_26  and  C_18 
REMARK    2  A    between atoms: C_27  and  C_19 
REMARK    3  A    between atoms: N_34  and  C_20 
REMARK    4  A    between atoms: N_36  and  C_21 
ROOT
HETATM    1  C   UNK N   1      36.643  14.579   9.790  0.00  0.00     0.017 A 
HETATM    2  C   UNK N   1      37.117  13.522  10.613  0.00  0.00     0.033 A 
HETATM    3  C   UNK N   1      35.394  15.481  11.682  0.00  0.00     0.047 A 
HETATM    4  C   UNK N   1      35.786  15.567  10.344  0.00  0.00     0.010 A 
HETATM    5  C   UNK N   1      36.638  13.470  11.929  0.00  0.00     0.060 A 
HETATM    6  C   UNK N   1      35.814  14.425  12.414  0.00  0.00     0.061 A 
HETATM    7  C   UNK N   1      36.097  12.997  13.928  0.00  0.00     0.116 A 
HETATM    8  N   UNK N   1      36.855  12.548  12.885  0.00  0.00    -0.340 N 
HETATM    9  N   UNK N   1      35.454  14.148  13.656  0.00  0.00    -0.340 N 
ATOM     10  HN  UNK N   1      34.835  14.682  14.266  1.00  0.00     0.167 HD
HETATM   11  H   UNK N   1      37.423  11.745  12.842  0.00  0.00     0.167 HD
ENDROOT
BRANCH   4  12
HETATM   12  C   UNK N   1      34.924  16.429   9.553  0.00  0.00     0.116 A 
HETATM   13  N   UNK N   1      35.219  16.803   8.278  0.00  0.00    -0.340 N 
HETATM   14  C   UNK N   1      34.006  16.960   7.719  0.00  0.00     0.060 A 
ATOM     15  HN  UNK N   1      36.136  16.933   7.850  1.00  0.00     0.167 HD
HETATM   16  C   UNK N   1      33.681  17.201   6.386  0.00  0.00     0.034 A 
HETATM   17  C   UNK N   1      33.046  16.690   8.637  0.00  0.00     0.062 A 
HETATM   18  C   UNK N   1      32.310  17.130   6.033  0.00  0.00     0.031 A 
HETATM   19  C   UNK N   1      31.329  16.788   7.010  0.00  0.00     0.032 A 
HETATM   20  C   UNK N   1      31.720  16.580   8.335  0.00  0.00     0.061 A 
HETATM   21  N   UNK N   1      33.596  16.384   9.793  0.00  0.00    -0.340 N 
HETATM   22  H   UNK N   1      33.142  16.170  10.641  0.00  0.00     0.167 HD
BRANCH  19  23
HETATM   23  N   UNK N   1      29.951  16.682   6.687  0.00  0.00    -0.377 N 
HETATM   24  C   UNK N   1      29.549  16.579   5.316  0.00  0.00     0.153 C 
HETATM   25  C   UNK N   1      29.159  17.995   4.873  0.00  0.00     0.291 C 
HETATM   26  N   UNK N   1      28.198  18.642   5.788  0.00  0.00     0.087 N 
HETATM   27  C   UNK N   1      26.877  18.060   5.613  0.00  0.00     0.310 C 
HETATM   28  C   UNK N   1      28.583  18.571   7.206  0.00  0.00     0.291 C 
HETATM   29  C   UNK N   1      28.958  17.152   7.620  0.00  0.00     0.153 C 
ENDBRANCH  19  23
ENDBRANCH   4  12
BRANCH   7  30
HETATM   30  C   UNK N   1      36.085  12.446  15.272  0.00  0.00     0.008 A 
HETATM   31  C   UNK N   1      35.512  13.148  16.329  0.00  0.00     0.017 A 
HETATM   32  C   UNK N   1      35.264  12.491  17.536  0.00  0.00     0.030 A 
HETATM   33  C   UNK N   1      35.595  11.132  17.692  0.00  0.00     0.029 A 
HETATM   34  C   UNK N   1      36.244  10.462  16.646  0.00  0.00     0.030 A 
HETATM   35  C   UNK N   1      36.477  11.112  15.444  0.00  0.00     0.017 A 
BRANCH  33  36
HETATM   36  N   UNK N   1      35.206  10.419  18.862  0.00  0.00    -0.390 N 
HETATM   37  C   UNK N   1      34.357   9.257  18.765  0.00  0.00     0.149 C 
HETATM   38  C   UNK N   1      35.493  10.949  20.169  0.00  0.00     0.149 C 
ENDBRANCH  33  36
ENDBRANCH   7  30
TORSDOF 4
ENDMDL
MODEL 2
REMARK VINA RESULT:      -9.0      1.560      2.294
REMARK  4 active torsions:
REMARK  status: ('A' for Active; 'I' for Inactive)
REMARK    1  A    between atoms: C_26  and  C_18 
REMARK    2  A    between atoms: C_27  and  C_19 
REMARK    3  A    between atoms: N_34  and  C_20 
REMARK    4  A    between atoms: N_36  and  C_21 
ROOT
HETATM    1  C   UNK N   1      35.173  14.362   7.686  0.00  0.00     0.017 A 
HETATM    2  C   UNK N   1      35.573  13.305   8.548  0.00  0.00     0.033 A 
HETATM    3  C   UNK N   1      34.642  15.738   9.629  0.00  0.00     0.047 A 
HETATM    4  C   UNK N   1      34.720  15.587   8.242  0.00  0.00     0.010 A 
HETATM    5  C   UNK N   1      35.416  13.508   9.926  0.00  0.00     0.060 A 
HETATM    6  C   UNK N   1      34.970  14.686  10.414  0.00  0.00     0.061 A 
HETATM    7  C   UNK N   1      35.265  13.391  12.041  0.00  0.00     0.116 A 
HETATM    8  N   UNK N   1      35.634  12.662  10.948  0.00  0.00    -0.340 N 
HETATM    9  N   UNK N   1      34.857  14.636  11.731  0.00  0.00    -0.340 N 
ATOM     10  HN  UNK N   1      34.537  15.369  12.365  1.00  0.00     0.167 HD
HETATM   11  H   UNK N   1      35.978  11.740  10.916  0.00  0.00     0.167 HD
ENDROOT
BRANCH   4  12
HETATM   12  C   UNK N   1      33.917  16.558   7.520  0.00  0.00     0.116 A 
HETATM   13  N   UNK N   1      34.056  16.788   6.185  0.00  0.00    -0.340 N 
HETATM   14  C   UNK N   1      32.818  17.157   5.810  0.00  0.00     0.060 A 
ATOM     15  HN  UNK N   1      34.893  16.702   5.610  1.00  0.00     0.167 HD
HETATM   16  C   UNK N   1      32.322  17.380   4.528  0.00  0.00     0.034 A 
HETATM   17  C   UNK N   1      31.995  17.144   6.887  0.00  0.00     0.062 A 
HETATM   18  C   UNK N   1      30.924  17.571   4.400  0.00  0.00     0.031 A 
HETATM   19  C   UNK N   1      30.076  17.495   5.545  0.00  0.00     0.032 A 
HETATM   20  C   UNK N   1      30.641  17.289   6.807  0.00  0.00     0.061 A 
HETATM   21  N   UNK N   1      32.665  16.800   7.967  0.00  0.00    -0.340 N 
HETATM   22  H   UNK N   1      32.331  16.735   8.891  0.00  0.00     0.167 HD
BRANCH  19  23
HETATM   23  N   UNK N   1      28.669  17.654   5.451  0.00  0.00    -0.377 N 
HETATM   24  C   UNK N   1      28.076  18.000   4.195  0.00  0.00     0.153 C 
HETATM   25  C   UNK N   1      27.869  19.519   4.217  0.00  0.00     0.291 C 
HETATM   26  N   UNK N   1      27.160  19.987   5.425  0.00  0.00     0.087 N 
HETATM   27  C   UNK N   1      25.749  19.645   5.336  0.00  0.00     0.310 C 
HETATM   28  C   UNK N   1      27.715  19.465   6.683  0.00  0.00     0.291 C 
HETATM   29  C   UNK N   1      27.902  17.952   6.635  0.00  0.00     0.153 C 
ENDBRANCH  19  23
ENDBRANCH   4  12
BRANCH   7  30
HETATM   30  C   UNK N   1      35.443  12.998  13.429  0.00  0.00     0.008 A 
HETATM   31  C   UNK N   1      36.335  13.675  14.257  0.00  0.00     0.017 A 
HETATM   32  C   UNK N   1      36.285  13.465  15.636  0.00  0.00     0.030 A 
HETATM   33  C   UNK N   1      35.348  12.574  16.191  0.00  0.00     0.029 A 
HETATM   34  C   UNK N   1      34.511  11.842  15.338  0.00  0.00     0.030 A 
HETATM   35  C   UNK N   1      34.553  12.061  13.969  0.00  0.00     0.017 A 
BRANCH  33  36
HETATM   36  N   UNK N   1      35.189  12.473  17.603  0.00  0.00    -0.390 N 
HETATM   37  C   UNK N   1      35.157  13.658  18.425  0.00  0.00     0.149 C 
HETATM   38  C   UNK N   1      35.247  11.190  18.255  0.00  0.00     0.149 C 
ENDBRANCH  33  36
ENDBRANCH   7  30
TORSDOF 4
ENDMDL
MODEL 3
REMARK VINA RESULT:      -8.8      1.790      2.287
REMARK  4 active torsions:
REMARK  status: ('A' for Active; 'I' for Inactive)
REMARK    1  A    between atoms: C_26  and  C_18 
REMARK    2  A    between atoms: C_27  and  C_19 
REMARK    3  A    between atoms: N_34  and  C_20 
REMARK    4  A    between atoms: N_36  and  C_21 
ROOT
HETATM    1  C   UNK N   1      36.670  14.253  10.782  0.00  0.00     0.017 A 
HETATM    2  C   UNK N   1      37.189  13.146  11.506  0.00  0.00     0.033 A 
HETATM    3  C   UNK N   1      35.400  14.936  12.750  0.00  0.00     0.047 A 
HETATM    4  C   UNK N   1      35.780  15.155  11.423  0.00  0.00     0.010 A 
HETATM    5  C   UNK N   1      36.721  12.959  12.813  0.00  0.00     0.060 A 
HETATM    6  C   UNK N   1      35.864  13.835  13.383  0.00  0.00     0.061 A 
HETATM    7  C   UNK N   1      36.211  12.290  14.764  0.00  0.00     0.116 A 
HETATM    8  N   UNK N   1      36.977  11.965  13.683  0.00  0.00    -0.340 N 
HETATM    9  N   UNK N   1      35.523  13.436  14.598  0.00  0.00    -0.340 N 
ATOM     10  HN  UNK N   1      34.888  13.889  15.255  1.00  0.00     0.167 HD
HETATM   11  H   UNK N   1      37.575  11.191  13.567  0.00  0.00     0.167 HD
ENDROOT
BRANCH   4  12
HETATM   12  C   UNK N   1      34.882  16.050  10.716  0.00  0.00     0.116 A 
HETATM   13  N   UNK N   1      35.312  17.154  10.044  0.00  0.00    -0.340 N 
HETATM   14  C   UNK N   1      34.410  17.278   9.054  0.00  0.00     0.060 A 
ATOM     15  HN  UNK N   1      36.121  17.742  10.243  1.00  0.00     0.167 HD
HETATM   16  C   UNK N   1      34.419  18.148   7.967  0.00  0.00     0.034 A 
HETATM   17  C   UNK N   1      33.491  16.286   9.151  0.00  0.00     0.062 A 
HETATM   18  C   UNK N   1      33.442  17.937   6.962  0.00  0.00     0.031 A 
HETATM   19  C   UNK N   1      32.524  16.849   7.065  0.00  0.00     0.032 A 
HETATM   20  C   UNK N   1      32.555  16.026   8.193  0.00  0.00     0.061 A 
HETATM   21  N   UNK N   1      33.751  15.526  10.194  0.00  0.00    -0.340 N 
HETATM   22  H   UNK N   1      33.237  14.752  10.521  0.00  0.00     0.167 HD
BRANCH  19  23
HETATM   23  N   UNK N   1      31.550  16.591   6.065  0.00  0.00    -0.377 N 
HETATM   24  C   UNK N   1      30.803  15.369   6.100  0.00  0.00     0.153 C 
HETATM   25  C   UNK N   1      31.505  14.407   5.133  0.00  0.00     0.291 C 
HETATM   26  N   UNK N   1      31.734  14.995   3.798  0.00  0.00     0.087 N 
HETATM   27  C   UNK N   1      30.482  15.060   3.063  0.00  0.00     0.310 C 
HETATM   28  C   UNK N   1      32.355  16.328   3.832  0.00  0.00     0.291 C 
HETATM   29  C   UNK N   1      31.633  17.265   4.794  0.00  0.00     0.153 C 
ENDBRANCH  19  23
ENDBRANCH   4  12
BRANCH   7  30
HETATM   30  C   UNK N   1      36.228  11.622  16.054  0.00  0.00     0.008 A 
HETATM   31  C   UNK N   1      35.510  12.131  17.134  0.00  0.00     0.017 A 
HETATM   32  C   UNK N   1      35.317  11.336  18.265  0.00  0.00     0.030 A 
HETATM   33  C   UNK N   1      35.846  10.032  18.323  0.00  0.00     0.029 A 
HETATM   34  C   UNK N   1      36.632   9.566  17.261  0.00  0.00     0.030 A 
HETATM   35  C   UNK N   1      36.812  10.351  16.133  0.00  0.00     0.017 A 
BRANCH  33  36
HETATM   36  N   UNK N   1      35.523   9.164  19.405  0.00  0.00    -0.390 N 
HETATM   37  C   UNK N   1      36.214   7.910  19.572  0.00  0.00     0.149 C 
HETATM   38  C   UNK N   1      34.378   9.431  20.238  0.00  0.00     0.149 C 
ENDBRANCH  33  36
ENDBRANCH   7  30
TORSDOF 4
ENDMDL
MODEL 4
REMARK VINA RESULT:      -8.6      1.210     11.541
REMARK  4 active torsions:
REMARK  status: ('A' for Active; 'I' for Inactive)
REMARK    1  A    between atoms: C_26  and  C_18 
REMARK    2  A    between atoms: C_27  and  C_19 
REMARK    3  A    between atoms: N_34  and  C_20 
REMARK    4  A    between atoms: N_36  and  C_21 
ROOT
HETATM    1  C   UNK N   1      37.211  13.440  11.226  0.00  0.00     0.017 A 
HETATM    2  C   UNK N   1      36.892  13.990   9.955  0.00  0.00     0.033 A 
HETATM    3  C   UNK N   1      34.937  13.894  11.985  0.00  0.00     0.047 A 
HETATM    4  C   UNK N   1      36.214  13.384  12.235  0.00  0.00     0.010 A 
HETATM    5  C   UNK N   1      35.610  14.531   9.794  0.00  0.00     0.060 A 
HETATM    6  C   UNK N   1      34.693  14.468  10.785  0.00  0.00     0.061 A 
HETATM    7  C   UNK N   1      33.827  15.509   9.179  0.00  0.00     0.116 A 
HETATM    8  N   UNK N   1      35.077  15.177   8.742  0.00  0.00    -0.340 N 
HETATM    9  N   UNK N   1      33.575  15.080  10.430  0.00  0.00    -0.340 N 
ATOM     10  HN  UNK N   1      32.721  15.198  10.976  1.00  0.00     0.167 HD
HETATM   11  H   UNK N   1      35.488  15.364   7.867  0.00  0.00     0.167 HD
ENDROOT
BRANCH   4  12
HETATM   12  C   UNK N   1      36.500  13.243  13.652  0.00  0.00     0.116 A 
HETATM   13  N   UNK N   1      35.855  13.959  14.614  0.00  0.00    -0.340 N 
HETATM   14  C   UNK N   1      35.871  13.130  15.673  0.00  0.00     0.060 A 
ATOM     15  HN  UNK N   1      35.458  14.896  14.548  1.00  0.00     0.167 HD
HETATM   16  C   UNK N   1      35.234  13.270  16.903  0.00  0.00     0.034 A 
HETATM   17  C   UNK N   1      36.504  11.979  15.338  0.00  0.00     0.062 A 
HETATM   18  C   UNK N   1      35.259  12.152  17.774  0.00  0.00     0.031 A 
HETATM   19  C   UNK N   1      35.884  10.935  17.370  0.00  0.00     0.032 A 
HETATM   20  C   UNK N   1      36.525  10.869  16.130  0.00  0.00     0.061 A 
HETATM   21  N   UNK N   1      36.927  12.039  14.092  0.00  0.00    -0.340 N 
HETATM   22  H   UNK N   1      37.439  11.360  13.595  0.00  0.00     0.167 HD
BRANCH  19  23
HETATM   23  N   UNK N   1      35.905   9.787  18.205  0.00  0.00    -0.377 N 
HETATM   24  C   UNK N   1      34.967   8.728  17.981  0.00  0.00     0.153 C 
HETATM   25  C   UNK N   1      33.812   8.959  18.962  0.00  0.00     0.291 C 
HETATM   26  N   UNK N   1      34.266   9.145  20.355  0.00  0.00     0.087 N 
HETATM   27  C   UNK N   1      34.686   7.870  20.914  0.00  0.00     0.310 C 
HETATM   28  C   UNK N   1      35.350  10.129  20.503  0.00  0.00     0.291 C 
HETATM   29  C   UNK N   1      36.487   9.870  19.521  0.00  0.00     0.153 C 
ENDBRANCH  19  23
ENDBRANCH   4  12
BRANCH   7  30
HETATM   30  C   UNK N   1      32.769  16.096   8.374  0.00  0.00     0.008 A 
HETATM   31  C   UNK N   1      32.082  15.336   7.431  0.00  0.00     0.017 A 
HETATM   32  C   UNK N   1      30.902  15.835   6.876  0.00  0.00     0.030 A 
HETATM   33  C   UNK N   1      30.408  17.096   7.259  0.00  0.00     0.029 A 
HETATM   34  C   UNK N   1      31.153  17.881   8.149  0.00  0.00     0.030 A 
HETATM   35  C   UNK N   1      32.318  17.379   8.708  0.00  0.00     0.017 A 
BRANCH  33  36
HETATM   36  N   UNK N   1      29.130  17.541   6.815  0.00  0.00    -0.390 N 
HETATM   37  C   UNK N   1      28.799  17.544   5.412  0.00  0.00     0.149 C 
HETATM   38  C   UNK N   1      28.217  18.172   7.734  0.00  0.00     0.149 C 
ENDBRANCH  33  36
ENDBRANCH   7  30
TORSDOF 4
ENDMDL
MODEL 5
REMARK VINA RESULT:      -8.4      1.670      2.276
REMARK  4 active torsions:
REMARK  status: ('A' for Active; 'I' for Inactive)
REMARK    1  A    between atoms: C_26  and  C_18 
REMARK    2  A    between atoms: C_27  and  C_19 
REMARK    3  A    between atoms: N_34  and  C_20 
REMARK    4  A    between atoms: N_36  and  C_21 
ROOT
HETATM    1  C   UNK N   1      35.256  16.772  10.192  0.00  0.00     0.017 A 
HETATM    2  C   UNK N   1      36.087  16.206  11.197  0.00  0.00     0.033 A 
HETATM    3  C   UNK N   1      33.705  14.904  10.433  0.00  0.00     0.047 A 
HETATM    4  C   UNK N   1      34.052  16.114   9.826  0.00  0.00     0.010 A 
HETATM    5  C   UNK N   1      35.704  14.965  11.721  0.00  0.00     0.060 A 
HETATM    6  C   UNK N   1      34.555  14.366  11.337  0.00  0.00     0.061 A 
HETATM    7  C   UNK N   1      35.519  13.087  12.696  0.00  0.00     0.116 A 
HETATM    8  N   UNK N   1      36.336  14.177  12.609  0.00  0.00    -0.340 N 
HETATM    9  N   UNK N   1      34.421  13.187  11.923  0.00  0.00    -0.340 N 
ATOM     10  HN  UNK N   1      33.663  12.513  11.817  1.00  0.00     0.167 HD
HETATM   11  H   UNK N   1      37.183  14.346  13.082  0.00  0.00     0.167 HD
ENDROOT
BRANCH   4  12
HETATM   12  C   UNK N   1      33.349  16.344   8.576  0.00  0.00     0.116 A 
HETATM   13  N   UNK N   1      33.174  15.375   7.636  0.00  0.00    -0.340 N 
HETATM   14  C   UNK N   1      32.010  15.722   7.056  0.00  0.00     0.060 A 
ATOM     15  HN  UNK N   1      33.777  14.581   7.422  1.00  0.00     0.167 HD
HETATM   16  C   UNK N   1      31.257  15.020   6.117  0.00  0.00     0.034 A 
HETATM   17  C   UNK N   1      31.533  16.849   7.636  0.00  0.00     0.062 A 
HETATM   18  C   UNK N   1      29.968  15.525   5.816  0.00  0.00     0.031 A 
HETATM   19  C   UNK N   1      29.471  16.682   6.486  0.00  0.00     0.032 A 
HETATM   20  C   UNK N   1      30.287  17.352   7.401  0.00  0.00     0.061 A 
HETATM   21  N   UNK N   1      32.364  17.269   8.567  0.00  0.00    -0.340 N 
HETATM   22  H   UNK N   1      32.286  18.074   9.129  0.00  0.00     0.167 HD
BRANCH  19  23
HETATM   23  N   UNK N   1      28.174  17.201   6.229  0.00  0.00    -0.377 N 
HETATM   24  C   UNK N   1      27.287  16.494   5.355  0.00  0.00     0.153 C 
HETATM   25  C   UNK N   1      27.416  17.158   3.979  0.00  0.00     0.291 C 
HETATM   26  N   UNK N   1      27.253  18.625   4.028  0.00  0.00     0.087 N 
HETATM   27  C   UNK N   1      25.852  18.961   4.227  0.00  0.00     0.310 C 
HETATM   28  C   UNK N   1      28.069  19.282   5.061  0.00  0.00     0.291 C 
HETATM   29  C   UNK N   1      27.914  18.606   6.419  0.00  0.00     0.153 C 
ENDBRANCH  19  23
ENDBRANCH   4  12
BRANCH   7  30
HETATM   30  C   UNK N   1      35.660  11.988  13.636  0.00  0.00     0.008 A 
HETATM   31  C   UNK N   1      36.876  11.736  14.267  0.00  0.00     0.017 A 
HETATM   32  C   UNK N   1      36.916  10.865  15.357  0.00  0.00     0.030 A 
HETATM   33  C   UNK N   1      35.742  10.239  15.817  0.00  0.00     0.029 A 
HETATM   34  C   UNK N   1      34.543  10.441  15.122  0.00  0.00     0.030 A 
HETATM   35  C   UNK N   1      34.502  11.316  14.047  0.00  0.00     0.017 A 
BRANCH  33  36
HETATM   36  N   UNK N   1      35.749   9.475  17.019  0.00  0.00    -0.390 N 
HETATM   37  C   UNK N   1      34.618   9.502  17.913  0.00  0.00     0.149 C 
HETATM   38  C   UNK N   1      36.951   8.814  17.457  0.00  0.00     0.149 C 
ENDBRANCH  33  36
ENDBRANCH   7  30
TORSDOF 4
ENDMDL
MODEL 6
REMARK VINA RESULT:      -8.3      2.680     11.956
REMARK  4 active torsions:
REMARK  status: ('A' for Active; 'I' for Inactive)
REMARK    1  A    between atoms: C_26  and  C_18 
REMARK    2  A    between atoms: C_27  and  C_19 
REMARK    3  A    between atoms: N_34  and  C_20 
REMARK    4  A    between atoms: N_36  and  C_21 
ROOT
HETATM    1  C   UNK N   1      30.794  18.380   9.006  0.00  0.00     0.017 A 
HETATM    2  C   UNK N   1      29.400  18.586   8.822  0.00  0.00     0.033 A 
HETATM    3  C   UNK N   1      30.804  16.821   7.130  0.00  0.00     0.047 A 
HETATM    4  C   UNK N   1      31.492  17.499   8.139  0.00  0.00     0.010 A 
HETATM    5  C   UNK N   1      28.766  17.831   7.826  0.00  0.00     0.060 A 
HETATM    6  C   UNK N   1      29.467  16.994   7.029  0.00  0.00     0.061 A 
HETATM    7  C   UNK N   1      27.441  16.837   6.497  0.00  0.00     0.116 A 
HETATM    8  N   UNK N   1      27.464  17.767   7.496  0.00  0.00    -0.340 N 
HETATM    9  N   UNK N   1      28.661  16.354   6.197  0.00  0.00    -0.340 N 
ATOM     10  HN  UNK N   1      28.907  15.658   5.492  1.00  0.00     0.167 HD
HETATM   11  H   UNK N   1      26.710  18.270   7.880  0.00  0.00     0.167 HD
ENDROOT
BRANCH   4  12
HETATM   12  C   UNK N   1      32.774  16.895   8.457  0.00  0.00     0.116 A 
HETATM   13  N   UNK N   1      33.722  17.520   9.208  0.00  0.00    -0.340 N 
HETATM   14  C   UNK N   1      34.357  16.497   9.809  0.00  0.00     0.060 A 
ATOM     15  HN  UNK N   1      33.907  18.519   9.294  1.00  0.00     0.167 HD
HETATM   16  C   UNK N   1      35.330  16.536  10.805  0.00  0.00     0.034 A 
HETATM   17  C   UNK N   1      33.800  15.326   9.418  0.00  0.00     0.062 A 
HETATM   18  C   UNK N   1      35.693  15.303  11.401  0.00  0.00     0.031 A 
HETATM   19  C   UNK N   1      35.047  14.093  11.008  0.00  0.00     0.032 A 
HETATM   20  C   UNK N   1      34.093  14.121   9.987  0.00  0.00     0.061 A 
HETATM   21  N   UNK N   1      32.830  15.548   8.556  0.00  0.00    -0.340 N 
HETATM   22  H   UNK N   1      32.272  14.885   8.089  0.00  0.00     0.167 HD
BRANCH  19  23
HETATM   23  N   UNK N   1      35.365  12.843  11.602  0.00  0.00    -0.377 N 
HETATM   24  C   UNK N   1      35.094  12.628  12.992  0.00  0.00     0.153 C 
HETATM   25  C   UNK N   1      36.409  12.892  13.735  0.00  0.00     0.291 C 
HETATM   26  N   UNK N   1      37.551  12.146  13.169  0.00  0.00     0.087 N 
HETATM   27  C   UNK N   1      37.454  10.741  13.531  0.00  0.00     0.310 C 
HETATM   28  C   UNK N   1      37.682  12.271  11.709  0.00  0.00     0.291 C 
HETATM   29  C   UNK N   1      36.362  11.996  10.997  0.00  0.00     0.153 C 
ENDBRANCH  19  23
ENDBRANCH   4  12
BRANCH   7  30
HETATM   30  C   UNK N   1      26.291  16.493   5.678  0.00  0.00     0.008 A 
HETATM   31  C   UNK N   1      25.764  17.403   4.765  0.00  0.00     0.017 A 
HETATM   32  C   UNK N   1      24.851  16.962   3.805  0.00  0.00     0.030 A 
HETATM   33  C   UNK N   1      24.458  15.611   3.758  0.00  0.00     0.029 A 
HETATM   34  C   UNK N   1      24.937  14.726   4.732  0.00  0.00     0.030 A 
HETATM   35  C   UNK N   1      25.853  15.163   5.677  0.00  0.00     0.017 A 
BRANCH  33  36
HETATM   36  N   UNK N   1      23.651  15.126   2.690  0.00  0.00    -0.390 N 
HETATM   37  C   UNK N   1      24.257  14.565   1.507  0.00  0.00     0.149 C 
HETATM   38  C   UNK N   1      22.230  15.358   2.685  0.00  0.00     0.149 C 
ENDBRANCH  33  36
ENDBRANCH   7  30
TORSDOF 4
ENDMDL
MODEL 7
REMARK VINA RESULT:      -8.3      1.768     11.304
REMARK  4 active torsions:
REMARK  status: ('A' for Active; 'I' for Inactive)
REMARK    1  A    between atoms: C_26  and  C_18 
REMARK    2  A    between atoms: C_27  and  C_19 
REMARK    3  A    between atoms: N_34  and  C_20 
REMARK    4  A    between atoms: N_36  and  C_21 
ROOT
HETATM    1  C   UNK N   1      35.944  14.526   8.804  0.00  0.00     0.017 A 
HETATM    2  C   UNK N   1      35.179  15.130   7.770  0.00  0.00     0.033 A 
HETATM    3  C   UNK N   1      34.048  14.742  10.324  0.00  0.00     0.047 A 
HETATM    4  C   UNK N   1      35.359  14.323  10.081  0.00  0.00     0.010 A 
HETATM    5  C   UNK N   1      33.892  15.574   8.101  0.00  0.00     0.060 A 
HETATM    6  C   UNK N   1      33.376  15.372   9.334  0.00  0.00     0.061 A 
HETATM    7  C   UNK N   1      31.956  16.441   8.214  0.00  0.00     0.116 A 
HETATM    8  N   UNK N   1      32.995  16.241   7.353  0.00  0.00    -0.340 N 
HETATM    9  N   UNK N   1      32.173  15.912   9.434  0.00  0.00    -0.340 N 
ATOM     10  HN  UNK N   1      31.553  15.925  10.244  1.00  0.00     0.167 HD
HETATM   11  H   UNK N   1      33.070  16.517   6.411  0.00  0.00     0.167 HD
ENDROOT
BRANCH   4  12
HETATM   12  C   UNK N   1      36.122  14.114  11.300  0.00  0.00     0.116 A 
HETATM   13  N   UNK N   1      35.851  14.763  12.465  0.00  0.00    -0.340 N 
HETATM   14  C   UNK N   1      36.238  13.879  13.402  0.00  0.00     0.060 A 
ATOM     15  HN  UNK N   1      35.452  15.692  12.596  1.00  0.00     0.167 HD
HETATM   16  C   UNK N   1      36.069  13.939  14.784  0.00  0.00     0.034 A 
HETATM   17  C   UNK N   1      36.718  12.763  12.803  0.00  0.00     0.062 A 
HETATM   18  C   UNK N   1      36.400  12.778  15.526  0.00  0.00     0.031 A 
HETATM   19  C   UNK N   1      36.849  11.598  14.859  0.00  0.00     0.032 A 
HETATM   20  C   UNK N   1      37.018  11.613  13.472  0.00  0.00     0.061 A 
HETATM   21  N   UNK N   1      36.680  12.898  11.493  0.00  0.00    -0.340 N 
HETATM   22  H   UNK N   1      36.989  12.259  10.810  0.00  0.00     0.167 HD
BRANCH  19  23
HETATM   23  N   UNK N   1      37.164  10.409  15.567  0.00  0.00    -0.377 N 
HETATM   24  C   UNK N   1      37.581   9.243  14.847  0.00  0.00     0.153 C 
HETATM   25  C   UNK N   1      36.333   8.368  14.681  0.00  0.00     0.291 C 
HETATM   26  N   UNK N   1      35.622   8.130  15.954  0.00  0.00     0.087 N 
HETATM   27  C   UNK N   1      36.364   7.181  16.767  0.00  0.00     0.310 C 
HETATM   28  C   UNK N   1      35.367   9.352  16.732  0.00  0.00     0.291 C 
HETATM   29  C   UNK N   1      36.626  10.198  16.888  0.00  0.00     0.153 C 
ENDBRANCH  19  23
ENDBRANCH   4  12
BRANCH   7  30
HETATM   30  C   UNK N   1      30.656  16.990   7.870  0.00  0.00     0.008 A 
HETATM   31  C   UNK N   1      30.045  17.946   8.679  0.00  0.00     0.017 A 
HETATM   32  C   UNK N   1      28.945  18.654   8.193  0.00  0.00     0.030 A 
HETATM   33  C   UNK N   1      28.448  18.405   6.900  0.00  0.00     0.029 A 
HETATM   34  C   UNK N   1      29.024  17.387   6.130  0.00  0.00     0.030 A 
HETATM   35  C   UNK N   1      30.125  16.693   6.609  0.00  0.00     0.017 A 
BRANCH  33  36
HETATM   36  N   UNK N   1      27.428  19.229   6.342  0.00  0.00    -0.390 N 
HETATM   37  C   UNK N   1      26.606  18.749   5.259  0.00  0.00     0.149 C 
HETATM   38  C   UNK N   1      27.323  20.615   6.718  0.00  0.00     0.149 C 
ENDBRANCH  33  36
ENDBRANCH   7  30
TORSDOF 4
ENDMDL
MODEL 8
REMARK VINA RESULT:      -8.2      1.925     11.317
REMARK  4 active torsions:
REMARK  status: ('A' for Active; 'I' for Inactive)
REMARK    1  A    between atoms: C_26  and  C_18 
REMARK    2  A    between atoms: C_27  and  C_19 
REMARK    3  A    between atoms: N_34  and  C_20 
REMARK    4  A    between atoms: N_36  and  C_21 
ROOT
HETATM    1  C   UNK N   1      35.140  14.700   7.244  0.00  0.00     0.017 A 
HETATM    2  C   UNK N   1      34.422  15.491   6.307  0.00  0.00     0.033 A 
HETATM    3  C   UNK N   1      33.213  14.740   8.741  0.00  0.00     0.047 A 
HETATM    4  C   UNK N   1      34.515  14.317   8.461  0.00  0.00     0.010 A 
HETATM    5  C   UNK N   1      33.143  15.923   6.679  0.00  0.00     0.060 A 
HETATM    6  C   UNK N   1      32.589  15.545   7.852  0.00  0.00     0.061 A 
HETATM    7  C   UNK N   1      31.235  16.833   6.892  0.00  0.00     0.116 A 
HETATM    8  N   UNK N   1      32.289  16.735   6.031  0.00  0.00    -0.340 N 
HETATM    9  N   UNK N   1      31.402  16.107   8.014  0.00  0.00    -0.340 N 
ATOM     10  HN  UNK N   1      30.762  16.012   8.803  1.00  0.00     0.167 HD
HETATM   11  H   UNK N   1      32.398  17.157   5.147  0.00  0.00     0.167 HD
ENDROOT
BRANCH   4  12
HETATM   12  C   UNK N   1      35.239  13.885   9.644  0.00  0.00     0.116 A 
HETATM   13  N   UNK N   1      35.901  14.748  10.463  0.00  0.00    -0.340 N 
HETATM   14  C   UNK N   1      35.821  14.148  11.664  0.00  0.00     0.060 A 
ATOM     15  HN  UNK N   1      36.348  15.633  10.225  1.00  0.00     0.167 HD
HETATM   16  C   UNK N   1      36.200  14.635  12.913  0.00  0.00     0.034 A 
HETATM   17  C   UNK N   1      35.142  12.981  11.544  0.00  0.00     0.062 A 
HETATM   18  C   UNK N   1      35.826  13.871  14.046  0.00  0.00     0.031 A 
HETATM   19  C   UNK N   1      35.062  12.675  13.890  0.00  0.00     0.032 A 
HETATM   20  C   UNK N   1      34.733  12.231  12.607  0.00  0.00     0.061 A 
HETATM   21  N   UNK N   1      34.794  12.785  10.290  0.00  0.00    -0.340 N 
HETATM   22  H   UNK N   1      34.317  12.012   9.909  0.00  0.00     0.167 HD
BRANCH  19  23
HETATM   23  N   UNK N   1      34.647  11.899  15.003  0.00  0.00    -0.377 N 
HETATM   24  C   UNK N   1      35.261  12.103  16.281  0.00  0.00     0.153 C 
HETATM   25  C   UNK N   1      36.349  11.031  16.415  0.00  0.00     0.291 C 
HETATM   26  N   UNK N   1      35.852   9.667  16.140  0.00  0.00     0.087 N 
HETATM   27  C   UNK N   1      35.043   9.200  17.254  0.00  0.00     0.310 C 
HETATM   28  C   UNK N   1      35.084   9.553  14.891  0.00  0.00     0.291 C 
HETATM   29  C   UNK N   1      34.005  10.625  14.788  0.00  0.00     0.153 C 
ENDBRANCH  19  23
ENDBRANCH   4  12
BRANCH   7  30
HETATM   30  C   UNK N   1      29.963  17.479   6.615  0.00  0.00     0.008 A 
HETATM   31  C   UNK N   1      29.200  18.028   7.642  0.00  0.00     0.017 A 
HETATM   32  C   UNK N   1      28.136  18.876   7.329  0.00  0.00     0.030 A 
HETATM   33  C   UNK N   1      27.829  19.173   5.988  0.00  0.00     0.029 A 
HETATM   34  C   UNK N   1      28.556  18.549   4.965  0.00  0.00     0.030 A 
HETATM   35  C   UNK N   1      29.620  17.718   5.279  0.00  0.00     0.017 A 
BRANCH  33  36
HETATM   36  N   UNK N   1      26.848  20.154   5.667  0.00  0.00    -0.390 N 
HETATM   37  C   UNK N   1      26.213  20.163   4.372  0.00  0.00     0.149 C 
HETATM   38  C   UNK N   1      26.609  21.264   6.554  0.00  0.00     0.149 C 
ENDBRANCH  33  36
ENDBRANCH   7  30
TORSDOF 4
ENDMDL
MODEL 9
REMARK VINA RESULT:      -8.0      3.156     12.797
REMARK  4 active torsions:
REMARK  status: ('A' for Active; 'I' for Inactive)
REMARK    1  A    between atoms: C_26  and  C_18 
REMARK    2  A    between atoms: C_27  and  C_19 
REMARK    3  A    between atoms: N_34  and  C_20 
REMARK    4  A    between atoms: N_36  and  C_21 
ROOT
HETATM    1  C   UNK N   1      30.966  15.708   3.842  0.00  0.00     0.017 A 
HETATM    2  C   UNK N   1      29.766  15.875   3.100  0.00  0.00     0.033 A 
HETATM    3  C   UNK N   1      30.059  17.121   5.612  0.00  0.00     0.047 A 
HETATM    4  C   UNK N   1      31.096  16.329   5.113  0.00  0.00     0.010 A 
HETATM    5  C   UNK N   1      28.792  16.726   3.638  0.00  0.00     0.060 A 
HETATM    6  C   UNK N   1      28.960  17.308   4.846  0.00  0.00     0.061 A 
HETATM    7  C   UNK N   1      27.130  17.978   4.064  0.00  0.00     0.116 A 
HETATM    8  N   UNK N   1      27.617  17.122   3.119  0.00  0.00    -0.340 N 
HETATM    9  N   UNK N   1      27.941  18.102   5.131  0.00  0.00    -0.340 N 
ATOM     10  HN  UNK N   1      27.802  18.674   5.964  1.00  0.00     0.167 HD
HETATM   11  H   UNK N   1      27.206  16.857   2.264  0.00  0.00     0.167 HD
ENDROOT
BRANCH   4  12
HETATM   12  C   UNK N   1      32.369  16.582   5.766  0.00  0.00     0.116 A 
HETATM   13  N   UNK N   1      32.565  17.615   6.631  0.00  0.00    -0.340 N 
HETATM   14  C   UNK N   1      33.507  17.138   7.465  0.00  0.00     0.060 A 
ATOM     15  HN  UNK N   1      32.110  18.528   6.643  1.00  0.00     0.167 HD
HETATM   16  C   UNK N   1      34.004  17.703   8.637  0.00  0.00     0.034 A 
HETATM   17  C   UNK N   1      33.844  15.880   7.095  0.00  0.00     0.062 A 
HETATM   18  C   UNK N   1      34.856  16.896   9.432  0.00  0.00     0.031 A 
HETATM   19  C   UNK N   1      35.148  15.554   9.044  0.00  0.00     0.032 A 
HETATM   20  C   UNK N   1      34.634  15.057   7.844  0.00  0.00     0.061 A 
HETATM   21  N   UNK N   1      33.167  15.523   6.024  0.00  0.00    -0.340 N 
HETATM   22  H   UNK N   1      33.229  14.677   5.523  0.00  0.00     0.167 HD
BRANCH  19  23
HETATM   23  N   UNK N   1      35.975  14.709   9.828  0.00  0.00    -0.377 N 
HETATM   24  C   UNK N   1      35.719  13.300   9.866  0.00  0.00     0.153 C 
HETATM   25  C   UNK N   1      34.897  13.044  11.134  0.00  0.00     0.291 C 
HETATM   26  N   UNK N   1      35.506  13.629  12.346  0.00  0.00     0.087 N 
HETATM   27  C   UNK N   1      36.659  12.840  12.751  0.00  0.00     0.310 C 
HETATM   28  C   UNK N   1      35.902  15.037  12.193  0.00  0.00     0.291 C 
HETATM   29  C   UNK N   1      36.725  15.261  10.929  0.00  0.00     0.153 C 
ENDBRANCH  19  23
ENDBRANCH   4  12
BRANCH   7  30
HETATM   30  C   UNK N   1      25.807  18.580   4.070  0.00  0.00     0.008 A 
HETATM   31  C   UNK N   1      25.558  19.769   3.389  0.00  0.00     0.017 A 
HETATM   32  C   UNK N   1      24.239  20.175   3.178  0.00  0.00     0.030 A 
HETATM   33  C   UNK N   1      23.166  19.397   3.652  0.00  0.00     0.029 A 
HETATM   34  C   UNK N   1      23.435  18.246   4.403  0.00  0.00     0.030 A 
HETATM   35  C   UNK N   1      24.746  17.837   4.600  0.00  0.00     0.017 A 
BRANCH  33  36
HETATM   36  N   UNK N   1      21.823  19.724   3.307  0.00  0.00    -0.390 N 
HETATM   37  C   UNK N   1      21.537  20.860   2.465  0.00  0.00     0.149 C 
HETATM   38  C   UNK N   1      20.721  19.048   3.941  0.00  0.00     0.149 C 
ENDBRANCH  33  36
ENDBRANCH   7  30
TORSDOF 4
ENDMDL
