MODEL 1
REMARK VINA RESULT:      -6.7      0.000      0.000
REMARK  10 active torsions:
REMARK  status: ('A' for Active; 'I' for Inactive)
REMARK    1  A    between atoms: C_6  and  C_4 
REMARK    2  A    between atoms: O_21  and  C_4 
REMARK    3  A    between atoms: O_14  and  C_7 
REMARK    4  A    between atoms: C_8  and  N_13 
REMARK    5  A    between atoms: P_24  and  O_16 
REMARK    6  A    between atoms: P_24  and  O_17 
REMARK    7  A    between atoms: P_25  and  O_19 
REMARK    8  A    between atoms: P_25  and  O_21 
REMARK    9  A    between atoms: P_24  and  O_23 
REMARK   10  A    between atoms: P_25  and  O_23 
ROOT
HETATM    1  C   UNK N   1      33.220  17.671   7.364  0.00  0.00     0.094 C 
HETATM    2  C   UNK N   1      34.311  16.660   7.189  0.00  0.00     0.205 C 
HETATM    3  C   UNK N   1      33.633  15.452   7.804  0.00  0.00     0.182 C 
HETATM    4  C   UNK N   1      32.025  16.818   6.952  0.00  0.00     0.235 C 
HETATM    5  F   UNK N   1      34.520  16.449   5.833  0.00  0.00    -0.246 F 
HETATM    6  O   UNK N   1      32.266  15.507   7.438  0.00  0.00    -0.356 OA
ENDROOT
BRANCH   3   7
HETATM    7  C   UNK N   1      33.804  15.517   9.334  0.00  0.00     0.215 C 
BRANCH   7   8
HETATM    8  O   UNK N   1      35.064  15.958   9.789  0.00  0.00    -0.294 OA
BRANCH   8   9
HETATM    9  P   UNK N   1      35.789  14.774  10.858  0.00  0.00     0.401 P 
HETATM   10  O   UNK N   1      34.399  15.091  11.476  0.00  0.00    -0.631 OA
BRANCH   9  11
HETATM   11  O   UNK N   1      36.811  16.175  10.998  0.00  0.00    -0.307 OA
HETATM   12  H   UNK N   1      36.865  17.122  11.202  0.00  0.00     0.222 HD
ENDBRANCH   9  11
BRANCH   9  13
HETATM   13  O   UNK N   1      36.141  15.118  12.530  0.00  0.00    -0.195 OA
BRANCH  13  14
HETATM   14  P   UNK N   1      36.013  13.616  13.419  0.00  0.00     0.399 P 
HETATM   15  O   UNK N   1      36.119  13.983  14.924  0.00  0.00    -0.631 OA
BRANCH  14  16
HETATM   16  O   UNK N   1      34.498  12.788  13.213  0.00  0.00    -0.307 OA
HETATM   17  H   UNK N   1      33.629  12.454  13.486  0.00  0.00     0.222 HD
ENDBRANCH  14  16
BRANCH  14  18
HETATM   18  O   UNK N   1      37.347  12.562  13.076  0.00  0.00    -0.307 OA
HETATM   19  H   UNK N   1      37.431  11.715  13.541  0.00  0.00     0.222 HD
ENDBRANCH  14  18
ENDBRANCH  13  14
ENDBRANCH   9  13
ENDBRANCH   8   9
ENDBRANCH   7   8
ENDBRANCH   3   7
BRANCH   4  20
HETATM   20  N   UNK N   1      30.737  17.387   7.409  0.00  0.00    -0.282 N 
HETATM   21  C   UNK N   1      30.696  17.924   8.664  0.00  0.00     0.102 A 
HETATM   22  C   UNK N   1      29.537  18.515   9.157  0.00  0.00     0.073 A 
HETATM   23  C   UNK N   1      28.415  18.571   8.343  0.00  0.00     0.144 A 
HETATM   24  N   UNK N   1      28.460  18.048   7.093  0.00  0.00    -0.289 N 
HETATM   25  C   UNK N   1      29.600  17.458   6.612  0.00  0.00     0.330 A 
ATOM     26  HN  UNK N   1      27.632  18.095   6.500  1.00  0.00     0.172 HD
HETATM   27  O   UNK N   1      29.601  17.027   5.472  0.00  0.00    -0.246 OA
BRANCH  23  28
HETATM   28  O   UNK N   1      27.287  19.146   8.790  0.00  0.00    -0.346 OA
HETATM   29  H   UNK N   1      27.259  20.053   9.026  0.00  0.00     0.219 HD
ENDBRANCH  23  28
ENDBRANCH   4  20
TORSDOF 10
ENDMDL
MODEL 2
REMARK VINA RESULT:      -6.7      6.421      9.433
REMARK  10 active torsions:
REMARK  status: ('A' for Active; 'I' for Inactive)
REMARK    1  A    between atoms: C_6  and  C_4 
REMARK    2  A    between atoms: O_21  and  C_4 
REMARK    3  A    between atoms: O_14  and  C_7 
REMARK    4  A    between atoms: C_8  and  N_13 
REMARK    5  A    between atoms: P_24  and  O_16 
REMARK    6  A    between atoms: P_24  and  O_17 
REMARK    7  A    between atoms: P_25  and  O_19 
REMARK    8  A    between atoms: P_25  and  O_21 
REMARK    9  A    between atoms: P_24  and  O_23 
REMARK   10  A    between atoms: P_25  and  O_23 
ROOT
HETATM    1  C   UNK N   1      34.555  11.757  14.241  0.00  0.00     0.094 C 
HETATM    2  C   UNK N   1      35.141  11.782  12.863  0.00  0.00     0.205 C 
HETATM    3  C   UNK N   1      36.264  12.775  13.088  0.00  0.00     0.182 C 
HETATM    4  C   UNK N   1      35.843  11.713  15.056  0.00  0.00     0.235 C 
HETATM    5  F   UNK N   1      35.664  10.530  12.570  0.00  0.00    -0.246 F 
HETATM    6  O   UNK N   1      36.786  12.531  14.382  0.00  0.00    -0.356 OA
ENDROOT
BRANCH   3   7
HETATM    7  C   UNK N   1      35.691  14.200  12.977  0.00  0.00     0.215 C 
BRANCH   7   8
HETATM    8  O   UNK N   1      34.676  14.377  12.013  0.00  0.00    -0.294 OA
BRANCH   8   9
HETATM    9  P   UNK N   1      35.265  15.318  10.657  0.00  0.00     0.401 P 
HETATM   10  O   UNK N   1      35.903  15.967  11.916  0.00  0.00    -0.631 OA
BRANCH   9  11
HETATM   11  O   UNK N   1      33.548  15.600  10.675  0.00  0.00    -0.307 OA
HETATM   12  H   UNK N   1      32.833  16.253  10.620  0.00  0.00     0.222 HD
ENDBRANCH   9  11
BRANCH   9  13
HETATM   13  O   UNK N   1      34.915  17.017  10.478  0.00  0.00    -0.195 OA
BRANCH  13  14
HETATM   14  P   UNK N   1      34.227  17.251   8.885  0.00  0.00     0.399 P 
HETATM   15  O   UNK N   1      34.663  16.031   8.031  0.00  0.00    -0.631 OA
BRANCH  14  16
HETATM   16  O   UNK N   1      32.489  17.288   8.853  0.00  0.00    -0.307 OA
HETATM   17  H   UNK N   1      31.597  16.908   8.823  0.00  0.00     0.222 HD
ENDBRANCH  14  16
BRANCH  14  18
HETATM   18  O   UNK N   1      34.892  18.654   8.111  0.00  0.00    -0.307 OA
HETATM   19  H   UNK N   1      35.779  18.620   7.721  0.00  0.00     0.222 HD
ENDBRANCH  14  18
ENDBRANCH  13  14
ENDBRANCH   9  13
ENDBRANCH   8   9
ENDBRANCH   7   8
ENDBRANCH   3   7
BRANCH   4  20
HETATM   20  N   UNK N   1      35.633  12.101  16.470  0.00  0.00    -0.282 N 
HETATM   21  C   UNK N   1      35.481  13.430  16.742  0.00  0.00     0.102 A 
HETATM   22  C   UNK N   1      35.240  13.877  18.038  0.00  0.00     0.073 A 
HETATM   23  C   UNK N   1      35.137  12.945  19.060  0.00  0.00     0.144 A 
HETATM   24  N   UNK N   1      35.277  11.624  18.786  0.00  0.00    -0.289 N 
HETATM   25  C   UNK N   1      35.523  11.186  17.511  0.00  0.00     0.330 A 
ATOM     26  HN  UNK N   1      35.197  10.945  19.543  1.00  0.00     0.172 HD
HETATM   27  O   UNK N   1      35.614   9.987  17.310  0.00  0.00    -0.246 OA
BRANCH  23  28
HETATM   28  O   UNK N   1      34.893  13.348  20.317  0.00  0.00    -0.346 OA
HETATM   29  H   UNK N   1      34.796  14.255  20.531  0.00  0.00     0.219 HD
ENDBRANCH  23  28
ENDBRANCH   4  20
TORSDOF 10
ENDMDL
MODEL 3
REMARK VINA RESULT:      -6.6      2.867      4.336
REMARK  10 active torsions:
REMARK  status: ('A' for Active; 'I' for Inactive)
REMARK    1  A    between atoms: C_6  and  C_4 
REMARK    2  A    between atoms: O_21  and  C_4 
REMARK    3  A    between atoms: O_14  and  C_7 
REMARK    4  A    between atoms: C_8  and  N_13 
REMARK    5  A    between atoms: P_24  and  O_16 
REMARK    6  A    between atoms: P_24  and  O_17 
REMARK    7  A    between atoms: P_25  and  O_19 
REMARK    8  A    between atoms: P_25  and  O_21 
REMARK    9  A    between atoms: P_24  and  O_23 
REMARK   10  A    between atoms: P_25  and  O_23 
ROOT
HETATM    1  C   UNK N   1      32.460  16.804   7.217  0.00  0.00     0.094 C 
HETATM    2  C   UNK N   1      32.872  17.614   8.408  0.00  0.00     0.205 C 
HETATM    3  C   UNK N   1      34.373  17.627   8.194  0.00  0.00     0.182 C 
HETATM    4  C   UNK N   1      33.362  17.439   6.163  0.00  0.00     0.235 C 
HETATM    5  F   UNK N   1      32.362  18.898   8.282  0.00  0.00    -0.246 F 
HETATM    6  O   UNK N   1      34.596  17.733   6.799  0.00  0.00    -0.356 OA
ENDROOT
BRANCH   3   7
HETATM    7  C   UNK N   1      34.962  16.320   8.755  0.00  0.00     0.215 C 
BRANCH   7   8
HETATM    8  O   UNK N   1      34.395  15.864   9.963  0.00  0.00    -0.294 OA
BRANCH   8   9
HETATM    9  P   UNK N   1      35.548  14.900  10.867  0.00  0.00     0.401 P 
HETATM   10  O   UNK N   1      34.239  14.872  11.705  0.00  0.00    -0.631 OA
BRANCH   9  11
HETATM   11  O   UNK N   1      36.207  16.511  10.890  0.00  0.00    -0.307 OA
HETATM   12  H   UNK N   1      36.036  17.455  11.032  0.00  0.00     0.222 HD
ENDBRANCH   9  11
BRANCH   9  13
HETATM   13  O   UNK N   1      36.068  15.333  12.474  0.00  0.00    -0.195 OA
BRANCH  13  14
HETATM   14  P   UNK N   1      36.228  13.853  13.395  0.00  0.00     0.399 P 
HETATM   15  O   UNK N   1      36.949  12.834  12.473  0.00  0.00    -0.631 OA
BRANCH  14  16
HETATM   16  O   UNK N   1      37.198  14.003  14.830  0.00  0.00    -0.307 OA
HETATM   17  H   UNK N   1      38.005  13.926  15.363  0.00  0.00     0.222 HD
ENDBRANCH  14  16
BRANCH  14  18
HETATM   18  O   UNK N   1      34.677  13.168  13.764  0.00  0.00    -0.307 OA
HETATM   19  H   UNK N   1      34.271  12.529  13.159  0.00  0.00     0.222 HD
ENDBRANCH  14  18
ENDBRANCH  13  14
ENDBRANCH   9  13
ENDBRANCH   8   9
ENDBRANCH   7   8
ENDBRANCH   3   7
BRANCH   4  20
HETATM   20  N   UNK N   1      33.508  16.593   4.958  0.00  0.00    -0.282 N 
HETATM   21  C   UNK N   1      34.244  15.449   5.077  0.00  0.00     0.102 A 
HETATM   22  C   UNK N   1      34.399  14.576   4.004  0.00  0.00     0.073 A 
HETATM   23  C   UNK N   1      33.774  14.875   2.802  0.00  0.00     0.144 A 
HETATM   24  N   UNK N   1      33.033  16.005   2.688  0.00  0.00    -0.289 N 
HETATM   25  C   UNK N   1      32.889  16.868   3.743  0.00  0.00     0.330 A 
ATOM     26  HN  UNK N   1      32.575  16.216   1.802  1.00  0.00     0.172 HD
HETATM   27  O   UNK N   1      32.191  17.857   3.601  0.00  0.00    -0.246 OA
BRANCH  23  28
HETATM   28  O   UNK N   1      33.897  14.045   1.754  0.00  0.00    -0.346 OA
HETATM   29  H   UNK N   1      33.159  13.590   1.400  0.00  0.00     0.219 HD
ENDBRANCH  23  28
ENDBRANCH   4  20
TORSDOF 10
ENDMDL
MODEL 4
REMARK VINA RESULT:      -6.6     11.735     13.270
REMARK  10 active torsions:
REMARK  status: ('A' for Active; 'I' for Inactive)
REMARK    1  A    between atoms: C_6  and  C_4 
REMARK    2  A    between atoms: O_21  and  C_4 
REMARK    3  A    between atoms: O_14  and  C_7 
REMARK    4  A    between atoms: C_8  and  N_13 
REMARK    5  A    between atoms: P_24  and  O_16 
REMARK    6  A    between atoms: P_24  and  O_17 
REMARK    7  A    between atoms: P_25  and  O_19 
REMARK    8  A    between atoms: P_25  and  O_21 
REMARK    9  A    between atoms: P_24  and  O_23 
REMARK   10  A    between atoms: P_25  and  O_23 
ROOT
HETATM    1  C   UNK N   1      20.749  15.566   3.439  0.00  0.00     0.094 C 
HETATM    2  C   UNK N   1      19.919  14.473   4.037  0.00  0.00     0.205 C 
HETATM    3  C   UNK N   1      19.226  15.257   5.134  0.00  0.00     0.182 C 
HETATM    4  C   UNK N   1      19.715  16.687   3.432  0.00  0.00     0.235 C 
HETATM    5  F   UNK N   1      18.990  14.045   3.099  0.00  0.00    -0.246 F 
HETATM    6  O   UNK N   1      18.944  16.544   4.615  0.00  0.00    -0.356 OA
ENDROOT
BRANCH   3   7
HETATM    7  C   UNK N   1      20.168  15.340   6.350  0.00  0.00     0.215 C 
BRANCH   7   8
HETATM    8  O   UNK N   1      19.630  14.886   7.571  0.00  0.00    -0.294 OA
BRANCH   8   9
HETATM    9  P   UNK N   1      20.901  14.327   8.641  0.00  0.00     0.401 P 
HETATM   10  O   UNK N   1      20.744  13.212   7.569  0.00  0.00    -0.631 OA
BRANCH   9  11
HETATM   11  O   UNK N   1      19.474  14.367   9.637  0.00  0.00    -0.307 OA
HETATM   12  H   UNK N   1      18.901  13.883  10.252  0.00  0.00     0.222 HD
ENDBRANCH   9  11
BRANCH   9  13
HETATM   13  O   UNK N   1      20.756  12.861   9.575  0.00  0.00    -0.195 OA
BRANCH  13  14
HETATM   14  P   UNK N   1      22.364  12.198   9.772  0.00  0.00     0.399 P 
HETATM   15  O   UNK N   1      23.319  13.405   9.970  0.00  0.00    -0.631 OA
BRANCH  14  16
HETATM   16  O   UNK N   1      22.552  11.176  11.166  0.00  0.00    -0.307 OA
HETATM   17  H   UNK N   1      22.607  10.334  11.644  0.00  0.00     0.222 HD
ENDBRANCH  14  16
BRANCH  14  18
HETATM   18  O   UNK N   1      22.893  11.386   8.333  0.00  0.00    -0.307 OA
HETATM   19  H   UNK N   1      23.151  11.899   7.551  0.00  0.00     0.222 HD
ENDBRANCH  14  18
ENDBRANCH  13  14
ENDBRANCH   9  13
ENDBRANCH   8   9
ENDBRANCH   7   8
ENDBRANCH   3   7
BRANCH   4  20
HETATM   20  N   UNK N   1      20.329  18.026   3.288  0.00  0.00    -0.282 N 
HETATM   21  C   UNK N   1      21.658  18.143   3.580  0.00  0.00     0.102 A 
HETATM   22  C   UNK N   1      22.324  19.356   3.434  0.00  0.00     0.073 A 
HETATM   23  C   UNK N   1      21.618  20.455   2.966  0.00  0.00     0.144 A 
HETATM   24  N   UNK N   1      20.301  20.335   2.665  0.00  0.00    -0.289 N 
HETATM   25  C   UNK N   1      19.646  19.141   2.818  0.00  0.00     0.330 A 
ATOM     26  HN  UNK N   1      19.790  21.147   2.319  1.00  0.00     0.172 HD
HETATM   27  O   UNK N   1      18.468  19.075   2.509  0.00  0.00    -0.246 OA
BRANCH  23  28
HETATM   28  O   UNK N   1      22.239  21.635   2.804  0.00  0.00    -0.346 OA
HETATM   29  H   UNK N   1      22.557  22.126   3.536  0.00  0.00     0.219 HD
ENDBRANCH  23  28
ENDBRANCH   4  20
TORSDOF 10
ENDMDL
MODEL 5
REMARK VINA RESULT:      -6.6     15.007     18.571
REMARK  10 active torsions:
REMARK  status: ('A' for Active; 'I' for Inactive)
REMARK    1  A    between atoms: C_6  and  C_4 
REMARK    2  A    between atoms: O_21  and  C_4 
REMARK    3  A    between atoms: O_14  and  C_7 
REMARK    4  A    between atoms: C_8  and  N_13 
REMARK    5  A    between atoms: P_24  and  O_16 
REMARK    6  A    between atoms: P_24  and  O_17 
REMARK    7  A    between atoms: P_25  and  O_19 
REMARK    8  A    between atoms: P_25  and  O_21 
REMARK    9  A    between atoms: P_24  and  O_23 
REMARK   10  A    between atoms: P_25  and  O_23 
ROOT
HETATM    1  C   UNK N   1      28.766  24.956  -4.884  0.00  0.00     0.094 C 
HETATM    2  C   UNK N   1      27.605  25.838  -4.544  0.00  0.00     0.205 C 
HETATM    3  C   UNK N   1      26.737  24.836  -3.807  0.00  0.00     0.182 C 
HETATM    4  C   UNK N   1      28.914  24.219  -3.556  0.00  0.00     0.235 C 
HETATM    5  F   UNK N   1      28.030  26.831  -3.672  0.00  0.00    -0.246 F 
HETATM    6  O   UNK N   1      27.604  24.005  -3.056  0.00  0.00    -0.356 OA
ENDROOT
BRANCH   3   7
HETATM    7  C   UNK N   1      25.941  24.020  -4.843  0.00  0.00     0.215 C 
BRANCH   7   8
HETATM    8  O   UNK N   1      25.577  24.712  -6.016  0.00  0.00    -0.294 OA
BRANCH   8   9
HETATM    9  P   UNK N   1      26.061  23.814  -7.442  0.00  0.00     0.401 P 
HETATM   10  O   UNK N   1      25.110  24.930  -7.960  0.00  0.00    -0.631 OA
BRANCH   9  11
HETATM   11  O   UNK N   1      25.146  22.676  -6.496  0.00  0.00    -0.307 OA
HETATM   12  H   UNK N   1      24.679  21.826  -6.480  0.00  0.00     0.222 HD
ENDBRANCH   9  11
BRANCH   9  13
HETATM   13  O   UNK N   1      24.915  22.960  -8.440  0.00  0.00    -0.195 OA
BRANCH  13  14
HETATM   14  P   UNK N   1      25.617  21.409  -8.845  0.00  0.00     0.399 P 
HETATM   15  O   UNK N   1      27.157  21.597  -8.804  0.00  0.00    -0.631 OA
BRANCH  14  16
HETATM   16  O   UNK N   1      25.238  20.136  -7.724  0.00  0.00    -0.307 OA
HETATM   17  H   UNK N   1      25.430  19.375  -7.152  0.00  0.00     0.222 HD
ENDBRANCH  14  16
BRANCH  14  18
HETATM   18  O   UNK N   1      25.224  20.942 -10.469  0.00  0.00    -0.307 OA
HETATM   19  H   UNK N   1      25.306  20.015 -10.742  0.00  0.00     0.222 HD
ENDBRANCH  14  18
ENDBRANCH  13  14
ENDBRANCH   9  13
ENDBRANCH   8   9
ENDBRANCH   7   8
ENDBRANCH   3   7
BRANCH   4  20
HETATM   20  N   UNK N   1      29.705  22.975  -3.683  0.00  0.00    -0.282 N 
HETATM   21  C   UNK N   1      29.678  22.332  -4.888  0.00  0.00     0.102 A 
HETATM   22  C   UNK N   1      30.425  21.177  -5.105  0.00  0.00     0.073 A 
HETATM   23  C   UNK N   1      31.221  20.691  -4.078  0.00  0.00     0.144 A 
HETATM   24  N   UNK N   1      31.256  21.338  -2.886  0.00  0.00    -0.289 N 
HETATM   25  C   UNK N   1      30.514  22.469  -2.671  0.00  0.00     0.330 A 
ATOM     26  HN  UNK N   1      31.846  20.976  -2.137  1.00  0.00     0.172 HD
HETATM   27  O   UNK N   1      30.599  23.031  -1.593  0.00  0.00    -0.246 OA
BRANCH  23  28
HETATM   28  O   UNK N   1      31.961  19.586  -4.264  0.00  0.00    -0.346 OA
HETATM   29  H   UNK N   1      32.896  19.611  -4.233  0.00  0.00     0.219 HD
ENDBRANCH  23  28
ENDBRANCH   4  20
TORSDOF 10
ENDMDL
MODEL 6
REMARK VINA RESULT:      -6.5     11.280     14.310
REMARK  10 active torsions:
REMARK  status: ('A' for Active; 'I' for Inactive)
REMARK    1  A    between atoms: C_6  and  C_4 
REMARK    2  A    between atoms: O_21  and  C_4 
REMARK    3  A    between atoms: O_14  and  C_7 
REMARK    4  A    between atoms: C_8  and  N_13 
REMARK    5  A    between atoms: P_24  and  O_16 
REMARK    6  A    between atoms: P_24  and  O_17 
REMARK    7  A    between atoms: P_25  and  O_19 
REMARK    8  A    between atoms: P_25  and  O_21 
REMARK    9  A    between atoms: P_24  and  O_23 
REMARK   10  A    between atoms: P_25  and  O_23 
ROOT
HETATM    1  C   UNK N   1      20.577  16.123   8.776  0.00  0.00     0.094 C 
HETATM    2  C   UNK N   1      19.694  16.607   7.668  0.00  0.00     0.205 C 
HETATM    3  C   UNK N   1      19.942  15.508   6.654  0.00  0.00     0.182 C 
HETATM    4  C   UNK N   1      20.232  14.638   8.736  0.00  0.00     0.235 C 
HETATM    5  F   UNK N   1      18.374  16.573   8.093  0.00  0.00    -0.246 F 
HETATM    6  O   UNK N   1      20.054  14.292   7.372  0.00  0.00    -0.356 OA
ENDROOT
BRANCH   3   7
HETATM    7  C   UNK N   1      21.241  15.826   5.890  0.00  0.00     0.215 C 
BRANCH   7   8
HETATM    8  O   UNK N   1      21.073  16.377   4.603  0.00  0.00    -0.294 OA
BRANCH   8   9
HETATM    9  P   UNK N   1      21.458  18.087   4.602  0.00  0.00     0.401 P 
HETATM   10  O   UNK N   1      20.538  17.870   3.368  0.00  0.00    -0.631 OA
BRANCH   9  11
HETATM   11  O   UNK N   1      22.982  17.294   4.326  0.00  0.00    -0.307 OA
HETATM   12  H   UNK N   1      23.792  16.935   4.721  0.00  0.00     0.222 HD
ENDBRANCH   9  11
BRANCH   9  13
HETATM   13  O   UNK N   1      22.324  18.848   3.294  0.00  0.00    -0.195 OA
BRANCH  13  14
HETATM   14  P   UNK N   1      21.366  20.205   2.744  0.00  0.00     0.399 P 
HETATM   15  O   UNK N   1      22.339  21.407   2.611  0.00  0.00    -0.631 OA
BRANCH  14  16
HETATM   16  O   UNK N   1      20.634  19.980   1.183  0.00  0.00    -0.307 OA
HETATM   17  H   UNK N   1      20.303  19.470   0.427  0.00  0.00     0.222 HD
ENDBRANCH  14  16
BRANCH  14  18
HETATM   18  O   UNK N   1      20.180  20.662   3.924  0.00  0.00    -0.307 OA
HETATM   19  H   UNK N   1      20.041  20.114   4.712  0.00  0.00     0.222 HD
ENDBRANCH  14  18
ENDBRANCH  13  14
ENDBRANCH   9  13
ENDBRANCH   8   9
ENDBRANCH   7   8
ENDBRANCH   3   7
BRANCH   4  20
HETATM   20  N   UNK N   1      21.240  13.802   9.427  0.00  0.00    -0.282 N 
HETATM   21  C   UNK N   1      22.545  13.955   9.056  0.00  0.00     0.102 A 
HETATM   22  C   UNK N   1      23.561  13.238   9.682  0.00  0.00     0.073 A 
HETATM   23  C   UNK N   1      23.231  12.368  10.712  0.00  0.00     0.144 A 
HETATM   24  N   UNK N   1      21.935  12.227  11.087  0.00  0.00    -0.289 N 
HETATM   25  C   UNK N   1      20.936  12.927  10.464  0.00  0.00     0.330 A 
ATOM     26  HN  UNK N   1      21.701  11.588  11.847  1.00  0.00     0.172 HD
HETATM   27  O   UNK N   1      19.790  12.787  10.855  0.00  0.00    -0.246 OA
BRANCH  23  28
HETATM   28  O   UNK N   1      24.192  11.673  11.341  0.00  0.00    -0.346 OA
HETATM   29  H   UNK N   1      24.909  12.101  11.766  0.00  0.00     0.219 HD
ENDBRANCH  23  28
ENDBRANCH   4  20
TORSDOF 10
ENDMDL
MODEL 7
REMARK VINA RESULT:      -6.3      2.379      3.182
REMARK  10 active torsions:
REMARK  status: ('A' for Active; 'I' for Inactive)
REMARK    1  A    between atoms: C_6  and  C_4 
REMARK    2  A    between atoms: O_21  and  C_4 
REMARK    3  A    between atoms: O_14  and  C_7 
REMARK    4  A    between atoms: C_8  and  N_13 
REMARK    5  A    between atoms: P_24  and  O_16 
REMARK    6  A    between atoms: P_24  and  O_17 
REMARK    7  A    between atoms: P_25  and  O_19 
REMARK    8  A    between atoms: P_25  and  O_21 
REMARK    9  A    between atoms: P_24  and  O_23 
REMARK   10  A    between atoms: P_25  and  O_23 
ROOT
HETATM    1  C   UNK N   1      32.440  17.636   4.652  0.00  0.00     0.094 C 
HETATM    2  C   UNK N   1      32.956  16.708   3.596  0.00  0.00     0.205 C 
HETATM    3  C   UNK N   1      32.885  15.399   4.359  0.00  0.00     0.182 C 
HETATM    4  C   UNK N   1      31.284  16.793   5.179  0.00  0.00     0.235 C 
HETATM    5  F   UNK N   1      32.063  16.688   2.534  0.00  0.00    -0.246 F 
HETATM    6  O   UNK N   1      31.714  15.441   5.155  0.00  0.00    -0.356 OA
ENDROOT
BRANCH   3   7
HETATM    7  C   UNK N   1      34.148  15.268   5.230  0.00  0.00     0.215 C 
BRANCH   7   8
HETATM    8  O   UNK N   1      34.068  14.336   6.285  0.00  0.00    -0.294 OA
BRANCH   8   9
HETATM    9  P   UNK N   1      35.106  14.811   7.615  0.00  0.00     0.401 P 
HETATM   10  O   UNK N   1      33.732  14.480   8.262  0.00  0.00    -0.631 OA
BRANCH   9  11
HETATM   11  O   UNK N   1      34.950  16.248   6.646  0.00  0.00    -0.307 OA
HETATM   12  H   UNK N   1      35.387  16.872   6.046  0.00  0.00     0.222 HD
ENDBRANCH   9  11
BRANCH   9  13
HETATM   13  O   UNK N   1      34.766  16.199   8.615  0.00  0.00    -0.195 OA
BRANCH  13  14
HETATM   14  P   UNK N   1      34.825  15.677  10.284  0.00  0.00     0.399 P 
HETATM   15  O   UNK N   1      35.303  16.899  11.113  0.00  0.00    -0.631 OA
BRANCH  14  16
HETATM   16  O   UNK N   1      33.288  15.198  10.941  0.00  0.00    -0.307 OA
HETATM   17  H   UNK N   1      32.410  14.785  10.925  0.00  0.00     0.222 HD
ENDBRANCH  14  16
BRANCH  14  18
HETATM   18  O   UNK N   1      36.013  14.434  10.516  0.00  0.00    -0.307 OA
HETATM   19  H   UNK N   1      36.775  14.590  11.095  0.00  0.00     0.222 HD
ENDBRANCH  14  18
ENDBRANCH  13  14
ENDBRANCH   9  13
ENDBRANCH   8   9
ENDBRANCH   7   8
ENDBRANCH   3   7
BRANCH   4  20
HETATM   20  N   UNK N   1      30.818  17.238   6.512  0.00  0.00    -0.282 N 
HETATM   21  C   UNK N   1      31.764  17.416   7.482  0.00  0.00     0.102 A 
HETATM   22  C   UNK N   1      31.417  17.870   8.751  0.00  0.00     0.073 A 
HETATM   23  C   UNK N   1      30.087  18.161   9.018  0.00  0.00     0.144 A 
HETATM   24  N   UNK N   1      29.151  17.996   8.051  0.00  0.00    -0.289 N 
HETATM   25  C   UNK N   1      29.493  17.540   6.805  0.00  0.00     0.330 A 
ATOM     26  HN  UNK N   1      28.177  18.215   8.254  1.00  0.00     0.172 HD
HETATM   27  O   UNK N   1      28.621  17.433   5.960  0.00  0.00    -0.246 OA
BRANCH  23  28
HETATM   28  O   UNK N   1      29.728  18.613  10.230  0.00  0.00    -0.346 OA
HETATM   29  H   UNK N   1      29.913  18.127  11.010  0.00  0.00     0.219 HD
ENDBRANCH  23  28
ENDBRANCH   4  20
TORSDOF 10
ENDMDL
MODEL 8
REMARK VINA RESULT:      -6.2     15.682     17.513
REMARK  10 active torsions:
REMARK  status: ('A' for Active; 'I' for Inactive)
REMARK    1  A    between atoms: C_6  and  C_4 
REMARK    2  A    between atoms: O_21  and  C_4 
REMARK    3  A    between atoms: O_14  and  C_7 
REMARK    4  A    between atoms: C_8  and  N_13 
REMARK    5  A    between atoms: P_24  and  O_16 
REMARK    6  A    between atoms: P_24  and  O_17 
REMARK    7  A    between atoms: P_25  and  O_19 
REMARK    8  A    between atoms: P_25  and  O_21 
REMARK    9  A    between atoms: P_24  and  O_23 
REMARK   10  A    between atoms: P_25  and  O_23 
ROOT
HETATM    1  C   UNK N   1      26.774  25.340  -7.386  0.00  0.00     0.094 C 
HETATM    2  C   UNK N   1      26.729  23.923  -7.871  0.00  0.00     0.205 C 
HETATM    3  C   UNK N   1      26.913  23.202  -6.550  0.00  0.00     0.182 C 
HETATM    4  C   UNK N   1      25.907  25.202  -6.139  0.00  0.00     0.235 C 
HETATM    5  F   UNK N   1      25.467  23.660  -8.385  0.00  0.00    -0.246 F 
HETATM    6  O   UNK N   1      26.202  23.937  -5.569  0.00  0.00    -0.356 OA
ENDROOT
BRANCH   3   7
HETATM    7  C   UNK N   1      28.417  23.147  -6.225  0.00  0.00     0.215 C 
BRANCH   7   8
HETATM    8  O   UNK N   1      29.048  21.909  -6.463  0.00  0.00    -0.294 OA
BRANCH   8   9
HETATM    9  P   UNK N   1      30.535  21.781  -5.543  0.00  0.00     0.401 P 
HETATM   10  O   UNK N   1      30.098  20.317  -5.825  0.00  0.00    -0.631 OA
BRANCH   9  11
HETATM   11  O   UNK N   1      29.402  22.516  -4.446  0.00  0.00    -0.307 OA
HETATM   12  H   UNK N   1      29.247  23.207  -3.783  0.00  0.00     0.222 HD
ENDBRANCH   9  11
BRANCH   9  13
HETATM   13  O   UNK N   1      30.602  21.014  -3.979  0.00  0.00    -0.195 OA
BRANCH  13  14
HETATM   14  P   UNK N   1      31.550  22.041  -2.925  0.00  0.00     0.399 P 
HETATM   15  O   UNK N   1      32.250  23.084  -3.837  0.00  0.00    -0.631 OA
BRANCH  14  16
HETATM   16  O   UNK N   1      30.615  22.938  -1.767  0.00  0.00    -0.307 OA
HETATM   17  H   UNK N   1      30.443  23.649  -1.129  0.00  0.00     0.222 HD
ENDBRANCH  14  16
BRANCH  14  18
HETATM   18  O   UNK N   1      32.815  21.147  -2.143  0.00  0.00    -0.307 OA
HETATM   19  H   UNK N   1      32.735  20.187  -2.032  0.00  0.00     0.222 HD
ENDBRANCH  14  18
ENDBRANCH  13  14
ENDBRANCH   9  13
ENDBRANCH   8   9
ENDBRANCH   7   8
ENDBRANCH   3   7
BRANCH   4  20
HETATM   20  N   UNK N   1      26.087  26.328  -5.196  0.00  0.00    -0.282 N 
HETATM   21  C   UNK N   1      27.258  26.382  -4.495  0.00  0.00     0.102 A 
HETATM   22  C   UNK N   1      27.525  27.428  -3.617  0.00  0.00     0.073 A 
HETATM   23  C   UNK N   1      26.585  28.438  -3.472  0.00  0.00     0.144 A 
HETATM   24  N   UNK N   1      25.428  28.390  -4.177  0.00  0.00    -0.289 N 
HETATM   25  C   UNK N   1      25.162  27.354  -5.035  0.00  0.00     0.330 A 
ATOM     26  HN  UNK N   1      24.743  29.137  -4.068  1.00  0.00     0.172 HD
HETATM   27  O   UNK N   1      24.120  27.368  -5.667  0.00  0.00    -0.246 OA
BRANCH  23  28
HETATM   28  O   UNK N   1      26.823  29.465  -2.641  0.00  0.00    -0.346 OA
HETATM   29  H   UNK N   1      27.669  29.863  -2.583  0.00  0.00     0.219 HD
ENDBRANCH  23  28
ENDBRANCH   4  20
TORSDOF 10
ENDMDL
MODEL 9
REMARK VINA RESULT:      -6.2     15.120     17.257
REMARK  10 active torsions:
REMARK  status: ('A' for Active; 'I' for Inactive)
REMARK    1  A    between atoms: C_6  and  C_4 
REMARK    2  A    between atoms: O_21  and  C_4 
REMARK    3  A    between atoms: O_14  and  C_7 
REMARK    4  A    between atoms: C_8  and  N_13 
REMARK    5  A    between atoms: P_24  and  O_16 
REMARK    6  A    between atoms: P_24  and  O_17 
REMARK    7  A    between atoms: P_25  and  O_19 
REMARK    8  A    between atoms: P_25  and  O_21 
REMARK    9  A    between atoms: P_24  and  O_23 
REMARK   10  A    between atoms: P_25  and  O_23 
ROOT
HETATM    1  C   UNK N   1      26.220  25.795  -4.467  0.00  0.00     0.094 C 
HETATM    2  C   UNK N   1      27.283  26.533  -3.713  0.00  0.00     0.205 C 
HETATM    3  C   UNK N   1      28.506  25.791  -4.216  0.00  0.00     0.182 C 
HETATM    4  C   UNK N   1      26.902  25.702  -5.828  0.00  0.00     0.235 C 
HETATM    5  F   UNK N   1      27.315  27.851  -4.147  0.00  0.00    -0.246 F 
HETATM    6  O   UNK N   1      28.285  25.497  -5.584  0.00  0.00    -0.356 OA
ENDROOT
BRANCH   3   7
HETATM    7  C   UNK N   1      28.675  24.503  -3.388  0.00  0.00     0.215 C 
BRANCH   7   8
HETATM    8  O   UNK N   1      29.946  24.313  -2.807  0.00  0.00    -0.294 OA
BRANCH   8   9
HETATM    9  P   UNK N   1      30.443  22.637  -2.932  0.00  0.00     0.401 P 
HETATM   10  O   UNK N   1      30.463  22.961  -1.412  0.00  0.00    -0.631 OA
BRANCH   9  11
HETATM   11  O   UNK N   1      31.708  23.531  -3.724  0.00  0.00    -0.307 OA
HETATM   12  H   UNK N   1      32.318  23.578  -4.477  0.00  0.00     0.222 HD
ENDBRANCH   9  11
BRANCH   9  13
HETATM   13  O   UNK N   1      32.011  22.087  -2.406  0.00  0.00    -0.195 OA
BRANCH  13  14
HETATM   14  P   UNK N   1      32.747  21.228  -3.741  0.00  0.00     0.399 P 
HETATM   15  O   UNK N   1      31.595  20.839  -4.705  0.00  0.00    -0.631 OA
BRANCH  14  16
HETATM   16  O   UNK N   1      33.876  22.172  -4.666  0.00  0.00    -0.307 OA
HETATM   17  H   UNK N   1      34.571  22.322  -5.327  0.00  0.00     0.222 HD
ENDBRANCH  14  16
BRANCH  14  18
HETATM   18  O   UNK N   1      33.469  19.740  -3.214  0.00  0.00    -0.307 OA
HETATM   19  H   UNK N   1      34.235  19.754  -2.620  0.00  0.00     0.222 HD
ENDBRANCH  14  18
ENDBRANCH  13  14
ENDBRANCH   9  13
ENDBRANCH   8   9
ENDBRANCH   7   8
ENDBRANCH   3   7
BRANCH   4  20
HETATM   20  N   UNK N   1      26.298  24.665  -6.695  0.00  0.00    -0.282 N 
HETATM   21  C   UNK N   1      26.252  23.389  -6.211  0.00  0.00     0.102 A 
HETATM   22  C   UNK N   1      25.665  22.361  -6.944  0.00  0.00     0.073 A 
HETATM   23  C   UNK N   1      25.106  22.654  -8.180  0.00  0.00     0.144 A 
HETATM   24  N   UNK N   1      25.142  23.924  -8.654  0.00  0.00    -0.289 N 
HETATM   25  C   UNK N   1      25.728  24.933  -7.935  0.00  0.00     0.330 A 
ATOM     26  HN  UNK N   1      24.726  24.132  -9.561  1.00  0.00     0.172 HD
HETATM   27  O   UNK N   1      25.712  26.064  -8.390  0.00  0.00    -0.246 OA
BRANCH  23  28
HETATM   28  O   UNK N   1      24.523  21.684  -8.902  0.00  0.00    -0.346 OA
HETATM   29  H   UNK N   1      23.656  21.385  -8.713  0.00  0.00     0.219 HD
ENDBRANCH  23  28
ENDBRANCH   4  20
TORSDOF 10
ENDMDL
