MODEL 1
REMARK VINA RESULT:      -4.2      0.000      0.000
REMARK  5 active torsions:
REMARK  status: ('A' for Active; 'I' for Inactive)
REMARK    1  A    between atoms: C_2  and  C_3 
REMARK    2  A    between atoms: C_3  and  C_4 
REMARK    3  A    between atoms: C_4  and  N_5 
REMARK    4  A    between atoms: C_4  and  C_6 
REMARK    5  A    between atoms: C_6  and  O_7 
ROOT
HETATM    1  C   UNK N   1      33.897  17.282   8.942  0.00  0.00     0.173 C 
ENDROOT
BRANCH   1   2
HETATM    2  C   UNK N   1      32.574  16.546   8.718  0.00  0.00     0.035 C 
BRANCH   2   3
HETATM    3  C   UNK N   1      31.426  17.472   8.371  0.00  0.00    -0.002 C 
HETATM    4  C   UNK N   1      30.909  17.160   6.985  0.00  0.00     0.005 C 
ENDBRANCH   2   3
ENDBRANCH   1   2
BRANCH   1   5
HETATM    5  N   UNK N   1      34.578  16.995  10.191  0.00  0.00    -0.418 N 
HETATM    6  H   UNK N   1      34.078  17.079  11.076  0.00  0.00     0.150 HD
HETATM    7  H   UNK N   1      35.558  16.708  10.183  0.00  0.00     0.150 HD
ENDBRANCH   1   5
BRANCH   1   8
HETATM    8  C   UNK N   1      34.569  18.267   8.018  0.00  0.00     0.163 C 
HETATM    9  O   UNK N   1      34.468  18.166   6.808  0.00  0.00    -0.648 OA
BRANCH   8  10
HETATM   10  O   UNK N   1      35.294  19.277   8.537  0.00  0.00    -0.775 OA
HETATM   11  H   UNK N   1      36.205  19.354   8.331  0.00  0.00     0.167 HD
ENDBRANCH   8  10
ENDBRANCH   1   8
TORSDOF 5
ENDMDL
MODEL 2
REMARK VINA RESULT:      -4.1     11.846     12.510
REMARK  5 active torsions:
REMARK  status: ('A' for Active; 'I' for Inactive)
REMARK    1  A    between atoms: C_2  and  C_3 
REMARK    2  A    between atoms: C_3  and  C_4 
REMARK    3  A    between atoms: C_4  and  N_5 
REMARK    4  A    between atoms: C_4  and  C_6 
REMARK    5  A    between atoms: C_6  and  O_7 
ROOT
HETATM    1  C   UNK N   1      23.702  11.978  11.469  0.00  0.00     0.173 C 
ENDROOT
BRANCH   1   2
HETATM    2  C   UNK N   1      22.901  11.543  10.239  0.00  0.00     0.035 C 
BRANCH   2   3
HETATM    3  C   UNK N   1      22.211  12.695   9.537  0.00  0.00    -0.002 C 
HETATM    4  C   UNK N   1      20.958  13.083  10.287  0.00  0.00     0.005 C 
ENDBRANCH   2   3
ENDBRANCH   1   2
BRANCH   1   5
HETATM    5  N   UNK N   1      24.999  12.573  11.203  0.00  0.00    -0.418 N 
HETATM    6  H   UNK N   1      25.221  13.497  11.571  0.00  0.00     0.150 HD
HETATM    7  H   UNK N   1      25.688  12.064  10.648  0.00  0.00     0.150 HD
ENDBRANCH   1   5
BRANCH   1   8
HETATM    8  C   UNK N   1      23.297  11.859  12.918  0.00  0.00     0.163 C 
HETATM    9  O   UNK N   1      23.957  12.378  13.800  0.00  0.00    -0.648 OA
BRANCH   8  10
HETATM   10  O   UNK N   1      22.187  11.169  13.242  0.00  0.00    -0.775 OA
HETATM   11  H   UNK N   1      22.258  10.367  13.721  0.00  0.00     0.167 HD
ENDBRANCH   8  10
ENDBRANCH   1   8
TORSDOF 5
ENDMDL
MODEL 3
REMARK VINA RESULT:      -4.0     12.069     12.629
REMARK  5 active torsions:
REMARK  status: ('A' for Active; 'I' for Inactive)
REMARK    1  A    between atoms: C_2  and  C_3 
REMARK    2  A    between atoms: C_3  and  C_4 
REMARK    3  A    between atoms: C_4  and  N_5 
REMARK    4  A    between atoms: C_4  and  C_6 
REMARK    5  A    between atoms: C_6  and  O_7 
ROOT
HETATM    1  C   UNK N   1      22.424  12.326  11.479  0.00  0.00     0.173 C 
ENDROOT
BRANCH   1   2
HETATM    2  C   UNK N   1      22.281  13.125  10.181  0.00  0.00     0.035 C 
BRANCH   2   3
HETATM    3  C   UNK N   1      20.873  13.634   9.945  0.00  0.00    -0.002 C 
HETATM    4  C   UNK N   1      20.911  14.903   9.125  0.00  0.00     0.005 C 
ENDBRANCH   2   3
ENDBRANCH   1   2
BRANCH   1   5
HETATM    5  N   UNK N   1      21.224  11.662  11.950  0.00  0.00    -0.418 N 
HETATM    6  H   UNK N   1      21.078  11.521  12.949  0.00  0.00     0.150 HD
HETATM    7  H   UNK N   1      20.526  11.335  11.281  0.00  0.00     0.150 HD
ENDBRANCH   1   5
BRANCH   1   8
HETATM    8  C   UNK N   1      23.666  12.153  12.318  0.00  0.00     0.163 C 
HETATM    9  O   UNK N   1      23.595  12.011  13.526  0.00  0.00    -0.648 OA
BRANCH   8  10
HETATM   10  O   UNK N   1      24.875  12.154  11.723  0.00  0.00    -0.775 OA
HETATM   11  H   UNK N   1      25.654  12.147  12.244  0.00  0.00     0.167 HD
ENDBRANCH   8  10
ENDBRANCH   1   8
TORSDOF 5
ENDMDL
MODEL 4
REMARK VINA RESULT:      -3.8      1.860      3.349
REMARK  5 active torsions:
REMARK  status: ('A' for Active; 'I' for Inactive)
REMARK    1  A    between atoms: C_2  and  C_3 
REMARK    2  A    between atoms: C_3  and  C_4 
REMARK    3  A    between atoms: C_4  and  N_5 
REMARK    4  A    between atoms: C_4  and  C_6 
REMARK    5  A    between atoms: C_6  and  O_7 
ROOT
HETATM    1  C   UNK N   1      33.722  17.266   8.827  0.00  0.00     0.173 C 
ENDROOT
BRANCH   1   2
HETATM    2  C   UNK N   1      34.306  16.098   9.623  0.00  0.00     0.035 C 
BRANCH   2   3
HETATM    3  C   UNK N   1      35.273  16.537  10.706  0.00  0.00    -0.002 C 
HETATM    4  C   UNK N   1      36.396  15.534  10.834  0.00  0.00     0.005 C 
ENDBRANCH   2   3
ENDBRANCH   1   2
BRANCH   1   5
HETATM    5  N   UNK N   1      32.287  17.453   8.936  0.00  0.00    -0.418 N 
HETATM    6  H   UNK N   1      31.697  17.375   8.108  0.00  0.00     0.150 HD
HETATM    7  H   UNK N   1      31.868  17.664   9.843  0.00  0.00     0.150 HD
ENDBRANCH   1   5
BRANCH   1   8
HETATM    8  C   UNK N   1      34.464  18.240   7.945  0.00  0.00     0.163 C 
HETATM    9  O   UNK N   1      35.081  19.176   8.420  0.00  0.00    -0.648 OA
BRANCH   8  10
HETATM   10  O   UNK N   1      34.445  18.073   6.608  0.00  0.00    -0.775 OA
HETATM   11  H   UNK N   1      35.107  17.557   6.191  0.00  0.00     0.167 HD
ENDBRANCH   8  10
ENDBRANCH   1   8
TORSDOF 5
ENDMDL
MODEL 5
REMARK VINA RESULT:      -3.8     13.445     14.394
REMARK  5 active torsions:
REMARK  status: ('A' for Active; 'I' for Inactive)
REMARK    1  A    between atoms: C_2  and  C_3 
REMARK    2  A    between atoms: C_3  and  C_4 
REMARK    3  A    between atoms: C_4  and  N_5 
REMARK    4  A    between atoms: C_4  and  C_6 
REMARK    5  A    between atoms: C_6  and  O_7 
ROOT
HETATM    1  C   UNK N   1      20.188  19.547   2.493  0.00  0.00     0.173 C 
ENDROOT
BRANCH   1   2
HETATM    2  C   UNK N   1      20.874  19.473   3.858  0.00  0.00     0.035 C 
BRANCH   2   3
HETATM    3  C   UNK N   1      22.279  18.908   3.792  0.00  0.00    -0.002 C 
HETATM    4  C   UNK N   1      22.229  17.399   3.724  0.00  0.00     0.005 C 
ENDBRANCH   2   3
ENDBRANCH   1   2
BRANCH   1   5
HETATM    5  N   UNK N   1      18.968  18.773   2.353  0.00  0.00    -0.418 N 
HETATM    6  H   UNK N   1      18.689  18.124   3.087  0.00  0.00     0.150 HD
HETATM    7  H   UNK N   1      18.390  18.881   1.519  0.00  0.00     0.150 HD
ENDBRANCH   1   5
BRANCH   1   8
HETATM    8  C   UNK N   1      20.634  20.329   1.282  0.00  0.00     0.163 C 
HETATM    9  O   UNK N   1      21.031  21.476   1.384  0.00  0.00    -0.648 OA
BRANCH   8  10
HETATM   10  O   UNK N   1      20.594  19.750   0.066  0.00  0.00    -0.775 OA
HETATM   11  H   UNK N   1      20.447  20.273  -0.697  0.00  0.00     0.167 HD
ENDBRANCH   8  10
ENDBRANCH   1   8
TORSDOF 5
ENDMDL
MODEL 6
REMARK VINA RESULT:      -3.7      4.477      5.503
REMARK  5 active torsions:
REMARK  status: ('A' for Active; 'I' for Inactive)
REMARK    1  A    between atoms: C_2  and  C_3 
REMARK    2  A    between atoms: C_3  and  C_4 
REMARK    3  A    between atoms: C_4  and  N_5 
REMARK    4  A    between atoms: C_4  and  C_6 
REMARK    5  A    between atoms: C_6  and  O_7 
ROOT
HETATM    1  C   UNK N   1      34.819  15.033  11.307  0.00  0.00     0.173 C 
ENDROOT
BRANCH   1   2
HETATM    2  C   UNK N   1      35.220  13.825  12.156  0.00  0.00     0.035 C 
BRANCH   2   3
HETATM    3  C   UNK N   1      35.937  14.205  13.436  0.00  0.00    -0.002 C 
HETATM    4  C   UNK N   1      35.518  13.282  14.558  0.00  0.00     0.005 C 
ENDBRANCH   2   3
ENDBRANCH   1   2
BRANCH   1   5
HETATM    5  N   UNK N   1      33.450  15.045  10.827  0.00  0.00    -0.418 N 
HETATM    6  H   UNK N   1      33.255  14.900   9.837  0.00  0.00     0.150 HD
HETATM    7  H   UNK N   1      32.682  15.199  11.482  0.00  0.00     0.150 HD
ENDBRANCH   1   5
BRANCH   1   8
HETATM    8  C   UNK N   1      35.683  16.207  10.914  0.00  0.00     0.163 C 
HETATM    9  O   UNK N   1      35.194  17.299  10.685  0.00  0.00    -0.648 OA
BRANCH   8  10
HETATM   10  O   UNK N   1      37.016  16.046  10.814  0.00  0.00    -0.775 OA
HETATM   11  H   UNK N   1      37.556  16.764  10.549  0.00  0.00     0.167 HD
ENDBRANCH   8  10
ENDBRANCH   1   8
TORSDOF 5
ENDMDL
MODEL 7
REMARK VINA RESULT:      -3.7      7.703      8.499
REMARK  5 active torsions:
REMARK  status: ('A' for Active; 'I' for Inactive)
REMARK    1  A    between atoms: C_2  and  C_3 
REMARK    2  A    between atoms: C_3  and  C_4 
REMARK    3  A    between atoms: C_4  and  N_5 
REMARK    4  A    between atoms: C_4  and  C_6 
REMARK    5  A    between atoms: C_6  and  O_7 
ROOT
HETATM    1  C   UNK N   1      36.390  13.884  14.952  0.00  0.00     0.173 C 
ENDROOT
BRANCH   1   2
HETATM    2  C   UNK N   1      36.012  12.772  15.933  0.00  0.00     0.035 C 
BRANCH   2   3
HETATM    3  C   UNK N   1      34.780  13.093  16.755  0.00  0.00    -0.002 C 
HETATM    4  C   UNK N   1      35.185  13.573  18.130  0.00  0.00     0.005 C 
ENDBRANCH   2   3
ENDBRANCH   1   2
BRANCH   1   5
HETATM    5  N   UNK N   1      37.357  14.853  15.433  0.00  0.00    -0.418 N 
HETATM    6  H   UNK N   1      37.043  15.757  15.782  0.00  0.00     0.150 HD
HETATM    7  H   UNK N   1      38.353  14.628  15.422  0.00  0.00     0.150 HD
ENDBRANCH   1   5
BRANCH   1   8
HETATM    8  C   UNK N   1      35.874  14.085  13.548  0.00  0.00     0.163 C 
HETATM    9  O   UNK N   1      34.849  13.547  13.171  0.00  0.00    -0.648 OA
BRANCH   8  10
HETATM   10  O   UNK N   1      36.557  14.874  12.696  0.00  0.00    -0.775 OA
HETATM   11  H   UNK N   1      37.454  15.084  12.869  0.00  0.00     0.167 HD
ENDBRANCH   8  10
ENDBRANCH   1   8
TORSDOF 5
ENDMDL
MODEL 8
REMARK VINA RESULT:      -3.5     11.352     12.458
REMARK  5 active torsions:
REMARK  status: ('A' for Active; 'I' for Inactive)
REMARK    1  A    between atoms: C_2  and  C_3 
REMARK    2  A    between atoms: C_3  and  C_4 
REMARK    3  A    between atoms: C_4  and  N_5 
REMARK    4  A    between atoms: C_4  and  C_6 
REMARK    5  A    between atoms: C_6  and  O_7 
ROOT
HETATM    1  C   UNK N   1      43.784  22.965   3.202  0.00  0.00     0.173 C 
ENDROOT
BRANCH   1   2
HETATM    2  C   UNK N   1      43.132  23.079   1.822  0.00  0.00     0.035 C 
BRANCH   2   3
HETATM    3  C   UNK N   1      41.620  23.163   1.880  0.00  0.00    -0.002 C 
HETATM    4  C   UNK N   1      41.037  21.802   2.185  0.00  0.00     0.005 C 
ENDBRANCH   2   3
ENDBRANCH   1   2
BRANCH   1   5
HETATM    5  N   UNK N   1      43.527  24.061   4.117  0.00  0.00    -0.418 N 
HETATM    6  H   UNK N   1      43.597  25.024   3.792  0.00  0.00     0.150 HD
HETATM    7  H   UNK N   1      43.276  23.866   5.087  0.00  0.00     0.150 HD
ENDBRANCH   1   5
BRANCH   1   8
HETATM    8  C   UNK N   1      44.660  21.848   3.715  0.00  0.00     0.163 C 
HETATM    9  O   UNK N   1      44.302  20.686   3.648  0.00  0.00    -0.648 OA
BRANCH   8  10
HETATM   10  O   UNK N   1      45.858  22.140   4.256  0.00  0.00    -0.775 OA
HETATM   11  H   UNK N   1      46.643  21.981   3.770  0.00  0.00     0.167 HD
ENDBRANCH   8  10
ENDBRANCH   1   8
TORSDOF 5
ENDMDL
MODEL 9
REMARK VINA RESULT:      -3.4      7.404      8.062
REMARK  5 active torsions:
REMARK  status: ('A' for Active; 'I' for Inactive)
REMARK    1  A    between atoms: C_2  and  C_3 
REMARK    2  A    between atoms: C_3  and  C_4 
REMARK    3  A    between atoms: C_4  and  N_5 
REMARK    4  A    between atoms: C_4  and  C_6 
REMARK    5  A    between atoms: C_6  and  O_7 
ROOT
HETATM    1  C   UNK N   1      35.961  13.192  14.619  0.00  0.00     0.173 C 
ENDROOT
BRANCH   1   2
HETATM    2  C   UNK N   1      34.961  12.736  15.684  0.00  0.00     0.035 C 
BRANCH   2   3
HETATM    3  C   UNK N   1      34.733  11.237  15.689  0.00  0.00    -0.002 C 
HETATM    4  C   UNK N   1      33.708  10.866  14.642  0.00  0.00     0.005 C 
ENDBRANCH   2   3
ENDBRANCH   1   2
BRANCH   1   5
HETATM    5  N   UNK N   1      37.334  12.768  14.817  0.00  0.00    -0.418 N 
HETATM    6  H   UNK N   1      37.536  11.814  15.112  0.00  0.00     0.150 HD
HETATM    7  H   UNK N   1      38.098  13.427  14.660  0.00  0.00     0.150 HD
ENDBRANCH   1   5
BRANCH   1   8
HETATM    8  C   UNK N   1      35.681  14.027  13.394  0.00  0.00     0.163 C 
HETATM    9  O   UNK N   1      34.739  13.778  12.663  0.00  0.00    -0.648 OA
BRANCH   8  10
HETATM   10  O   UNK N   1      36.486  15.067  13.102  0.00  0.00    -0.775 OA
HETATM   11  H   UNK N   1      37.227  15.253  13.645  0.00  0.00     0.167 HD
ENDBRANCH   8  10
ENDBRANCH   1   8
TORSDOF 5
ENDMDL
