REMARK  9 active torsions:
REMARK  status: ('A' for Active; 'I' for Inactive)
REMARK    1  A    between atoms: C_2  and  O_13 
REMARK    2  A    between atoms: C_4  and  C_5 
REMARK    3  A    between atoms: C_5  and  O_6 
REMARK    4  A    between atoms: C_7  and  O_8 
REMARK    5  A    between atoms: C_9  and  O_10 
REMARK    6  A    between atoms: C_11  and  O_12 
REMARK    7  A    between atoms: O_13  and  P_14 
REMARK    8  A    between atoms: P_14  and  O_15 
REMARK    9  A    between atoms: P_14  and  O_16 
ROOT
HETATM    1  C   UNK N   1      -0.196   0.762   1.845  0.00  0.00     0.082 C 
HETATM    2  C   UNK N   1       0.233   1.215   0.444  0.00  0.00     0.200 C 
HETATM    3  O   UNK N   1       1.592   0.874   0.206  0.00  0.00    -0.342 OA
HETATM    4  C   UNK N   1       1.797  -0.527   0.312  0.00  0.00     0.180 C 
HETATM    5  C   UNK N   1       1.041  -1.266  -0.807  0.00  0.00     0.180 C 
HETATM    6  C   UNK N   1      -0.451  -0.943  -0.736  0.00  0.00     0.183 C 
HETATM    7  C   UNK N   1      -0.632   0.575  -0.666  0.00  0.00     0.211 C 
ENDROOT
BRANCH   2   8
HETATM    8  O   UNK N   1      -0.019   2.616   0.411  0.00  0.00    -0.257 OA
BRANCH   8   9
HETATM    9  P   UNK N   1       1.334   3.676   0.029  0.00  0.00     0.393 P 
HETATM   10  O   UNK N   1       1.298   4.790   1.109  0.00  0.00    -0.631 OA
BRANCH   9  11
HETATM   11  O   UNK N   1       1.076   4.502  -1.475  0.00  0.00    -0.307 OA
HETATM   12  H   UNK N   1       1.404   4.858  -2.316  0.00  0.00     0.222 HD
ENDBRANCH   9  11
BRANCH   9  13
HETATM   13  O   UNK N   1       2.935   3.005   0.119  0.00  0.00    -0.307 OA
HETATM   14  H   UNK N   1       3.058   2.045   0.169  0.00  0.00     0.222 HD
ENDBRANCH   9  13
ENDBRANCH   8   9
ENDBRANCH   2   8
BRANCH   7  15
HETATM   15  O   UNK N   1      -1.982   0.905  -0.528  0.00  0.00    -0.387 OA
HETATM   16  H   UNK N   1      -2.253   1.831  -0.433  0.00  0.00     0.210 HD
ENDBRANCH   7  15
BRANCH   4  17
HETATM   17  C   UNK N   1       3.296  -0.793   0.241  0.00  0.00     0.198 C 
BRANCH  17  18
HETATM   18  O   UNK N   1       3.582  -2.116   0.583  0.00  0.00    -0.398 OA
HETATM   19  H   UNK N   1       2.885  -2.748   0.820  0.00  0.00     0.209 HD
ENDBRANCH  17  18
ENDBRANCH   4  17
BRANCH   6  20
HETATM   20  O   UNK N   1      -1.038  -1.561   0.375  0.00  0.00    -0.390 OA
HETATM   21  H   UNK N   1      -1.612  -1.422   1.145  0.00  0.00     0.210 HD
ENDBRANCH   6  20
BRANCH   5  22
HETATM   22  O   UNK N   1       1.222  -2.649  -0.709  0.00  0.00    -0.390 OA
HETATM   23  H   UNK N   1       0.453  -3.237  -0.641  0.00  0.00     0.210 HD
ENDBRANCH   5  22
TORSDOF 9
