REMARK  3 active torsions:
REMARK  status: ('A' for Active; 'I' for Inactive)
REMARK    1  A    between atoms: N_1  and  C_2 
REMARK    2  A    between atoms: C_7  and  C_8 
REMARK    3  A    between atoms: C_8  and  O_9 
ROOT
HETATM    1  C   UNK N   1       1.600   0.803   0.000  0.00  0.00     0.042 A 
HETATM    2  C   UNK N   1       1.573  -0.595   0.000  0.00  0.00     0.030 A 
HETATM    3  C   UNK N   1       0.356  -1.279   0.000  0.00  0.00     0.002 A 
HETATM    4  C   UNK N   1      -0.844  -0.569   0.000  0.00  0.00     0.001 A 
HETATM    5  C   UNK N   1      -0.829   0.828   0.000  0.00  0.00     0.020 A 
HETATM    6  C   UNK N   1       0.385   1.533  -0.000  0.00  0.00     0.063 A 
ENDROOT
BRANCH   6   7
HETATM    7  C   UNK N   1       0.341   3.019  -0.000  0.00  0.00     0.178 C 
HETATM    8  O   UNK N   1       1.368   3.678  -0.000  0.00  0.00    -0.646 OA
BRANCH   7   9
HETATM    9  O   UNK N   1      -0.847   3.655  -0.000  0.00  0.00    -0.773 OA
HETATM   10  H   UNK N   1      -0.877   4.592  -0.000  0.00  0.00     0.167 HD
ENDBRANCH   7   9
ENDBRANCH   6   7
BRANCH   1  11
HETATM   11  N   UNK N   1       2.849   1.458  -0.000  0.00  0.00    -0.398 N 
HETATM   12  H   UNK N   1       3.681   0.932  -0.000  0.00  0.00     0.156 HD
HETATM   13  H   UNK N   1       2.890   2.442  -0.000  0.00  0.00     0.156 HD
ENDBRANCH   1  11
TORSDOF 3
