MODEL 1
REMARK VINA RESULT:      -9.2      0.000      0.000
REMARK  15 active torsions:
REMARK  status: ('A' for Active; 'I' for Inactive)
REMARK    1  A    between atoms: C_31  and  C_22 
REMARK    2  A    between atoms: C_33  and  C_22 
REMARK    3  A    between atoms: C_34  and  C_24 
REMARK    4  A    between atoms: O_65  and  C_24 
REMARK    5  A    between atoms: C_32  and  O_63 
REMARK    6  A    between atoms: O_65  and  C_33 
REMARK    7  A    between atoms: O_67  and  C_34 
REMARK    8  A    between atoms: N_53  and  C_39 
REMARK    9  A    between atoms: C_40  and  O_56 
REMARK   10  A    between atoms: C_41  and  O_57 
REMARK   11  A    between atoms: O_58  and  C_42 
REMARK   12  A    between atoms: O_59  and  C_43 
REMARK   13  A    between atoms: O_60  and  C_44 
REMARK   14  A    between atoms: C_45  and  O_67 
REMARK   15  A    between atoms: O_62  and  C_48 
ROOT
HETATM    1  C   UNK N   1      26.728  20.161   4.200  0.00  0.00     0.017 C 
HETATM    2  C   UNK N   1      21.183  20.311   1.680  0.00  0.00     0.052 C 
HETATM    3  C   UNK N   1      29.438  10.947   1.703  0.00  0.00     0.015 C 
HETATM    4  C   UNK N   1      28.836  17.257   3.442  0.00  0.00     0.015 C 
HETATM    5  C   UNK N   1      27.790  14.508   1.633  0.00  0.00     0.015 C 
HETATM    6  C   UNK N   1      18.934   9.597   0.051  0.00  0.00     0.054 C 
HETATM    7  C   UNK N   1      23.851   9.364  -1.373  0.00  0.00     0.089 C 
HETATM    8  C   UNK N   1      23.474  19.662   3.585  0.00  0.00    -0.003 C 
HETATM    9  C   UNK N   1      24.433  19.005   4.319  0.00  0.00    -0.020 C 
HETATM   10  C   UNK N   1      22.078  19.052   3.634  0.00  0.00     0.011 C 
HETATM   11  C   UNK N   1      25.767  10.133   2.871  0.00  0.00     0.029 C 
HETATM   12  C   UNK N   1      24.575   9.798   2.254  0.00  0.00     0.137 C 
HETATM   13  C   UNK N   1      25.932  18.888   3.947  0.00  0.00     0.033 C 
HETATM   14  C   UNK N   1      21.137  19.177   2.651  0.00  0.00    -0.011 C 
HETATM   15  C   UNK N   1      28.070  11.481   2.138  0.00  0.00     0.044 C 
HETATM   16  C   UNK N   1      27.474  16.630   3.708  0.00  0.00     0.040 C 
HETATM   17  C   UNK N   1      27.528  13.954   3.035  0.00  0.00     0.041 C 
HETATM   18  C   UNK N   1      19.780  10.771   0.418  0.00  0.00     0.002 C 
HETATM   19  C   UNK N   1      27.186  10.144   2.263  0.00  0.00     0.151 C 
HETATM   20  C   UNK N   1      21.500  13.038   0.702  0.00  0.00     0.101 C 
HETATM   21  C   UNK N   1      20.067  13.151   1.197  0.00  0.00     0.117 C 
HETATM   22  C   UNK N   1      22.005  11.693   0.353  0.00  0.00     0.039 C 
HETATM   23  C   UNK N   1      20.828  15.380   2.115  0.00  0.00     0.088 C 
HETATM   24  C   UNK N   1      22.065  14.577   2.523  0.00  0.00     0.070 C 
HETATM   25  C   UNK N   1      26.562  17.566   4.602  0.00  0.00     0.131 C 
HETATM   26  C   UNK N   1      27.631  15.089   4.169  0.00  0.00     0.130 C 
HETATM   27  C   UNK N   1      19.200  12.018   0.642  0.00  0.00     0.063 C 
HETATM   28  C   UNK N   1      19.830  14.697   1.424  0.00  0.00     0.083 C 
HETATM   29  C   UNK N   1      22.293  13.401   1.912  0.00  0.00     0.076 C 
HETATM   30  C   UNK N   1      28.289  12.612   3.283  0.00  0.00     0.144 C 
HETATM   31  C   UNK N   1      21.292  10.625   0.381  0.00  0.00     0.092 C 
HETATM   32  C   UNK N   1      23.360  11.332   0.017  0.00  0.00     0.221 C 
HETATM   33  C   UNK N   1      20.291  17.946   2.289  0.00  0.00     0.146 C 
HETATM   34  C   UNK N   1      23.461   9.859   0.006  0.00  0.00     0.236 C 
HETATM   35  N   UNK N   1      20.868  16.800   2.449  0.00  0.00    -0.333 N 
ATOM     36  HN  UNK N   1      21.678  16.949   3.049  1.00  0.00     0.168 HD
HETATM   37  O   UNK N   1      24.274  12.114  -0.198  0.00  0.00    -0.286 OA
HETATM   38  O   UNK N   1      24.465   9.464   0.926  0.00  0.00    -0.319 OA
HETATM   39  O   UNK N   1      22.100   9.507   0.260  0.00  0.00    -0.305 OA
ENDROOT
BRANCH  30  40
HETATM   40  O   UNK N   1      29.635  12.899   3.476  0.00  0.00    -0.313 OA
BRANCH  40  41
HETATM   41  C   UNK N   1      30.437  12.602   4.546  0.00  0.00     0.283 C 
HETATM   42  O   UNK N   1      30.373  11.538   5.135  0.00  0.00    -0.263 OA
BRANCH  41  43
HETATM   43  C   UNK N   1      31.526  13.559   4.881  0.00  0.00     0.289 C 
BRANCH  43  44
HETATM   44  O   UNK N   1      31.501  14.570   3.942  0.00  0.00    -0.311 OA
BRANCH  44  45
HETATM   45  C   UNK N   1      32.527  15.459   3.848  0.00  0.00     0.263 C 
HETATM   46  O   UNK N   1      33.632  15.072   3.508  0.00  0.00    -0.265 OA
BRANCH  45  47
HETATM   47  C   UNK N   1      32.306  16.913   4.165  0.00  0.00     0.146 C 
BRANCH  47  48
HETATM   48  C   UNK N   1      32.302  17.096   5.649  0.00  0.00    -0.052 C 
HETATM   49  C   UNK N   1      31.025  16.882   6.444  0.00  0.00     0.064 C 
HETATM   50  C   UNK N   1      31.045  17.472   7.821  0.00  0.00    -0.005 C 
HETATM   51  C   UNK N   1      32.176  17.939   8.355  0.00  0.00     0.086 C 
HETATM   52  N   UNK N   1      33.391  17.908   7.618  0.00  0.00    -0.371 N 
HETATM   53  C   UNK N   1      34.606  18.336   8.248  0.00  0.00     0.154 C 
HETATM   54  C   UNK N   1      33.399  17.575   6.239  0.00  0.00     0.093 C 
ENDBRANCH  47  48
ENDBRANCH  45  47
ENDBRANCH  44  45
ENDBRANCH  43  44
ENDBRANCH  41  43
ENDBRANCH  40  41
ENDBRANCH  30  40
BRANCH  19  55
HETATM   55  O   UNK N   1      27.108   9.580   0.960  0.00  0.00    -0.386 OA
HETATM   56  C   UNK N   1      27.582   8.256   0.966  0.00  0.00     0.202 C 
ENDBRANCH  19  55
BRANCH  26  57
HETATM   57  O   UNK N   1      26.689  14.771   5.152  0.00  0.00    -0.395 OA
HETATM   58  H   UNK N   1      26.136  14.141   5.642  0.00  0.00     0.210 HD
ENDBRANCH  26  57
BRANCH  25  59
HETATM   59  O   UNK N   1      27.157  17.843   5.837  0.00  0.00    -0.394 OA
HETATM   60  H   UNK N   1      27.226  18.600   6.440  0.00  0.00     0.210 HD
ENDBRANCH  25  59
BRANCH  29  61
HETATM   61  O   UNK N   1      23.229  12.544   2.393  0.00  0.00    -0.362 OA
HETATM   62  H   UNK N   1      23.219  12.212   3.268  0.00  0.00     0.217 HD
ENDBRANCH  29  61
BRANCH  27  63
HETATM   63  O   UNK N   1      17.867  12.190   0.522  0.00  0.00    -0.363 OA
HETATM   64  H   UNK N   1      17.290  11.453   0.532  0.00  0.00     0.217 HD
ENDBRANCH  27  63
BRANCH  33  65
HETATM   65  O   UNK N   1      19.182  18.064   1.529  0.00  0.00    -0.346 OA
HETATM   66  H   UNK N   1      19.023  17.567   0.751  0.00  0.00     0.219 HD
ENDBRANCH  33  65
BRANCH  28  67
HETATM   67  O   UNK N   1      18.730  15.318   0.961  0.00  0.00    -0.362 OA
HETATM   68  H   UNK N   1      18.560  16.222   1.144  0.00  0.00     0.217 HD
ENDBRANCH  28  67
BRANCH  24  69
HETATM   69  N   UNK N   1      23.090  15.074   3.413  0.00  0.00    -0.275 NA
HETATM   70  C   UNK N   1      23.919  14.122   4.020  0.00  0.00     0.122 C 
HETATM   71  C   UNK N   1      23.015  13.341   5.003  0.00  0.00     0.182 C 
HETATM   72  O   UNK N   1      22.443  14.194   5.962  0.00  0.00    -0.389 OA
HETATM   73  C   UNK N   1      21.756  15.241   5.320  0.00  0.00     0.182 C 
HETATM   74  C   UNK N   1      22.718  16.029   4.397  0.00  0.00     0.122 C 
ENDBRANCH  24  69
TORSDOF 15
ENDMDL
MODEL 2
REMARK VINA RESULT:      -8.4      1.351      1.948
REMARK  15 active torsions:
REMARK  status: ('A' for Active; 'I' for Inactive)
REMARK    1  A    between atoms: C_31  and  C_22 
REMARK    2  A    between atoms: C_33  and  C_22 
REMARK    3  A    between atoms: C_34  and  C_24 
REMARK    4  A    between atoms: O_65  and  C_24 
REMARK    5  A    between atoms: C_32  and  O_63 
REMARK    6  A    between atoms: O_65  and  C_33 
REMARK    7  A    between atoms: O_67  and  C_34 
REMARK    8  A    between atoms: N_53  and  C_39 
REMARK    9  A    between atoms: C_40  and  O_56 
REMARK   10  A    between atoms: C_41  and  O_57 
REMARK   11  A    between atoms: O_58  and  C_42 
REMARK   12  A    between atoms: O_59  and  C_43 
REMARK   13  A    between atoms: O_60  and  C_44 
REMARK   14  A    between atoms: C_45  and  O_67 
REMARK   15  A    between atoms: O_62  and  C_48 
ROOT
HETATM    1  C   UNK N   1      26.162  20.549   4.121  0.00  0.00     0.017 C 
HETATM    2  C   UNK N   1      20.684  20.273   1.468  0.00  0.00     0.052 C 
HETATM    3  C   UNK N   1      29.484  11.435   2.026  0.00  0.00     0.015 C 
HETATM    4  C   UNK N   1      28.460  17.754   3.519  0.00  0.00     0.015 C 
HETATM    5  C   UNK N   1      27.628  14.885   1.787  0.00  0.00     0.015 C 
HETATM    6  C   UNK N   1      19.126   9.391   0.179  0.00  0.00     0.054 C 
HETATM    7  C   UNK N   1      24.083   9.408  -1.121  0.00  0.00     0.089 C 
HETATM    8  C   UNK N   1      22.961  19.831   3.449  0.00  0.00    -0.003 C 
HETATM    9  C   UNK N   1      23.938  19.260   4.229  0.00  0.00    -0.020 C 
HETATM   10  C   UNK N   1      21.604  19.140   3.487  0.00  0.00     0.011 C 
HETATM   11  C   UNK N   1      25.840  10.441   3.137  0.00  0.00     0.029 C 
HETATM   12  C   UNK N   1      24.686  10.013   2.505  0.00  0.00     0.137 C 
HETATM   13  C   UNK N   1      25.451  19.222   3.896  0.00  0.00     0.033 C 
HETATM   14  C   UNK N   1      20.682  19.173   2.478  0.00  0.00    -0.011 C 
HETATM   15  C   UNK N   1      28.075  11.900   2.409  0.00  0.00     0.044 C 
HETATM   16  C   UNK N   1      27.131  17.055   3.776  0.00  0.00     0.040 C 
HETATM   17  C   UNK N   1      27.364  14.366   3.202  0.00  0.00     0.041 C 
HETATM   18  C   UNK N   1      19.890  10.627   0.523  0.00  0.00     0.002 C 
HETATM   19  C   UNK N   1      27.271  10.517   2.562  0.00  0.00     0.151 C 
HETATM   20  C   UNK N   1      21.463  13.003   0.763  0.00  0.00     0.101 C 
HETATM   21  C   UNK N   1      20.013  13.045   1.220  0.00  0.00     0.117 C 
HETATM   22  C   UNK N   1      22.056  11.679   0.476  0.00  0.00     0.039 C 
HETATM   23  C   UNK N   1      20.616  15.347   2.074  0.00  0.00     0.088 C 
HETATM   24  C   UNK N   1      21.888  14.637   2.540  0.00  0.00     0.070 C 
HETATM   25  C   UNK N   1      26.142  17.964   4.614  0.00  0.00     0.131 C 
HETATM   26  C   UNK N   1      27.369  15.544   4.296  0.00  0.00     0.130 C 
HETATM   27  C   UNK N   1      19.231  11.843   0.687  0.00  0.00     0.063 C 
HETATM   28  C   UNK N   1      19.678  14.581   1.385  0.00  0.00     0.083 C 
HETATM   29  C   UNK N   1      22.202  13.456   1.978  0.00  0.00     0.076 C 
HETATM   30  C   UNK N   1      28.197  13.082   3.517  0.00  0.00     0.144 C 
HETATM   31  C   UNK N   1      21.408  10.572   0.526  0.00  0.00     0.092 C 
HETATM   32  C   UNK N   1      23.439  11.390   0.185  0.00  0.00     0.221 C 
HETATM   33  C   UNK N   1      19.921  17.880   2.142  0.00  0.00     0.146 C 
HETATM   34  C   UNK N   1      23.628   9.927   0.230  0.00  0.00     0.236 C 
HETATM   35  N   UNK N   1      20.561  16.778   2.357  0.00  0.00    -0.333 N 
ATOM     36  HN  UNK N   1      21.346  16.997   2.970  1.00  0.00     0.168 HD
HETATM   37  O   UNK N   1      24.310  12.219  -0.037  0.00  0.00    -0.286 OA
HETATM   38  O   UNK N   1      24.630   9.626   1.187  0.00  0.00    -0.319 OA
HETATM   39  O   UNK N   1      22.285   9.502   0.465  0.00  0.00    -0.305 OA
ENDROOT
BRANCH  30  40
HETATM   40  O   UNK N   1      29.518  13.457   3.730  0.00  0.00    -0.313 OA
BRANCH  40  41
HETATM   41  C   UNK N   1      30.252  13.416   4.886  0.00  0.00     0.283 C 
HETATM   42  O   UNK N   1      30.929  12.453   5.197  0.00  0.00    -0.263 OA
BRANCH  41  43
HETATM   43  C   UNK N   1      30.339  14.662   5.695  0.00  0.00     0.289 C 
BRANCH  43  44
HETATM   44  O   UNK N   1      30.743  15.680   4.855  0.00  0.00    -0.311 OA
BRANCH  44  45
HETATM   45  C   UNK N   1      31.668  16.592   5.261  0.00  0.00     0.263 C 
HETATM   46  O   UNK N   1      31.486  17.221   6.289  0.00  0.00    -0.265 OA
BRANCH  45  47
HETATM   47  C   UNK N   1      32.912  16.828   4.447  0.00  0.00     0.146 C 
BRANCH  47  48
HETATM   48  C   UNK N   1      33.832  15.660   4.608  0.00  0.00    -0.052 C 
HETATM   49  C   UNK N   1      34.712  15.543   5.841  0.00  0.00     0.064 C 
HETATM   50  C   UNK N   1      35.849  14.577   5.703  0.00  0.00    -0.005 C 
HETATM   51  C   UNK N   1      35.923  13.744   4.662  0.00  0.00     0.086 C 
HETATM   52  N   UNK N   1      34.932  13.767   3.644  0.00  0.00    -0.371 N 
HETATM   53  C   UNK N   1      34.991  12.803   2.584  0.00  0.00     0.154 C 
HETATM   54  C   UNK N   1      33.961  14.800   3.596  0.00  0.00     0.093 C 
ENDBRANCH  47  48
ENDBRANCH  45  47
ENDBRANCH  44  45
ENDBRANCH  43  44
ENDBRANCH  41  43
ENDBRANCH  40  41
ENDBRANCH  30  40
BRANCH  19  55
HETATM   55  O   UNK N   1      27.260   9.904   1.279  0.00  0.00    -0.386 OA
HETATM   56  C   UNK N   1      27.871   8.639   1.331  0.00  0.00     0.202 C 
ENDBRANCH  19  55
BRANCH  26  57
HETATM   57  O   UNK N   1      26.422  15.204   5.268  0.00  0.00    -0.395 OA
HETATM   58  H   UNK N   1      26.172  14.906   6.157  0.00  0.00     0.210 HD
ENDBRANCH  26  57
BRANCH  25  59
HETATM   59  O   UNK N   1      26.687  18.320   5.851  0.00  0.00    -0.394 OA
HETATM   60  H   UNK N   1      27.571  18.465   6.224  0.00  0.00     0.210 HD
ENDBRANCH  25  59
BRANCH  29  61
HETATM   61  O   UNK N   1      23.174  12.675   2.511  0.00  0.00    -0.362 OA
HETATM   62  H   UNK N   1      23.797  12.986   3.137  0.00  0.00     0.217 HD
ENDBRANCH  29  61
BRANCH  27  63
HETATM   63  O   UNK N   1      17.893  11.929   0.530  0.00  0.00    -0.363 OA
HETATM   64  H   UNK N   1      17.522  12.587  -0.024  0.00  0.00     0.217 HD
ENDBRANCH  27  63
BRANCH  33  65
HETATM   65  O   UNK N   1      18.827  17.904   1.352  0.00  0.00    -0.346 OA
HETATM   66  H   UNK N   1      18.516  18.668   0.909  0.00  0.00     0.219 HD
ENDBRANCH  33  65
BRANCH  28  67
HETATM   67  O   UNK N   1      18.556  15.117   0.875  0.00  0.00    -0.362 OA
HETATM   68  H   UNK N   1      18.555  15.575   0.057  0.00  0.00     0.217 HD
ENDBRANCH  28  67
BRANCH  24  69
HETATM   69  N   UNK N   1      22.858  15.225   3.435  0.00  0.00    -0.275 NA
HETATM   70  C   UNK N   1      23.712  14.346   4.112  0.00  0.00     0.122 C 
HETATM   71  C   UNK N   1      22.816  13.568   5.105  0.00  0.00     0.182 C 
HETATM   72  O   UNK N   1      22.172  14.436   6.003  0.00  0.00    -0.389 OA
HETATM   73  C   UNK N   1      21.456  15.416   5.291  0.00  0.00     0.182 C 
HETATM   74  C   UNK N   1      22.408  16.206   4.359  0.00  0.00     0.122 C 
ENDBRANCH  24  69
TORSDOF 15
ENDMDL
MODEL 3
REMARK VINA RESULT:      -8.2      1.786      2.044
REMARK  15 active torsions:
REMARK  status: ('A' for Active; 'I' for Inactive)
REMARK    1  A    between atoms: C_31  and  C_22 
REMARK    2  A    between atoms: C_33  and  C_22 
REMARK    3  A    between atoms: C_34  and  C_24 
REMARK    4  A    between atoms: O_65  and  C_24 
REMARK    5  A    between atoms: C_32  and  O_63 
REMARK    6  A    between atoms: O_65  and  C_33 
REMARK    7  A    between atoms: O_67  and  C_34 
REMARK    8  A    between atoms: N_53  and  C_39 
REMARK    9  A    between atoms: C_40  and  O_56 
REMARK   10  A    between atoms: C_41  and  O_57 
REMARK   11  A    between atoms: O_58  and  C_42 
REMARK   12  A    between atoms: O_59  and  C_43 
REMARK   13  A    between atoms: O_60  and  C_44 
REMARK   14  A    between atoms: C_45  and  O_67 
REMARK   15  A    between atoms: O_62  and  C_48 
ROOT
HETATM    1  C   UNK N   1      26.822  19.773   3.672  0.00  0.00     0.017 C 
HETATM    2  C   UNK N   1      20.805  19.337   2.819  0.00  0.00     0.052 C 
HETATM    3  C   UNK N   1      29.394  10.295   2.241  0.00  0.00     0.015 C 
HETATM    4  C   UNK N   1      28.844  16.812   2.897  0.00  0.00     0.015 C 
HETATM    5  C   UNK N   1      27.543  13.747   1.986  0.00  0.00     0.015 C 
HETATM    6  C   UNK N   1      18.957   8.475   3.865  0.00  0.00     0.054 C 
HETATM    7  C   UNK N   1      23.307   8.051   1.191  0.00  0.00     0.089 C 
HETATM    8  C   UNK N   1      23.566  19.109   4.093  0.00  0.00    -0.003 C 
HETATM    9  C   UNK N   1      24.732  18.624   4.637  0.00  0.00    -0.020 C 
HETATM   10  C   UNK N   1      22.283  18.498   4.639  0.00  0.00     0.011 C 
HETATM   11  C   UNK N   1      26.243   9.664   4.516  0.00  0.00     0.029 C 
HETATM   12  C   UNK N   1      24.955   9.195   4.329  0.00  0.00     0.137 C 
HETATM   13  C   UNK N   1      26.078  18.462   3.888  0.00  0.00     0.033 C 
HETATM   14  C   UNK N   1      21.104  18.413   3.953  0.00  0.00    -0.011 C 
HETATM   15  C   UNK N   1      28.160  10.881   2.936  0.00  0.00     0.044 C 
HETATM   16  C   UNK N   1      27.653  16.227   3.644  0.00  0.00     0.040 C 
HETATM   17  C   UNK N   1      27.710  13.472   3.481  0.00  0.00     0.041 C 
HETATM   18  C   UNK N   1      19.786   9.712   3.761  0.00  0.00     0.002 C 
HETATM   19  C   UNK N   1      27.440   9.580   3.545  0.00  0.00     0.151 C 
HETATM   20  C   UNK N   1      21.355  12.019   3.134  0.00  0.00     0.101 C 
HETATM   21  C   UNK N   1      20.105  12.202   3.981  0.00  0.00     0.117 C 
HETATM   22  C   UNK N   1      21.839  10.640   2.909  0.00  0.00     0.039 C 
HETATM   23  C   UNK N   1      20.929  14.580   4.227  0.00  0.00     0.088 C 
HETATM   24  C   UNK N   1      22.283  13.893   4.412  0.00  0.00     0.070 C 
HETATM   25  C   UNK N   1      26.954  17.303   4.571  0.00  0.00     0.131 C 
HETATM   26  C   UNK N   1      28.037  14.808   4.315  0.00  0.00     0.130 C 
HETATM   27  C   UNK N   1      19.202  10.968   3.906  0.00  0.00     0.063 C 
HETATM   28  C   UNK N   1      19.831  13.759   3.979  0.00  0.00     0.083 C 
HETATM   29  C   UNK N   1      22.419  12.624   3.987  0.00  0.00     0.076 C 
HETATM   30  C   UNK N   1      28.602  12.217   3.748  0.00  0.00     0.144 C 
HETATM   31  C   UNK N   1      21.237   9.587   3.330  0.00  0.00     0.092 C 
HETATM   32  C   UNK N   1      23.074  10.244   2.279  0.00  0.00     0.221 C 
HETATM   33  C   UNK N   1      20.280  17.121   4.074  0.00  0.00     0.146 C 
HETATM   34  C   UNK N   1      23.271   8.798   2.510  0.00  0.00     0.236 C 
HETATM   35  N   UNK N   1      20.957  16.038   4.271  0.00  0.00    -0.333 N 
ATOM     36  HN  UNK N   1      21.888  16.315   4.583  1.00  0.00     0.168 HD
HETATM   37  O   UNK N   1      23.839  10.984   1.679  0.00  0.00    -0.286 OA
HETATM   38  O   UNK N   1      24.512   8.607   3.168  0.00  0.00    -0.319 OA
HETATM   39  O   UNK N   1      22.059   8.480   3.193  0.00  0.00    -0.305 OA
ENDROOT
BRANCH  30  40
HETATM   40  O   UNK N   1      29.926  12.559   3.501  0.00  0.00    -0.313 OA
BRANCH  40  41
HETATM   41  C   UNK N   1      30.974  12.647   4.379  0.00  0.00     0.283 C 
HETATM   42  O   UNK N   1      31.036  11.974   5.392  0.00  0.00    -0.263 OA
BRANCH  41  43
HETATM   43  C   UNK N   1      32.141  13.479   3.982  0.00  0.00     0.289 C 
BRANCH  43  44
HETATM   44  O   UNK N   1      31.659  14.685   3.515  0.00  0.00    -0.311 OA
BRANCH  44  45
HETATM   45  C   UNK N   1      32.511  15.673   3.130  0.00  0.00     0.263 C 
HETATM   46  O   UNK N   1      33.515  15.393   2.497  0.00  0.00    -0.265 OA
BRANCH  45  47
HETATM   47  C   UNK N   1      32.222  17.107   3.484  0.00  0.00     0.146 C 
BRANCH  47  48
HETATM   48  C   UNK N   1      32.372  17.287   4.961  0.00  0.00    -0.052 C 
HETATM   49  C   UNK N   1      33.751  17.447   5.577  0.00  0.00     0.064 C 
HETATM   50  C   UNK N   1      33.800  17.218   7.057  0.00  0.00    -0.005 C 
HETATM   51  C   UNK N   1      32.680  17.106   7.775  0.00  0.00     0.086 C 
HETATM   52  N   UNK N   1      31.408  17.181   7.148  0.00  0.00    -0.371 N 
HETATM   53  C   UNK N   1      30.223  17.144   7.955  0.00  0.00     0.154 C 
HETATM   54  C   UNK N   1      31.290  17.171   5.734  0.00  0.00     0.093 C 
ENDBRANCH  47  48
ENDBRANCH  45  47
ENDBRANCH  44  45
ENDBRANCH  43  44
ENDBRANCH  41  43
ENDBRANCH  40  41
ENDBRANCH  30  40
BRANCH  19  55
HETATM   55  O   UNK N   1      27.051   8.772   2.441  0.00  0.00    -0.386 OA
HETATM   56  C   UNK N   1      27.595   7.481   2.559  0.00  0.00     0.202 C 
ENDBRANCH  19  55
BRANCH  26  57
HETATM   57  O   UNK N   1      27.420  14.672   5.564  0.00  0.00    -0.395 OA
HETATM   58  H   UNK N   1      26.906  14.174   6.218  0.00  0.00     0.210 HD
ENDBRANCH  26  57
BRANCH  25  59
HETATM   59  O   UNK N   1      27.840  17.825   5.518  0.00  0.00    -0.394 OA
HETATM   60  H   UNK N   1      27.976  18.670   5.975  0.00  0.00     0.210 HD
ENDBRANCH  25  59
BRANCH  29  61
HETATM   61  O   UNK N   1      23.507  11.893   4.335  0.00  0.00    -0.362 OA
HETATM   62  H   UNK N   1      24.214  12.236   4.844  0.00  0.00     0.217 HD
ENDBRANCH  29  61
BRANCH  27  63
HETATM   63  O   UNK N   1      17.878  11.092   4.134  0.00  0.00    -0.363 OA
HETATM   64  H   UNK N   1      17.317  10.343   4.092  0.00  0.00     0.217 HD
ENDBRANCH  27  63
BRANCH  33  65
HETATM   65  O   UNK N   1      19.001  17.070   3.645  0.00  0.00    -0.346 OA
HETATM   66  H   UNK N   1      18.596  16.303   3.292  0.00  0.00     0.219 HD
ENDBRANCH  33  65
BRANCH  28  67
HETATM   67  O   UNK N   1      18.606  14.259   3.737  0.00  0.00    -0.362 OA
HETATM   68  H   UNK N   1      18.486  15.102   3.345  0.00  0.00     0.217 HD
ENDBRANCH  28  67
BRANCH  24  69
HETATM   69  N   UNK N   1      23.473  14.570   4.874  0.00  0.00    -0.275 NA
HETATM   70  C   UNK N   1      24.499  13.768   5.390  0.00  0.00     0.122 C 
HETATM   71  C   UNK N   1      23.952  13.181   6.712  0.00  0.00     0.182 C 
HETATM   72  O   UNK N   1      23.602  14.196   7.619  0.00  0.00    -0.389 OA
HETATM   73  C   UNK N   1      22.697  15.087   7.013  0.00  0.00     0.182 C 
HETATM   74  C   UNK N   1      23.315  15.693   5.730  0.00  0.00     0.122 C 
ENDBRANCH  24  69
TORSDOF 15
ENDMDL
MODEL 4
REMARK VINA RESULT:      -7.7     10.194     17.932
REMARK  15 active torsions:
REMARK  status: ('A' for Active; 'I' for Inactive)
REMARK    1  A    between atoms: C_31  and  C_22 
REMARK    2  A    between atoms: C_33  and  C_22 
REMARK    3  A    between atoms: C_34  and  C_24 
REMARK    4  A    between atoms: O_65  and  C_24 
REMARK    5  A    between atoms: C_32  and  O_63 
REMARK    6  A    between atoms: O_65  and  C_33 
REMARK    7  A    between atoms: O_67  and  C_34 
REMARK    8  A    between atoms: N_53  and  C_39 
REMARK    9  A    between atoms: C_40  and  O_56 
REMARK   10  A    between atoms: C_41  and  O_57 
REMARK   11  A    between atoms: O_58  and  C_42 
REMARK   12  A    between atoms: O_59  and  C_43 
REMARK   13  A    between atoms: O_60  and  C_44 
REMARK   14  A    between atoms: C_45  and  O_67 
REMARK   15  A    between atoms: O_62  and  C_48 
ROOT
HETATM    1  C   UNK N   1      43.735   9.621   7.871  0.00  0.00     0.017 C 
HETATM    2  C   UNK N   1      44.640   7.200  13.388  0.00  0.00     0.052 C 
HETATM    3  C   UNK N   1      35.637  15.042   9.743  0.00  0.00     0.015 C 
HETATM    4  C   UNK N   1      41.168  12.225   7.583  0.00  0.00     0.015 C 
HETATM    5  C   UNK N   1      39.071  13.188  10.151  0.00  0.00     0.015 C 
HETATM    6  C   UNK N   1      34.877   8.731  18.373  0.00  0.00     0.054 C 
HETATM    7  C   UNK N   1      35.046  13.296  16.050  0.00  0.00     0.089 C 
HETATM    8  C   UNK N   1      43.452   7.749  10.633  0.00  0.00    -0.003 C 
HETATM    9  C   UNK N   1      42.605   8.096   9.607  0.00  0.00    -0.020 C 
HETATM   10  C   UNK N   1      42.862   6.820  11.686  0.00  0.00     0.011 C 
HETATM   11  C   UNK N   1      34.535  11.760  11.617  0.00  0.00     0.029 C 
HETATM   12  C   UNK N   1      34.400  11.360  12.935  0.00  0.00     0.137 C 
HETATM   13  C   UNK N   1      42.596   9.456   8.866  0.00  0.00     0.033 C 
HETATM   14  C   UNK N   1      43.273   6.753  12.988  0.00  0.00    -0.011 C 
HETATM   15  C   UNK N   1      36.028  13.654  10.261  0.00  0.00     0.044 C 
HETATM   16  C   UNK N   1      40.497  11.180   8.464  0.00  0.00     0.040 C 
HETATM   17  C   UNK N   1      38.134  12.187   9.473  0.00  0.00     0.041 C 
HETATM   18  C   UNK N   1      35.889   8.877  17.285  0.00  0.00     0.002 C 
HETATM   19  C   UNK N   1      34.717  13.191  11.066  0.00  0.00     0.151 C 
HETATM   20  C   UNK N   1      37.967   9.500  15.421  0.00  0.00     0.101 C 
HETATM   21  C   UNK N   1      37.937   8.108  16.033  0.00  0.00     0.117 C 
HETATM   22  C   UNK N   1      36.779  10.361  15.609  0.00  0.00     0.039 C 
HETATM   23  C   UNK N   1      39.798   7.624  14.391  0.00  0.00     0.088 C 
HETATM   24  C   UNK N   1      38.905   8.416  13.434  0.00  0.00     0.070 C 
HETATM   25  C   UNK N   1      41.136   9.746   8.264  0.00  0.00     0.131 C 
HETATM   26  C   UNK N   1      38.889  11.295   8.368  0.00  0.00     0.130 C 
HETATM   27  C   UNK N   1      37.019   8.062  17.257  0.00  0.00     0.063 C 
HETATM   28  C   UNK N   1      39.351   7.483  15.703  0.00  0.00     0.083 C 
HETATM   29  C   UNK N   1      37.957   9.214  13.957  0.00  0.00     0.076 C 
HETATM   30  C   UNK N   1      36.774  12.842   9.069  0.00  0.00     0.144 C 
HETATM   31  C   UNK N   1      35.753  10.032  16.308  0.00  0.00     0.092 C 
HETATM   32  C   UNK N   1      36.526  11.640  14.994  0.00  0.00     0.221 C 
HETATM   33  C   UNK N   1      42.204   6.614  14.084  0.00  0.00     0.146 C 
HETATM   34  C   UNK N   1      35.120  12.010  15.250  0.00  0.00     0.236 C 
HETATM   35  N   UNK N   1      41.059   7.156  13.825  0.00  0.00    -0.333 N 
ATOM     36  HN  UNK N   1      41.023   7.324  12.821  1.00  0.00     0.168 HD
HETATM   37  O   UNK N   1      37.333  12.294  14.349  0.00  0.00    -0.286 OA
HETATM   38  O   UNK N   1      34.469  12.216  14.007  0.00  0.00    -0.319 OA
HETATM   39  O   UNK N   1      34.716  10.920  16.080  0.00  0.00    -0.305 OA
ENDROOT
BRANCH  30  40
HETATM   40  O   UNK N   1      36.986  13.641   7.952  0.00  0.00    -0.313 OA
BRANCH  40  41
HETATM   41  C   UNK N   1      36.647  13.407   6.646  0.00  0.00     0.283 C 
HETATM   42  O   UNK N   1      36.239  12.326   6.260  0.00  0.00    -0.263 OA
BRANCH  41  43
HETATM   43  C   UNK N   1      36.628  14.569   5.717  0.00  0.00     0.289 C 
BRANCH  43  44
HETATM   44  O   UNK N   1      35.605  15.407   6.113  0.00  0.00    -0.311 OA
BRANCH  44  45
HETATM   45  C   UNK N   1      34.443  15.469   5.409  0.00  0.00     0.263 C 
HETATM   46  O   UNK N   1      33.876  14.439   5.087  0.00  0.00    -0.265 OA
BRANCH  45  47
HETATM   47  C   UNK N   1      33.857  16.800   5.023  0.00  0.00     0.146 C 
BRANCH  47  48
HETATM   48  C   UNK N   1      32.953  17.273   6.117  0.00  0.00    -0.052 C 
HETATM   49  C   UNK N   1      33.532  17.912   7.366  0.00  0.00     0.064 C 
HETATM   50  C   UNK N   1      32.588  17.971   8.528  0.00  0.00    -0.005 C 
HETATM   51  C   UNK N   1      31.293  17.685   8.379  0.00  0.00     0.086 C 
HETATM   52  N   UNK N   1      30.779  17.296   7.114  0.00  0.00    -0.371 N 
HETATM   53  C   UNK N   1      29.369  17.079   6.964  0.00  0.00     0.154 C 
HETATM   54  C   UNK N   1      31.648  17.003   6.031  0.00  0.00     0.093 C 
ENDBRANCH  47  48
ENDBRANCH  45  47
ENDBRANCH  44  45
ENDBRANCH  43  44
ENDBRANCH  41  43
ENDBRANCH  40  41
ENDBRANCH  30  40
BRANCH  19  55
HETATM   55  O   UNK N   1      34.557  14.099  12.149  0.00  0.00    -0.386 OA
HETATM   56  C   UNK N   1      35.794  14.665  12.505  0.00  0.00     0.202 C 
ENDBRANCH  19  55
BRANCH  26  57
HETATM   57  O   UNK N   1      38.303  10.026   8.397  0.00  0.00    -0.395 OA
HETATM   58  H   UNK N   1      37.711   9.343   8.040  0.00  0.00     0.210 HD
ENDBRANCH  26  57
BRANCH  25  59
HETATM   59  O   UNK N   1      41.039   9.315   6.937  0.00  0.00    -0.394 OA
HETATM   60  H   UNK N   1      41.643   9.143   6.198  0.00  0.00     0.210 HD
ENDBRANCH  25  59
BRANCH  29  61
HETATM   61  O   UNK N   1      36.993   9.749  13.167  0.00  0.00    -0.362 OA
HETATM   62  H   UNK N   1      36.975  10.652  12.920  0.00  0.00     0.217 HD
ENDBRANCH  29  61
BRANCH  27  63
HETATM   63  O   UNK N   1      37.225   7.135  18.215  0.00  0.00    -0.363 OA
HETATM   64  H   UNK N   1      37.877   7.271  18.875  0.00  0.00     0.217 HD
ENDBRANCH  27  63
BRANCH  33  65
HETATM   65  O   UNK N   1      42.544   6.281  15.347  0.00  0.00    -0.346 OA
HETATM   66  H   UNK N   1      42.054   6.530  16.106  0.00  0.00     0.219 HD
ENDBRANCH  33  65
BRANCH  28  67
HETATM   67  O   UNK N   1      40.085   6.863  16.644  0.00  0.00    -0.362 OA
HETATM   68  H   UNK N   1      39.924   6.990  17.559  0.00  0.00     0.217 HD
ENDBRANCH  28  67
BRANCH  24  69
HETATM   69  N   UNK N   1      39.116   8.483  12.005  0.00  0.00    -0.275 NA
HETATM   70  C   UNK N   1      38.030   8.894  11.223  0.00  0.00     0.122 C 
HETATM   71  C   UNK N   1      36.984   7.759  11.323  0.00  0.00     0.182 C 
HETATM   72  O   UNK N   1      37.504   6.539  10.860  0.00  0.00    -0.389 OA
HETATM   73  C   UNK N   1      38.692   6.234  11.549  0.00  0.00     0.182 C 
HETATM   74  C   UNK N   1      39.728   7.371  11.366  0.00  0.00     0.122 C 
ENDBRANCH  24  69
TORSDOF 15
ENDMDL
MODEL 5
REMARK VINA RESULT:      -7.6      1.927      2.781
REMARK  15 active torsions:
REMARK  status: ('A' for Active; 'I' for Inactive)
REMARK    1  A    between atoms: C_31  and  C_22 
REMARK    2  A    between atoms: C_33  and  C_22 
REMARK    3  A    between atoms: C_34  and  C_24 
REMARK    4  A    between atoms: O_65  and  C_24 
REMARK    5  A    between atoms: C_32  and  O_63 
REMARK    6  A    between atoms: O_65  and  C_33 
REMARK    7  A    between atoms: O_67  and  C_34 
REMARK    8  A    between atoms: N_53  and  C_39 
REMARK    9  A    between atoms: C_40  and  O_56 
REMARK   10  A    between atoms: C_41  and  O_57 
REMARK   11  A    between atoms: O_58  and  C_42 
REMARK   12  A    between atoms: O_59  and  C_43 
REMARK   13  A    between atoms: O_60  and  C_44 
REMARK   14  A    between atoms: C_45  and  O_67 
REMARK   15  A    between atoms: O_62  and  C_48 
ROOT
HETATM    1  C   UNK N   1      24.994  20.458   3.851  0.00  0.00     0.017 C 
HETATM    2  C   UNK N   1      20.158  18.239   0.884  0.00  0.00     0.052 C 
HETATM    3  C   UNK N   1      30.917  12.501   3.562  0.00  0.00     0.015 C 
HETATM    4  C   UNK N   1      28.026  18.394   3.897  0.00  0.00     0.015 C 
HETATM    5  C   UNK N   1      28.226  15.195   2.613  0.00  0.00     0.015 C 
HETATM    6  C   UNK N   1      21.815   7.304   1.320  0.00  0.00     0.054 C 
HETATM    7  C   UNK N   1      26.694   8.577   0.407  0.00  0.00     0.089 C 
HETATM    8  C   UNK N   1      22.216  18.757   3.073  0.00  0.00    -0.003 C 
HETATM    9  C   UNK N   1      23.214  18.608   4.008  0.00  0.00    -0.020 C 
HETATM   10  C   UNK N   1      21.107  17.714   3.126  0.00  0.00     0.011 C 
HETATM   11  C   UNK N   1      27.581  10.657   4.550  0.00  0.00     0.029 C 
HETATM   12  C   UNK N   1      26.673   9.829   3.915  0.00  0.00     0.137 C 
HETATM   13  C   UNK N   1      24.706  18.965   3.799  0.00  0.00     0.033 C 
HETATM   14  C   UNK N   1      20.338  17.337   2.060  0.00  0.00    -0.011 C 
HETATM   15  C   UNK N   1      29.399  12.586   3.756  0.00  0.00     0.044 C 
HETATM   16  C   UNK N   1      26.920  17.383   4.168  0.00  0.00     0.040 C 
HETATM   17  C   UNK N   1      27.949  14.824   4.071  0.00  0.00     0.041 C 
HETATM   18  C   UNK N   1      22.163   8.743   1.508  0.00  0.00     0.002 C 
HETATM   19  C   UNK N   1      28.994  11.065   4.078  0.00  0.00     0.151 C 
HETATM   20  C   UNK N   1      22.983  11.483   1.464  0.00  0.00     0.101 C 
HETATM   21  C   UNK N   1      21.533  11.166   1.799  0.00  0.00     0.117 C 
HETATM   22  C   UNK N   1      23.946  10.362   1.446  0.00  0.00     0.039 C 
HETATM   23  C   UNK N   1      21.374  13.640   2.298  0.00  0.00     0.088 C 
HETATM   24  C   UNK N   1      22.728  13.400   2.969  0.00  0.00     0.070 C 
HETATM   25  C   UNK N   1      25.627  18.074   4.766  0.00  0.00     0.131 C 
HETATM   26  C   UNK N   1      27.500  16.094   4.950  0.00  0.00     0.130 C 
HETATM   27  C   UNK N   1      21.180   9.726   1.417  0.00  0.00     0.063 C 
HETATM   28  C   UNK N   1      20.772  12.546   1.679  0.00  0.00     0.083 C 
HETATM   29  C   UNK N   1      23.419  12.295   2.637  0.00  0.00     0.076 C 
HETATM   30  C   UNK N   1      29.060  13.894   4.657  0.00  0.00     0.144 C 
HETATM   31  C   UNK N   1      23.627   9.132   1.633  0.00  0.00     0.092 C 
HETATM   32  C   UNK N   1      25.380  10.449   1.311  0.00  0.00     0.221 C 
HETATM   33  C   UNK N   1      20.007  15.846   1.890  0.00  0.00     0.146 C 
HETATM   34  C   UNK N   1      25.957   9.124   1.614  0.00  0.00     0.236 C 
HETATM   35  N   UNK N   1      20.896  15.018   2.332  0.00  0.00    -0.333 N 
ATOM     36  HN  UNK N   1      21.511  15.538   2.956  1.00  0.00     0.168 HD
HETATM   37  O   UNK N   1      26.009  11.455   1.019  0.00  0.00    -0.286 OA
HETATM   38  O   UNK N   1      26.882   9.264   2.680  0.00  0.00    -0.319 OA
HETATM   39  O   UNK N   1      24.765   8.365   1.816  0.00  0.00    -0.305 OA
ENDROOT
BRANCH  30  40
HETATM   40  O   UNK N   1      30.192  14.662   4.902  0.00  0.00    -0.313 OA
BRANCH  40  41
HETATM   41  C   UNK N   1      30.809  14.935   6.093  0.00  0.00     0.283 C 
HETATM   42  O   UNK N   1      31.671  14.213   6.563  0.00  0.00    -0.263 OA
BRANCH  41  43
HETATM   43  C   UNK N   1      30.520  16.244   6.739  0.00  0.00     0.289 C 
BRANCH  43  44
HETATM   44  O   UNK N   1      31.406  16.400   7.786  0.00  0.00    -0.311 OA
BRANCH  44  45
HETATM   45  C   UNK N   1      31.969  17.611   8.046  0.00  0.00     0.263 C 
HETATM   46  O   UNK N   1      31.368  18.423   8.729  0.00  0.00    -0.265 OA
BRANCH  45  47
HETATM   47  C   UNK N   1      33.327  17.953   7.494  0.00  0.00     0.146 C 
BRANCH  47  48
HETATM   48  C   UNK N   1      34.311  16.919   7.941  0.00  0.00    -0.052 C 
HETATM   49  C   UNK N   1      34.766  15.832   6.984  0.00  0.00     0.064 C 
HETATM   50  C   UNK N   1      35.417  14.655   7.645  0.00  0.00    -0.005 C 
HETATM   51  C   UNK N   1      35.755  14.690   8.936  0.00  0.00     0.086 C 
HETATM   52  N   UNK N   1      35.486  15.841   9.724  0.00  0.00    -0.371 N 
HETATM   53  C   UNK N   1      35.937  15.883  11.084  0.00  0.00     0.154 C 
HETATM   54  C   UNK N   1      34.676  16.894   9.224  0.00  0.00     0.093 C 
ENDBRANCH  47  48
ENDBRANCH  45  47
ENDBRANCH  44  45
ENDBRANCH  43  44
ENDBRANCH  41  43
ENDBRANCH  40  41
ENDBRANCH  30  40
BRANCH  19  55
HETATM   55  O   UNK N   1      29.305  10.302   2.918  0.00  0.00    -0.386 OA
HETATM   56  C   UNK N   1      30.177   9.248   3.240  0.00  0.00     0.202 C 
ENDBRANCH  19  55
BRANCH  26  57
HETATM   57  O   UNK N   1      26.575  15.632   5.892  0.00  0.00    -0.395 OA
HETATM   58  H   UNK N   1      25.670  15.521   6.225  0.00  0.00     0.210 HD
ENDBRANCH  26  57
BRANCH  25  59
HETATM   59  O   UNK N   1      25.902  18.741   5.964  0.00  0.00    -0.394 OA
HETATM   60  H   UNK N   1      26.033  19.657   6.254  0.00  0.00     0.210 HD
ENDBRANCH  25  59
BRANCH  29  61
HETATM   61  O   UNK N   1      24.498  11.912   3.364  0.00  0.00    -0.362 OA
HETATM   62  H   UNK N   1      24.547  11.998   4.295  0.00  0.00     0.217 HD
ENDBRANCH  29  61
BRANCH  27  63
HETATM   63  O   UNK N   1      19.899   9.399   1.149  0.00  0.00    -0.363 OA
HETATM   64  H   UNK N   1      19.661   9.060   0.309  0.00  0.00     0.217 HD
ENDBRANCH  27  63
BRANCH  33  65
HETATM   65  O   UNK N   1      19.050  15.441   1.028  0.00  0.00    -0.346 OA
HETATM   66  H   UNK N   1      19.220  14.955   0.246  0.00  0.00     0.219 HD
ENDBRANCH  33  65
BRANCH  28  67
HETATM   67  O   UNK N   1      19.614  12.657   1.004  0.00  0.00    -0.362 OA
HETATM   68  H   UNK N   1      19.521  12.338   0.128  0.00  0.00     0.217 HD
ENDBRANCH  28  67
BRANCH  24  69
HETATM   69  N   UNK N   1      23.386  14.364   3.823  0.00  0.00    -0.275 NA
HETATM   70  C   UNK N   1      24.379  13.877   4.681  0.00  0.00     0.122 C 
HETATM   71  C   UNK N   1      23.643  13.001   5.723  0.00  0.00     0.182 C 
HETATM   72  O   UNK N   1      22.685  13.743   6.432  0.00  0.00    -0.389 OA
HETATM   73  C   UNK N   1      21.798  14.363   5.532  0.00  0.00     0.182 C 
HETATM   74  C   UNK N   1      22.576  15.275   4.552  0.00  0.00     0.122 C 
ENDBRANCH  24  69
TORSDOF 15
ENDMDL
MODEL 6
REMARK VINA RESULT:      -7.5      4.579     10.960
REMARK  15 active torsions:
REMARK  status: ('A' for Active; 'I' for Inactive)
REMARK    1  A    between atoms: C_31  and  C_22 
REMARK    2  A    between atoms: C_33  and  C_22 
REMARK    3  A    between atoms: C_34  and  C_24 
REMARK    4  A    between atoms: O_65  and  C_24 
REMARK    5  A    between atoms: C_32  and  O_63 
REMARK    6  A    between atoms: O_65  and  C_33 
REMARK    7  A    between atoms: O_67  and  C_34 
REMARK    8  A    between atoms: N_53  and  C_39 
REMARK    9  A    between atoms: C_40  and  O_56 
REMARK   10  A    between atoms: C_41  and  O_57 
REMARK   11  A    between atoms: O_58  and  C_42 
REMARK   12  A    between atoms: O_59  and  C_43 
REMARK   13  A    between atoms: O_60  and  C_44 
REMARK   14  A    between atoms: C_45  and  O_67 
REMARK   15  A    between atoms: O_62  and  C_48 
ROOT
HETATM    1  C   UNK N   1      25.195  15.952   3.799  0.00  0.00     0.017 C 
HETATM    2  C   UNK N   1      27.818  18.267   8.787  0.00  0.00     0.052 C 
HETATM    3  C   UNK N   1      31.045   8.067   2.353  0.00  0.00     0.015 C 
HETATM    4  C   UNK N   1      26.354  12.660   2.669  0.00  0.00     0.015 C 
HETATM    5  C   UNK N   1      28.993  10.934   4.076  0.00  0.00     0.015 C 
HETATM    6  C   UNK N   1      37.731  13.345   8.858  0.00  0.00     0.054 C 
HETATM    7  C   UNK N   1      35.061   9.212   7.427  0.00  0.00     0.089 C 
HETATM    8  C   UNK N   1      27.322  17.488   5.880  0.00  0.00    -0.003 C 
HETATM    9  C   UNK N   1      27.425  16.930   4.628  0.00  0.00    -0.020 C 
HETATM   10  C   UNK N   1      28.597  18.117   6.426  0.00  0.00     0.011 C 
HETATM   11  C   UNK N   1      33.869  10.704   3.110  0.00  0.00     0.029 C 
HETATM   12  C   UNK N   1      34.728  10.972   4.161  0.00  0.00     0.137 C 
HETATM   13  C   UNK N   1      26.656  15.681   4.131  0.00  0.00     0.033 C 
HETATM   14  C   UNK N   1      28.895  18.254   7.753  0.00  0.00    -0.011 C 
HETATM   15  C   UNK N   1      31.404   9.479   2.826  0.00  0.00     0.044 C 
HETATM   16  C   UNK N   1      27.652  13.380   3.013  0.00  0.00     0.040 C 
HETATM   17  C   UNK N   1      29.758  11.599   2.931  0.00  0.00     0.041 C 
HETATM   18  C   UNK N   1      36.338  13.596   8.383  0.00  0.00     0.002 C 
HETATM   19  C   UNK N   1      33.010   9.442   2.877  0.00  0.00     0.151 C 
HETATM   20  C   UNK N   1      33.551  13.788   7.773  0.00  0.00     0.101 C 
HETATM   21  C   UNK N   1      34.302  15.060   8.135  0.00  0.00     0.117 C 
HETATM   22  C   UNK N   1      34.347  12.574   7.493  0.00  0.00     0.039 C 
HETATM   23  C   UNK N   1      32.146  16.213   7.490  0.00  0.00     0.088 C 
HETATM   24  C   UNK N   1      32.179  15.216   6.329  0.00  0.00     0.070 C 
HETATM   25  C   UNK N   1      27.481  14.953   2.963  0.00  0.00     0.131 C 
HETATM   26  C   UNK N   1      28.894  12.742   2.201  0.00  0.00     0.130 C 
HETATM   27  C   UNK N   1      35.651  14.740   8.784  0.00  0.00     0.063 C 
HETATM   28  C   UNK N   1      33.178  16.134   8.422  0.00  0.00     0.083 C 
HETATM   29  C   UNK N   1      32.957  14.125   6.447  0.00  0.00     0.076 C 
HETATM   30  C   UNK N   1      30.481  10.550   2.026  0.00  0.00     0.144 C 
HETATM   31  C   UNK N   1      35.626  12.509   7.596  0.00  0.00     0.092 C 
HETATM   32  C   UNK N   1      33.863  11.314   6.984  0.00  0.00     0.221 C 
HETATM   33  C   UNK N   1      30.337  17.977   8.209  0.00  0.00     0.146 C 
HETATM   34  C   UNK N   1      35.026  10.487   6.606  0.00  0.00     0.236 C 
HETATM   35  N   UNK N   1      30.987  17.100   7.518  0.00  0.00    -0.333 N 
ATOM     36  HN  UNK N   1      30.489  16.977   6.637  1.00  0.00     0.168 HD
HETATM   37  O   UNK N   1      32.689  10.997   6.865  0.00  0.00    -0.286 OA
HETATM   38  O   UNK N   1      34.910  10.137   5.237  0.00  0.00    -0.319 OA
HETATM   39  O   UNK N   1      36.093  11.339   7.023  0.00  0.00    -0.305 OA
ENDROOT
BRANCH  30  40
HETATM   40  O   UNK N   1      29.527   9.921   1.234  0.00  0.00    -0.313 OA
BRANCH  40  41
HETATM   41  C   UNK N   1      29.307  10.043  -0.112  0.00  0.00     0.283 C 
HETATM   42  O   UNK N   1      29.321  11.119  -0.682  0.00  0.00    -0.263 OA
BRANCH  41  43
HETATM   43  C   UNK N   1      29.210   8.793  -0.913  0.00  0.00     0.289 C 
BRANCH  43  44
HETATM   44  O   UNK N   1      30.244   8.799  -1.827  0.00  0.00    -0.311 OA
BRANCH  44  45
HETATM   45  C   UNK N   1      29.991   8.836  -3.164  0.00  0.00     0.263 C 
HETATM   46  O   UNK N   1      29.699   7.810  -3.753  0.00  0.00    -0.265 OA
BRANCH  45  47
HETATM   47  C   UNK N   1      30.074  10.136  -3.917  0.00  0.00     0.146 C 
BRANCH  47  48
HETATM   48  C   UNK N   1      31.510  10.538  -4.044  0.00  0.00    -0.052 C 
HETATM   49  C   UNK N   1      32.469   9.701  -4.872  0.00  0.00     0.064 C 
HETATM   50  C   UNK N   1      33.918   9.966  -4.600  0.00  0.00    -0.005 C 
HETATM   51  C   UNK N   1      34.301  11.007  -3.856  0.00  0.00     0.086 C 
HETATM   52  N   UNK N   1      33.338  11.881  -3.284  0.00  0.00    -0.371 N 
HETATM   53  C   UNK N   1      33.780  13.038  -2.562  0.00  0.00     0.154 C 
HETATM   54  C   UNK N   1      31.956  11.562  -3.313  0.00  0.00     0.093 C 
ENDBRANCH  47  48
ENDBRANCH  45  47
ENDBRANCH  44  45
ENDBRANCH  43  44
ENDBRANCH  41  43
ENDBRANCH  40  41
ENDBRANCH  30  40
BRANCH  19  55
HETATM   55  O   UNK N   1      33.367   8.482   3.863  0.00  0.00    -0.386 OA
HETATM   56  C   UNK N   1      34.207   7.498   3.312  0.00  0.00     0.202 C 
ENDBRANCH  19  55
BRANCH  26  57
HETATM   57  O   UNK N   1      29.790  13.743   1.808  0.00  0.00    -0.395 OA
HETATM   58  H   UNK N   1      30.295  14.229   1.137  0.00  0.00     0.210 HD
ENDBRANCH  26  57
BRANCH  25  59
HETATM   59  O   UNK N   1      27.070  15.390   1.700  0.00  0.00    -0.394 OA
HETATM   60  H   UNK N   1      27.458  15.475   0.815  0.00  0.00     0.210 HD
ENDBRANCH  25  59
BRANCH  29  61
HETATM   61  O   UNK N   1      33.209  13.339   5.371  0.00  0.00    -0.362 OA
HETATM   62  H   UNK N   1      32.659  13.314   4.613  0.00  0.00     0.217 HD
ENDBRANCH  29  61
BRANCH  27  63
HETATM   63  O   UNK N   1      36.225  15.635   9.614  0.00  0.00    -0.363 OA
HETATM   64  H   UNK N   1      36.657  16.392   9.270  0.00  0.00     0.217 HD
ENDBRANCH  27  63
BRANCH  33  65
HETATM   65  O   UNK N   1      30.759  18.343   9.438  0.00  0.00    -0.346 OA
HETATM   66  H   UNK N   1      31.630  18.626   9.631  0.00  0.00     0.219 HD
ENDBRANCH  33  65
BRANCH  28  67
HETATM   67  O   UNK N   1      33.213  16.916   9.515  0.00  0.00    -0.362 OA
HETATM   68  H   UNK N   1      32.437  17.303   9.871  0.00  0.00     0.217 HD
ENDBRANCH  28  67
BRANCH  24  69
HETATM   69  N   UNK N   1      31.310  15.292   5.177  0.00  0.00    -0.275 NA
HETATM   70  C   UNK N   1      31.723  14.611   4.025  0.00  0.00     0.122 C 
HETATM   71  C   UNK N   1      32.972  15.366   3.513  0.00  0.00     0.182 C 
HETATM   72  O   UNK N   1      32.678  16.709   3.225  0.00  0.00    -0.389 OA
HETATM   73  C   UNK N   1      32.105  17.326   4.353  0.00  0.00     0.182 C 
HETATM   74  C   UNK N   1      30.825  16.570   4.787  0.00  0.00     0.122 C 
ENDBRANCH  24  69
TORSDOF 15
ENDMDL
MODEL 7
REMARK VINA RESULT:      -7.5      4.647     10.510
REMARK  15 active torsions:
REMARK  status: ('A' for Active; 'I' for Inactive)
REMARK    1  A    between atoms: C_31  and  C_22 
REMARK    2  A    between atoms: C_33  and  C_22 
REMARK    3  A    between atoms: C_34  and  C_24 
REMARK    4  A    between atoms: O_65  and  C_24 
REMARK    5  A    between atoms: C_32  and  O_63 
REMARK    6  A    between atoms: O_65  and  C_33 
REMARK    7  A    between atoms: O_67  and  C_34 
REMARK    8  A    between atoms: N_53  and  C_39 
REMARK    9  A    between atoms: C_40  and  O_56 
REMARK   10  A    between atoms: C_41  and  O_57 
REMARK   11  A    between atoms: O_58  and  C_42 
REMARK   12  A    between atoms: O_59  and  C_43 
REMARK   13  A    between atoms: O_60  and  C_44 
REMARK   14  A    between atoms: C_45  and  O_67 
REMARK   15  A    between atoms: O_62  and  C_48 
ROOT
HETATM    1  C   UNK N   1      25.368  15.860   3.793  0.00  0.00     0.017 C 
HETATM    2  C   UNK N   1      27.955  18.262   8.758  0.00  0.00     0.052 C 
HETATM    3  C   UNK N   1      31.053   7.802   2.689  0.00  0.00     0.015 C 
HETATM    4  C   UNK N   1      26.468  12.510   2.782  0.00  0.00     0.015 C 
HETATM    5  C   UNK N   1      29.039  10.766   4.288  0.00  0.00     0.015 C 
HETATM    6  C   UNK N   1      37.745  13.115   9.160  0.00  0.00     0.054 C 
HETATM    7  C   UNK N   1      35.003   9.005   7.801  0.00  0.00     0.089 C 
HETATM    8  C   UNK N   1      27.492  17.408   5.867  0.00  0.00    -0.003 C 
HETATM    9  C   UNK N   1      27.605  16.810   4.635  0.00  0.00    -0.020 C 
HETATM   10  C   UNK N   1      28.773  18.023   6.418  0.00  0.00     0.011 C 
HETATM   11  C   UNK N   1      33.925  10.394   3.421  0.00  0.00     0.029 C 
HETATM   12  C   UNK N   1      34.772  10.673   4.479  0.00  0.00     0.137 C 
HETATM   13  C   UNK N   1      26.815  15.566   4.159  0.00  0.00     0.033 C 
HETATM   14  C   UNK N   1      29.050  18.193   7.746  0.00  0.00    -0.011 C 
HETATM   15  C   UNK N   1      31.437   9.219   3.127  0.00  0.00     0.044 C 
HETATM   16  C   UNK N   1      27.776  13.210   3.129  0.00  0.00     0.040 C 
HETATM   17  C   UNK N   1      29.841  11.379   3.139  0.00  0.00     0.041 C 
HETATM   18  C   UNK N   1      36.367  13.384   8.652  0.00  0.00     0.002 C 
HETATM   19  C   UNK N   1      33.041   9.146   3.209  0.00  0.00     0.151 C 
HETATM   20  C   UNK N   1      33.597  13.622   7.984  0.00  0.00     0.101 C 
HETATM   21  C   UNK N   1      34.371  14.887   8.322  0.00  0.00     0.117 C 
HETATM   22  C   UNK N   1      34.369  12.382   7.755  0.00  0.00     0.039 C 
HETATM   23  C   UNK N   1      32.255  16.069   7.604  0.00  0.00     0.088 C 
HETATM   24  C   UNK N   1      32.286  15.039   6.474  0.00  0.00     0.070 C 
HETATM   25  C   UNK N   1      27.644  14.784   3.029  0.00  0.00     0.131 C 
HETATM   26  C   UNK N   1      29.018  12.519   2.360  0.00  0.00     0.130 C 
HETATM   27  C   UNK N   1      35.700  14.555   9.006  0.00  0.00     0.063 C 
HETATM   28  C   UNK N   1      33.269  15.995   8.557  0.00  0.00     0.083 C 
HETATM   29  C   UNK N   1      33.035  13.933   6.638  0.00  0.00     0.076 C 
HETATM   30  C   UNK N   1      30.555  10.286   2.279  0.00  0.00     0.144 C 
HETATM   31  C   UNK N   1      35.643  12.291   7.884  0.00  0.00     0.092 C 
HETATM   32  C   UNK N   1      33.864  11.119   7.275  0.00  0.00     0.221 C 
HETATM   33  C   UNK N   1      30.476  17.896   8.237  0.00  0.00     0.146 C 
HETATM   34  C   UNK N   1      35.014  10.255   6.943  0.00  0.00     0.236 C 
HETATM   35  N   UNK N   1      31.117  16.984   7.584  0.00  0.00    -0.333 N 
ATOM     36  HN  UNK N   1      30.633  16.847   6.698  1.00  0.00     0.168 HD
HETATM   37  O   UNK N   1      32.685  10.826   7.143  0.00  0.00    -0.286 OA
HETATM   38  O   UNK N   1      34.914   9.866   5.583  0.00  0.00    -0.319 OA
HETATM   39  O   UNK N   1      36.093  11.094   7.354  0.00  0.00    -0.305 OA
ENDROOT
BRANCH  30  40
HETATM   40  O   UNK N   1      29.601   9.657   1.488  0.00  0.00    -0.313 OA
BRANCH  40  41
HETATM   41  C   UNK N   1      29.554   9.534   0.125  0.00  0.00     0.283 C 
HETATM   42  O   UNK N   1      29.104   8.546  -0.427  0.00  0.00    -0.263 OA
BRANCH  41  43
HETATM   43  C   UNK N   1      29.918  10.724  -0.690  0.00  0.00     0.289 C 
BRANCH  43  44
HETATM   44  O   UNK N   1      31.227  10.570  -1.098  0.00  0.00    -0.311 OA
BRANCH  44  45
HETATM   45  C   UNK N   1      32.069  11.637  -1.155  0.00  0.00     0.263 C 
HETATM   46  O   UNK N   1      32.341  12.135  -2.234  0.00  0.00    -0.265 OA
BRANCH  45  47
HETATM   47  C   UNK N   1      32.667  12.203   0.105  0.00  0.00     0.146 C 
BRANCH  47  48
HETATM   48  C   UNK N   1      34.129  11.888   0.138  0.00  0.00    -0.052 C 
HETATM   49  C   UNK N   1      34.619  10.492  -0.208  0.00  0.00     0.064 C 
HETATM   50  C   UNK N   1      36.018  10.197   0.241  0.00  0.00    -0.005 C 
HETATM   51  C   UNK N   1      36.814  11.166   0.699  0.00  0.00     0.086 C 
HETATM   52  N   UNK N   1      36.345  12.504   0.793  0.00  0.00    -0.371 N 
HETATM   53  C   UNK N   1      37.249  13.538   1.206  0.00  0.00     0.154 C 
HETATM   54  C   UNK N   1      34.973  12.812   0.600  0.00  0.00     0.093 C 
ENDBRANCH  47  48
ENDBRANCH  45  47
ENDBRANCH  44  45
ENDBRANCH  43  44
ENDBRANCH  41  43
ENDBRANCH  40  41
ENDBRANCH  30  40
BRANCH  19  55
HETATM   55  O   UNK N   1      33.358   8.207   4.230  0.00  0.00    -0.386 OA
HETATM   56  C   UNK N   1      34.182   7.188   3.723  0.00  0.00     0.202 C 
ENDBRANCH  19  55
BRANCH  26  57
HETATM   57  O   UNK N   1      29.944  13.486   1.954  0.00  0.00    -0.395 OA
HETATM   58  H   UNK N   1      30.847  13.783   1.756  0.00  0.00     0.210 HD
ENDBRANCH  26  57
BRANCH  25  59
HETATM   59  O   UNK N   1      27.266  15.193   1.747  0.00  0.00    -0.394 OA
HETATM   60  H   UNK N   1      27.417  15.958   1.170  0.00  0.00     0.210 HD
ENDBRANCH  25  59
BRANCH  29  61
HETATM   61  O   UNK N   1      33.288  13.110   5.590  0.00  0.00    -0.362 OA
HETATM   62  H   UNK N   1      32.625  12.814   4.999  0.00  0.00     0.217 HD
ENDBRANCH  29  61
BRANCH  27  63
HETATM   63  O   UNK N   1      36.280  15.461   9.820  0.00  0.00    -0.363 OA
HETATM   64  H   UNK N   1      37.116  15.288  10.204  0.00  0.00     0.217 HD
ENDBRANCH  27  63
BRANCH  33  65
HETATM   65  O   UNK N   1      30.884  18.288   9.462  0.00  0.00    -0.346 OA
HETATM   66  H   UNK N   1      30.447  18.062  10.259  0.00  0.00     0.219 HD
ENDBRANCH  33  65
BRANCH  28  67
HETATM   67  O   UNK N   1      33.302  16.808   9.627  0.00  0.00    -0.362 OA
HETATM   68  H   UNK N   1      33.466  17.728   9.544  0.00  0.00     0.217 HD
ENDBRANCH  28  67
BRANCH  24  69
HETATM   69  N   UNK N   1      31.440  15.100   5.304  0.00  0.00    -0.275 NA
HETATM   70  C   UNK N   1      31.855  14.373   4.182  0.00  0.00     0.122 C 
HETATM   71  C   UNK N   1      33.132  15.080   3.670  0.00  0.00     0.182 C 
HETATM   72  O   UNK N   1      32.877  16.420   3.335  0.00  0.00    -0.389 OA
HETATM   73  C   UNK N   1      32.301  17.086   4.432  0.00  0.00     0.182 C 
HETATM   74  C   UNK N   1      30.994  16.377   4.866  0.00  0.00     0.122 C 
ENDBRANCH  24  69
TORSDOF 15
ENDMDL
MODEL 8
REMARK VINA RESULT:      -7.5      7.953     12.444
REMARK  15 active torsions:
REMARK  status: ('A' for Active; 'I' for Inactive)
REMARK    1  A    between atoms: C_31  and  C_22 
REMARK    2  A    between atoms: C_33  and  C_22 
REMARK    3  A    between atoms: C_34  and  C_24 
REMARK    4  A    between atoms: O_65  and  C_24 
REMARK    5  A    between atoms: C_32  and  O_63 
REMARK    6  A    between atoms: O_65  and  C_33 
REMARK    7  A    between atoms: O_67  and  C_34 
REMARK    8  A    between atoms: N_53  and  C_39 
REMARK    9  A    between atoms: C_40  and  O_56 
REMARK   10  A    between atoms: C_41  and  O_57 
REMARK   11  A    between atoms: O_58  and  C_42 
REMARK   12  A    between atoms: O_59  and  C_43 
REMARK   13  A    between atoms: O_60  and  C_44 
REMARK   14  A    between atoms: C_45  and  O_67 
REMARK   15  A    between atoms: O_62  and  C_48 
ROOT
HETATM    1  C   UNK N   1      31.999  16.815   2.725  0.00  0.00     0.017 C 
HETATM    2  C   UNK N   1      33.064  18.401   8.510  0.00  0.00     0.052 C 
HETATM    3  C   UNK N   1      30.432   7.090   3.929  0.00  0.00     0.015 C 
HETATM    4  C   UNK N   1      30.824  13.395   2.113  0.00  0.00     0.015 C 
HETATM    5  C   UNK N   1      30.546  10.963   4.549  0.00  0.00     0.015 C 
HETATM    6  C   UNK N   1      35.293   8.698  13.346  0.00  0.00     0.054 C 
HETATM    7  C   UNK N   1      31.443   6.999  10.422  0.00  0.00     0.089 C 
HETATM    8  C   UNK N   1      33.440  17.230   5.719  0.00  0.00    -0.003 C 
HETATM    9  C   UNK N   1      33.627  16.368   4.665  0.00  0.00    -0.020 C 
HETATM   10  C   UNK N   1      34.390  17.046   6.895  0.00  0.00     0.011 C 
HETATM   11  C   UNK N   1      33.599   7.419   6.244  0.00  0.00     0.029 C 
HETATM   12  C   UNK N   1      33.846   7.404   7.606  0.00  0.00     0.137 C 
HETATM   13  C   UNK N   1      32.513  15.810   3.745  0.00  0.00     0.033 C 
HETATM   14  C   UNK N   1      34.106  17.381   8.189  0.00  0.00    -0.011 C 
HETATM   15  C   UNK N   1      31.435   8.015   4.627  0.00  0.00     0.044 C 
HETATM   16  C   UNK N   1      31.935  13.197   3.135  0.00  0.00     0.040 C 
HETATM   17  C   UNK N   1      31.932  10.584   4.024  0.00  0.00     0.041 C 
HETATM   18  C   UNK N   1      34.863   9.601  12.237  0.00  0.00     0.002 C 
HETATM   19  C   UNK N   1      32.314   6.993   5.503  0.00  0.00     0.151 C 
HETATM   20  C   UNK N   1      33.644  11.296  10.283  0.00  0.00     0.101 C 
HETATM   21  C   UNK N   1      34.821  11.839  11.079  0.00  0.00     0.117 C 
HETATM   22  C   UNK N   1      33.367   9.846  10.366  0.00  0.00     0.039 C 
HETATM   23  C   UNK N   1      34.656  13.805   9.499  0.00  0.00     0.088 C 
HETATM   24  C   UNK N   1      34.458  12.707   8.452  0.00  0.00     0.070 C 
HETATM   25  C   UNK N   1      32.963  14.400   3.125  0.00  0.00     0.131 C 
HETATM   26  C   UNK N   1      32.541  11.702   3.042  0.00  0.00     0.130 C 
HETATM   27  C   UNK N   1      35.104  10.971  12.308  0.00  0.00     0.063 C 
HETATM   28  C   UNK N   1      34.808  13.399  10.823  0.00  0.00     0.083 C 
HETATM   29  C   UNK N   1      34.090  11.483   8.872  0.00  0.00     0.076 C 
HETATM   30  C   UNK N   1      31.988   9.096   3.549  0.00  0.00     0.144 C 
HETATM   31  C   UNK N   1      34.016   9.029  11.113  0.00  0.00     0.092 C 
HETATM   32  C   UNK N   1      32.413   9.098   9.584  0.00  0.00     0.221 C 
HETATM   33  C   UNK N   1      34.553  16.424   9.306  0.00  0.00     0.146 C 
HETATM   34  C   UNK N   1      32.660   7.658   9.803  0.00  0.00     0.236 C 
HETATM   35  N   UNK N   1      34.599  15.172   8.988  0.00  0.00    -0.333 N 
ATOM     36  HN  UNK N   1      34.593  15.116   7.970  1.00  0.00     0.168 HD
HETATM   37  O   UNK N   1      31.562   9.575   8.848  0.00  0.00    -0.286 OA
HETATM   38  O   UNK N   1      32.916   7.045   8.551  0.00  0.00    -0.319 OA
HETATM   39  O   UNK N   1      33.701   7.723  10.778  0.00  0.00    -0.305 OA
ENDROOT
BRANCH  30  40
HETATM   40  O   UNK N   1      31.326   8.998   2.331  0.00  0.00    -0.313 OA
BRANCH  40  41
HETATM   41  C   UNK N   1      31.844   8.798   1.080  0.00  0.00     0.283 C 
HETATM   42  O   UNK N   1      32.344   7.740   0.741  0.00  0.00    -0.263 OA
BRANCH  41  43
HETATM   43  C   UNK N   1      31.634   9.865   0.065  0.00  0.00     0.289 C 
BRANCH  43  44
HETATM   44  O   UNK N   1      32.875  10.292  -0.361  0.00  0.00    -0.311 OA
BRANCH  44  45
HETATM   45  C   UNK N   1      33.113  11.609  -0.602  0.00  0.00     0.263 C 
HETATM   46  O   UNK N   1      33.935  12.208   0.070  0.00  0.00    -0.265 OA
BRANCH  45  47
HETATM   47  C   UNK N   1      32.365  12.331  -1.691  0.00  0.00     0.146 C 
BRANCH  47  48
HETATM   48  C   UNK N   1      32.689  11.699  -3.008  0.00  0.00    -0.052 C 
HETATM   49  C   UNK N   1      31.670  10.814  -3.703  0.00  0.00     0.064 C 
HETATM   50  C   UNK N   1      32.238   9.939  -4.779  0.00  0.00    -0.005 C 
HETATM   51  C   UNK N   1      33.488  10.109  -5.216  0.00  0.00     0.086 C 
HETATM   52  N   UNK N   1      34.321  11.114  -4.655  0.00  0.00    -0.371 N 
HETATM   53  C   UNK N   1      35.628  11.330  -5.204  0.00  0.00     0.154 C 
HETATM   54  C   UNK N   1      33.927  11.821  -3.490  0.00  0.00     0.093 C 
ENDBRANCH  47  48
ENDBRANCH  45  47
ENDBRANCH  44  45
ENDBRANCH  43  44
ENDBRANCH  41  43
ENDBRANCH  40  41
ENDBRANCH  30  40
BRANCH  19  55
HETATM   55  O   UNK N   1      31.435   6.405   6.454  0.00  0.00    -0.386 OA
HETATM   56  C   UNK N   1      31.457   5.004   6.346  0.00  0.00     0.202 C 
ENDBRANCH  19  55
BRANCH  26  57
HETATM   57  O   UNK N   1      33.924  11.719   3.250  0.00  0.00    -0.395 OA
HETATM   58  H   UNK N   1      34.756  11.307   3.533  0.00  0.00     0.210 HD
ENDBRANCH  26  57
BRANCH  25  59
HETATM   59  O   UNK N   1      33.559  14.563   1.870  0.00  0.00    -0.394 OA
HETATM   60  H   UNK N   1      34.019  14.005   1.224  0.00  0.00     0.210 HD
ENDBRANCH  25  59
BRANCH  29  61
HETATM   61  O   UNK N   1      34.131  10.423   8.027  0.00  0.00    -0.362 OA
HETATM   62  H   UNK N   1      33.833  10.462   7.141  0.00  0.00     0.217 HD
ENDBRANCH  29  61
BRANCH  27  63
HETATM   63  O   UNK N   1      35.719  11.509  13.382  0.00  0.00    -0.363 OA
HETATM   64  H   UNK N   1      36.309  12.229  13.280  0.00  0.00     0.217 HD
ENDBRANCH  27  63
BRANCH  33  65
HETATM   65  O   UNK N   1      34.542  16.811  10.598  0.00  0.00    -0.346 OA
HETATM   66  H   UNK N   1      34.743  17.679  10.888  0.00  0.00     0.219 HD
ENDBRANCH  33  65
BRANCH  28  67
HETATM   67  O   UNK N   1      34.924  14.281  11.831  0.00  0.00    -0.362 OA
HETATM   68  H   UNK N   1      34.747  15.194  11.711  0.00  0.00     0.217 HD
ENDBRANCH  28  67
BRANCH  24  69
HETATM   69  N   UNK N   1      34.489  12.938   7.026  0.00  0.00    -0.275 NA
HETATM   70  C   UNK N   1      34.730  11.828   6.208  0.00  0.00     0.122 C 
HETATM   71  C   UNK N   1      36.195  11.412   6.480  0.00  0.00     0.182 C 
HETATM   72  O   UNK N   1      37.087  12.456   6.186  0.00  0.00    -0.389 OA
HETATM   73  C   UNK N   1      36.719  13.615   6.894  0.00  0.00     0.182 C 
HETATM   74  C   UNK N   1      35.267  14.024   6.540  0.00  0.00     0.122 C 
ENDBRANCH  24  69
TORSDOF 15
ENDMDL
MODEL 9
REMARK VINA RESULT:      -7.5      4.521     11.216
REMARK  15 active torsions:
REMARK  status: ('A' for Active; 'I' for Inactive)
REMARK    1  A    between atoms: C_31  and  C_22 
REMARK    2  A    between atoms: C_33  and  C_22 
REMARK    3  A    between atoms: C_34  and  C_24 
REMARK    4  A    between atoms: O_65  and  C_24 
REMARK    5  A    between atoms: C_32  and  O_63 
REMARK    6  A    between atoms: O_65  and  C_33 
REMARK    7  A    between atoms: O_67  and  C_34 
REMARK    8  A    between atoms: N_53  and  C_39 
REMARK    9  A    between atoms: C_40  and  O_56 
REMARK   10  A    between atoms: C_41  and  O_57 
REMARK   11  A    between atoms: O_58  and  C_42 
REMARK   12  A    between atoms: O_59  and  C_43 
REMARK   13  A    between atoms: O_60  and  C_44 
REMARK   14  A    between atoms: C_45  and  O_67 
REMARK   15  A    between atoms: O_62  and  C_48 
ROOT
HETATM    1  C   UNK N   1      25.162  15.987   3.906  0.00  0.00     0.017 C 
HETATM    2  C   UNK N   1      27.852  18.274   8.871  0.00  0.00     0.052 C 
HETATM    3  C   UNK N   1      30.880   8.010   2.443  0.00  0.00     0.015 C 
HETATM    4  C   UNK N   1      26.263  12.676   2.777  0.00  0.00     0.015 C 
HETATM    5  C   UNK N   1      28.883  10.912   4.172  0.00  0.00     0.015 C 
HETATM    6  C   UNK N   1      37.688  13.200   8.892  0.00  0.00     0.054 C 
HETATM    7  C   UNK N   1      34.945   9.106   7.488  0.00  0.00     0.089 C 
HETATM    8  C   UNK N   1      27.325  17.496   5.970  0.00  0.00    -0.003 C 
HETATM    9  C   UNK N   1      27.412  16.933   4.719  0.00  0.00    -0.020 C 
HETATM   10  C   UNK N   1      28.613  18.107   6.506  0.00  0.00     0.011 C 
HETATM   11  C   UNK N   1      33.749  10.605   3.176  0.00  0.00     0.029 C 
HETATM   12  C   UNK N   1      34.619  10.862   4.220  0.00  0.00     0.137 C 
HETATM   13  C   UNK N   1      26.620  15.695   4.229  0.00  0.00     0.033 C 
HETATM   14  C   UNK N   1      28.922  18.242   7.830  0.00  0.00    -0.011 C 
HETATM   15  C   UNK N   1      31.264   9.418   2.911  0.00  0.00     0.044 C 
HETATM   16  C   UNK N   1      27.573  13.376   3.111  0.00  0.00     0.040 C 
HETATM   17  C   UNK N   1      29.651  11.563   3.020  0.00  0.00     0.041 C 
HETATM   18  C   UNK N   1      36.296  13.472   8.425  0.00  0.00     0.002 C 
HETATM   19  C   UNK N   1      32.869   9.356   2.951  0.00  0.00     0.151 C 
HETATM   20  C   UNK N   1      33.508  13.705   7.832  0.00  0.00     0.101 C 
HETATM   21  C   UNK N   1      34.281  14.966   8.186  0.00  0.00     0.117 C 
HETATM   22  C   UNK N   1      34.284  12.478   7.550  0.00  0.00     0.039 C 
HETATM   23  C   UNK N   1      32.139  16.150   7.552  0.00  0.00     0.088 C 
HETATM   24  C   UNK N   1      32.150  15.151   6.394  0.00  0.00     0.070 C 
HETATM   25  C   UNK N   1      27.427  14.952   3.058  0.00  0.00     0.131 C 
HETATM   26  C   UNK N   1      28.801  12.717   2.293  0.00  0.00     0.130 C 
HETATM   27  C   UNK N   1      35.629  14.627   8.827  0.00  0.00     0.063 C 
HETATM   28  C   UNK N   1      33.176  16.058   8.478  0.00  0.00     0.083 C 
HETATM   29  C   UNK N   1      32.911  14.048   6.509  0.00  0.00     0.076 C 
HETATM   30  C   UNK N   1      30.353  10.500   2.113  0.00  0.00     0.144 C 
HETATM   31  C   UNK N   1      35.562  12.394   7.646  0.00  0.00     0.092 C 
HETATM   32  C   UNK N   1      33.777  11.224   7.048  0.00  0.00     0.221 C 
HETATM   33  C   UNK N   1      30.362  17.944   8.278  0.00  0.00     0.146 C 
HETATM   34  C   UNK N   1      34.925  10.379   6.664  0.00  0.00     0.236 C 
HETATM   35  N   UNK N   1      30.994  17.055   7.585  0.00  0.00    -0.333 N 
ATOM     36  HN  UNK N   1      30.489  16.938   6.708  1.00  0.00     0.168 HD
HETATM   37  O   UNK N   1      32.597  10.925   6.937  0.00  0.00    -0.286 OA
HETATM   38  O   UNK N   1      34.794  10.027   5.297  0.00  0.00    -0.319 OA
HETATM   39  O   UNK N   1      36.008  11.216   7.072  0.00  0.00    -0.305 OA
ENDROOT
BRANCH  30  40
HETATM   40  O   UNK N   1      29.384   9.885   1.329  0.00  0.00    -0.313 OA
BRANCH  40  41
HETATM   41  C   UNK N   1      29.214   9.932  -0.029  0.00  0.00     0.283 C 
HETATM   42  O   UNK N   1      28.508   9.141  -0.627  0.00  0.00    -0.263 OA
BRANCH  41  43
HETATM   43  C   UNK N   1      29.789  11.095  -0.758  0.00  0.00     0.289 C 
BRANCH  43  44
HETATM   44  O   UNK N   1      30.917  10.658  -1.422  0.00  0.00    -0.311 OA
BRANCH  44  45
HETATM   45  C   UNK N   1      31.231  11.144  -2.654  0.00  0.00     0.263 C 
HETATM   46  O   UNK N   1      32.238  11.815  -2.800  0.00  0.00    -0.265 OA
BRANCH  45  47
HETATM   47  C   UNK N   1      30.341  10.859  -3.834  0.00  0.00     0.146 C 
BRANCH  47  48
HETATM   48  C   UNK N   1      30.217   9.379  -4.007  0.00  0.00    -0.052 C 
HETATM   49  C   UNK N   1      31.454   8.527  -4.231  0.00  0.00     0.064 C 
HETATM   50  C   UNK N   1      31.176   7.161  -4.780  0.00  0.00    -0.005 C 
HETATM   51  C   UNK N   1      29.931   6.683  -4.842  0.00  0.00     0.086 C 
HETATM   52  N   UNK N   1      28.831   7.470  -4.408  0.00  0.00    -0.371 N 
HETATM   53  C   UNK N   1      27.515   6.900  -4.406  0.00  0.00     0.154 C 
HETATM   54  C   UNK N   1      28.997   8.844  -4.091  0.00  0.00     0.093 C 
ENDBRANCH  47  48
ENDBRANCH  45  47
ENDBRANCH  44  45
ENDBRANCH  43  44
ENDBRANCH  41  43
ENDBRANCH  40  41
ENDBRANCH  30  40
BRANCH  19  55
HETATM   55  O   UNK N   1      33.218   8.392   3.937  0.00  0.00    -0.386 OA
HETATM   56  C   UNK N   1      34.047   7.400   3.386  0.00  0.00     0.202 C 
ENDBRANCH  19  55
BRANCH  26  57
HETATM   57  O   UNK N   1      29.709  13.703   1.891  0.00  0.00    -0.395 OA
HETATM   58  H   UNK N   1      30.406  14.043   1.308  0.00  0.00     0.210 HD
ENDBRANCH  26  57
BRANCH  25  59
HETATM   59  O   UNK N   1      27.014  15.392   1.796  0.00  0.00    -0.394 OA
HETATM   60  H   UNK N   1      26.672  16.211   1.405  0.00  0.00     0.210 HD
ENDBRANCH  25  59
BRANCH  29  61
HETATM   61  O   UNK N   1      33.144  13.255   5.433  0.00  0.00    -0.362 OA
HETATM   62  H   UNK N   1      32.538  13.158   4.727  0.00  0.00     0.217 HD
ENDBRANCH  29  61
BRANCH  27  63
HETATM   63  O   UNK N   1      36.222  15.515   9.651  0.00  0.00    -0.363 OA
HETATM   64  H   UNK N   1      35.726  15.953  10.315  0.00  0.00     0.217 HD
ENDBRANCH  27  63
BRANCH  33  65
HETATM   65  O   UNK N   1      30.797  18.306   9.503  0.00  0.00    -0.346 OA
HETATM   66  H   UNK N   1      31.290  17.748  10.072  0.00  0.00     0.219 HD
ENDBRANCH  33  65
BRANCH  28  67
HETATM   67  O   UNK N   1      33.230  16.842   9.569  0.00  0.00    -0.362 OA
HETATM   68  H   UNK N   1      33.330  16.485  10.430  0.00  0.00     0.217 HD
ENDBRANCH  28  67
BRANCH  24  69
HETATM   69  N   UNK N   1      31.274  15.237   5.247  0.00  0.00    -0.275 NA
HETATM   70  C   UNK N   1      31.671  14.550   4.093  0.00  0.00     0.122 C 
HETATM   71  C   UNK N   1      32.927  15.287   3.573  0.00  0.00     0.182 C 
HETATM   72  O   UNK N   1      32.648  16.634   3.285  0.00  0.00    -0.389 OA
HETATM   73  C   UNK N   1      32.091  17.259   4.416  0.00  0.00     0.182 C 
HETATM   74  C   UNK N   1      30.804  16.521   4.859  0.00  0.00     0.122 C 
ENDBRANCH  24  69
TORSDOF 15
ENDMDL
