REMARK  7 active torsions:
REMARK  status: ('A' for Active; 'I' for Inactive)
REMARK    1  A    between atoms: O_1  and  C_2 
REMARK    2  A    between atoms: C_3  and  C_2 
REMARK    3  A    between atoms: C_5  and  O_6 
REMARK    4  A    between atoms: C_5  and  C_7 
REMARK    5  A    between atoms: C_7  and  O_8 
REMARK    6  A    between atoms: C_9  and  O_10 
REMARK    7  A    between atoms: C_11  and  O_12 
ROOT
HETATM    1  C   UNK N   1      -0.362  -0.571  -0.033  0.00  0.00     0.180 C 
HETATM    2  O   UNK N   1      -0.958   0.710  -0.064  0.00  0.00    -0.341 OA
HETATM    3  C   UNK N   1       0.099   1.636  -0.270  0.00  0.00     0.213 C 
HETATM    4  C   UNK N   1       1.329   0.799  -0.597  0.00  0.00     0.213 C 
HETATM    5  C   UNK N   1       1.106  -0.383   0.269  0.00  0.00     0.183 C 
ENDROOT
BRANCH   3   6
HETATM    6  O   UNK N   1      -0.203   2.462  -1.351  0.00  0.00    -0.362 OA
HETATM    7  H   UNK N   1       0.190   2.932  -2.103  0.00  0.00     0.213 HD
ENDBRANCH   3   6
BRANCH   3   8
HETATM    8  C   UNK N   1       0.250   2.480   1.002  0.00  0.00     0.235 C 
BRANCH   8   9
HETATM    9  O   UNK N   1       1.158   3.526   0.807  0.00  0.00    -0.395 OA
HETATM   10  H   UNK N   1       2.101   3.344   0.672  0.00  0.00     0.209 HD
ENDBRANCH   8   9
ENDBRANCH   3   8
BRANCH   4  11
HETATM   11  O   UNK N   1       2.544   1.442  -0.341  0.00  0.00    -0.387 OA
HETATM   12  H   UNK N   1       3.352   0.935  -0.164  0.00  0.00     0.210 HD
ENDBRANCH   4  11
BRANCH   1  13
HETATM   13  C   UNK N   1      -1.039  -1.471   0.989  0.00  0.00     0.198 C 
BRANCH  13  14
HETATM   14  O   UNK N   1      -0.636  -2.795   0.801  0.00  0.00    -0.398 OA
HETATM   15  H   UNK N   1      -1.292  -3.497   0.671  0.00  0.00     0.209 HD
ENDBRANCH  13  14
ENDBRANCH   1  13
BRANCH   5  16
HETATM   16  O   UNK N   1       1.860  -1.474  -0.163  0.00  0.00    -0.390 OA
HETATM   17  H   UNK N   1       1.465  -2.307  -0.464  0.00  0.00     0.210 HD
ENDBRANCH   5  16
TORSDOF 7
