MODEL 1
REMARK VINA RESULT:      -7.6      0.000      0.000
REMARK  21 active torsions:
REMARK  status: ('A' for Active; 'I' for Inactive)
REMARK    1  A    between atoms: C_6  and  C_2 
REMARK    2  A    between atoms: O_45  and  C_2 
REMARK    3  A    between atoms: C_7  and  C_3 
REMARK    4  A    between atoms: O_46  and  C_3 
REMARK    5  A    between atoms: C_10  and  O_34 
REMARK    6  A    between atoms: C_11  and  O_35 
REMARK    7  A    between atoms: N_18  and  C_12 
REMARK    8  A    between atoms: O_36  and  C_15 
REMARK    9  A    between atoms: C_16  and  N_33 
REMARK       I    between atoms: N_19  and  C_17 
REMARK   10  A    between atoms: P_51  and  O_37 
REMARK   11  A    between atoms: P_52  and  O_39 
REMARK   12  A    between atoms: P_53  and  O_41 
REMARK   13  A    between atoms: P_54  and  O_43 
REMARK   14  A    between atoms: P_51  and  O_45 
REMARK   15  A    between atoms: P_52  and  O_46 
REMARK   16  A    between atoms: P_51  and  O_48 
REMARK   17  A    between atoms: P_53  and  O_48 
REMARK   18  A    between atoms: P_52  and  O_49 
REMARK   19  A    between atoms: P_54  and  O_49 
REMARK   20  A    between atoms: P_53  and  O_50 
REMARK   21  A    between atoms: P_54  and  O_50 
ROOT
HETATM    1  O   UNK N   1      20.362  17.088   1.248  0.00  0.00    -0.631 OA
HETATM    2  P   UNK N   1      20.291  17.498   2.737  0.00  0.00     0.410 P 
ENDROOT
BRANCH   2   3
HETATM    3  O   UNK N   1      18.935  18.576   2.832  0.00  0.00    -0.307 OA
HETATM    4  H   UNK N   1      18.372  19.105   3.417  0.00  0.00     0.222 HD
ENDBRANCH   2   3
BRANCH   2   5
HETATM    5  O   UNK N   1      20.042  16.127   3.809  0.00  0.00    -0.195 OA
BRANCH   5   6
HETATM    6  P   UNK N   1      20.200  14.599   2.970  0.00  0.00     0.401 P 
HETATM    7  O   UNK N   1      20.109  13.478   4.044  0.00  0.00    -0.631 OA
BRANCH   6   8
HETATM    8  O   UNK N   1      18.812  14.379   1.953  0.00  0.00    -0.307 OA
HETATM    9  H   UNK N   1      18.783  14.774   1.068  0.00  0.00     0.222 HD
ENDBRANCH   6   8
BRANCH   6  10
HETATM   10  O   UNK N   1      21.664  14.421   2.024  0.00  0.00    -0.294 OA
BRANCH  10  11
HETATM   11  C   UNK N   1      22.620  13.837   2.857  0.00  0.00     0.215 C 
BRANCH  11  12
HETATM   12  C   UNK N   1      23.983  14.544   2.775  0.00  0.00     0.180 C 
HETATM   13  C   UNK N   1      25.127  13.737   3.412  0.00  0.00     0.182 C 
HETATM   14  C   UNK N   1      25.634  14.653   4.495  0.00  0.00     0.198 C 
HETATM   15  C   UNK N   1      24.515  15.667   4.681  0.00  0.00     0.262 C 
HETATM   16  O   UNK N   1      23.856  15.782   3.443  0.00  0.00    -0.353 OA
BRANCH  13  17
HETATM   17  O   UNK N   1      26.160  13.507   2.494  0.00  0.00    -0.390 OA
HETATM   18  H   UNK N   1      26.852  12.858   2.695  0.00  0.00     0.210 HD
ENDBRANCH  13  17
BRANCH  14  19
HETATM   19  O   UNK N   1      26.002  13.963   5.654  0.00  0.00    -0.388 OA
HETATM   20  H   UNK N   1      26.740  13.415   5.964  0.00  0.00     0.210 HD
ENDBRANCH  14  19
BRANCH  15  21
HETATM   21  N   UNK N   1      23.574  15.361   5.766  0.00  0.00    -0.297 N 
HETATM   22  C   UNK N   1      23.362  14.182   6.411  0.00  0.00     0.188 A 
HETATM   23  N   UNK N   1      22.319  14.276   7.286  0.00  0.00    -0.346 N 
HETATM   24  C   UNK N   1      21.878  15.541   7.145  0.00  0.00     0.122 A 
ATOM     25  HN  UNK N   1      21.956  13.552   7.906  1.00  0.00     0.167 HD
HETATM   26  C   UNK N   1      20.808  16.189   7.743  0.00  0.00     0.131 A 
HETATM   27  C   UNK N   1      22.635  16.187   6.240  0.00  0.00     0.142 A 
HETATM   28  N   UNK N   1      20.560  17.484   7.381  0.00  0.00    -0.337 N 
HETATM   29  C   UNK N   1      21.346  18.122   6.451  0.00  0.00     0.183 A 
ATOM     30  HN  UNK N   1      19.780  17.984   7.807  1.00  0.00     0.168 HD
HETATM   31  N   UNK N   1      22.393  17.467   5.865  0.00  0.00    -0.336 N 
ATOM     32  HN  UNK N   1      22.976  17.929   5.166  1.00  0.00     0.168 HD
BRANCH  26  33
HETATM   33  N   UNK N   1      19.981  15.534   8.676  0.00  0.00    -0.383 N 
HETATM   34  H   UNK N   1      20.224  15.446   9.627  0.00  0.00     0.157 HD
HETATM   35  H   UNK N   1      19.130  15.149   8.366  0.00  0.00     0.157 HD
ENDBRANCH  26  33
ENDBRANCH  15  21
ENDBRANCH  11  12
ENDBRANCH  10  11
ENDBRANCH   6  10
ENDBRANCH   5   6
ENDBRANCH   2   5
BRANCH   2  36
HETATM   36  O   UNK N   1      21.758  18.361   3.084  0.00  0.00    -0.195 OA
BRANCH  36  37
HETATM   37  P   UNK N   1      21.407  20.027   2.739  0.00  0.00     0.410 P 
HETATM   38  O   UNK N   1      20.498  20.511   3.903  0.00  0.00    -0.631 OA
BRANCH  37  39
HETATM   39  O   UNK N   1      20.494  20.169   1.270  0.00  0.00    -0.307 OA
HETATM   40  H   UNK N   1      19.628  20.438   0.923  0.00  0.00     0.222 HD
ENDBRANCH  37  39
BRANCH  37  41
HETATM   41  O   UNK N   1      22.867  20.995   2.706  0.00  0.00    -0.195 OA
BRANCH  41  42
HETATM   42  P   UNK N   1      24.182  19.873   2.838  0.00  0.00     0.402 P 
HETATM   43  O   UNK N   1      24.829  21.204   2.358  0.00  0.00    -0.631 OA
BRANCH  42  44
HETATM   44  O   UNK N   1      23.580  20.145   4.444  0.00  0.00    -0.307 OA
HETATM   45  H   UNK N   1      24.089  20.518   5.181  0.00  0.00     0.222 HD
ENDBRANCH  42  44
BRANCH  42  46
HETATM   46  O   UNK N   1      25.582  20.049   3.859  0.00  0.00    -0.291 OA
BRANCH  46  47
HETATM   47  C   UNK N   1      25.446  19.031   4.818  0.00  0.00     0.234 C 
BRANCH  47  48
HETATM   48  C   UNK N   1      26.787  18.576   5.320  0.00  0.00     0.029 A 
HETATM   49  C   UNK N   1      27.866  18.218   4.318  0.00  0.00     0.176 A 
HETATM   50  N   UNK N   1      29.121  17.821   4.932  0.00  0.00    -0.368 N 
HETATM   51  C   UNK N   1      29.278  17.748   6.336  0.00  0.00     0.148 A 
HETATM   52  H   UNK N   1      29.886  17.596   4.354  0.00  0.00     0.161 HD
HETATM   53  C   UNK N   1      28.214  18.087   7.160  0.00  0.00     0.129 A 
HETATM   54  N   UNK N   1      30.454  17.337   6.881  0.00  0.00    -0.175 N 
HETATM   55  C   UNK N   1      28.375  17.991   8.543  0.00  0.00     0.186 A 
HETATM   56  N   UNK N   1      26.991  18.514   6.596  0.00  0.00    -0.353 N 
HETATM   57  N   UNK N   1      29.564  17.574   9.053  0.00  0.00    -0.168 N 
HETATM   58  C   UNK N   1      30.600  17.253   8.231  0.00  0.00     0.679 A 
ATOM     59  HN  UNK N   1      29.681  17.504  10.063  1.00  0.00     0.186 HD
HETATM   60  N   UNK N   1      31.710  16.866   8.729  0.00  0.00    -0.234 N 
HETATM   61  H   UNK N   1      32.482  16.689   8.144  0.00  0.00     0.174 HD
ATOM     62  HN  UNK N   1      31.799  16.738   9.737  1.00  0.00     0.174 HD
ATOM     63  HN  UNK N   1      26.234  18.785   7.224  1.00  0.00     0.166 HD
HETATM   64  H   UNK N   1      31.207  17.100   6.292  0.00  0.00     0.186 HD
BRANCH  55  65
HETATM   65  O   UNK N   1      27.362  18.299   9.372  0.00  0.00    -0.344 OA
HETATM   66  H   UNK N   1      27.471  18.945  10.042  0.00  0.00     0.219 HD
ENDBRANCH  55  65
ENDBRANCH  47  48
ENDBRANCH  46  47
ENDBRANCH  42  46
ENDBRANCH  41  42
ENDBRANCH  37  41
ENDBRANCH  36  37
ENDBRANCH   2  36
TORSDOF 21
ENDMDL
MODEL 2
REMARK VINA RESULT:      -7.5      2.814      5.208
REMARK  21 active torsions:
REMARK  status: ('A' for Active; 'I' for Inactive)
REMARK    1  A    between atoms: C_6  and  C_2 
REMARK    2  A    between atoms: O_45  and  C_2 
REMARK    3  A    between atoms: C_7  and  C_3 
REMARK    4  A    between atoms: O_46  and  C_3 
REMARK    5  A    between atoms: C_10  and  O_34 
REMARK    6  A    between atoms: C_11  and  O_35 
REMARK    7  A    between atoms: N_18  and  C_12 
REMARK    8  A    between atoms: O_36  and  C_15 
REMARK    9  A    between atoms: C_16  and  N_33 
REMARK       I    between atoms: N_19  and  C_17 
REMARK   10  A    between atoms: P_51  and  O_37 
REMARK   11  A    between atoms: P_52  and  O_39 
REMARK   12  A    between atoms: P_53  and  O_41 
REMARK   13  A    between atoms: P_54  and  O_43 
REMARK   14  A    between atoms: P_51  and  O_45 
REMARK   15  A    between atoms: P_52  and  O_46 
REMARK   16  A    between atoms: P_51  and  O_48 
REMARK   17  A    between atoms: P_53  and  O_48 
REMARK   18  A    between atoms: P_52  and  O_49 
REMARK   19  A    between atoms: P_54  and  O_49 
REMARK   20  A    between atoms: P_53  and  O_50 
REMARK   21  A    between atoms: P_54  and  O_50 
ROOT
HETATM    1  O   UNK N   1      22.065  12.887   4.466  0.00  0.00    -0.631 OA
HETATM    2  P   UNK N   1      22.942  13.559   3.385  0.00  0.00     0.410 P 
ENDROOT
BRANCH   2   3
HETATM    3  O   UNK N   1      22.721  12.582   1.969  0.00  0.00    -0.307 OA
HETATM    4  H   UNK N   1      22.212  11.864   1.563  0.00  0.00     0.222 HD
ENDBRANCH   2   3
BRANCH   2   5
HETATM    5  O   UNK N   1      22.457  15.216   3.051  0.00  0.00    -0.195 OA
BRANCH   5   6
HETATM    6  P   UNK N   1      20.984  15.293   2.110  0.00  0.00     0.401 P 
HETATM    7  O   UNK N   1      21.395  15.198   0.612  0.00  0.00    -0.631 OA
BRANCH   6   8
HETATM    8  O   UNK N   1      20.051  13.865   2.423  0.00  0.00    -0.307 OA
HETATM    9  H   UNK N   1      20.255  13.302   3.186  0.00  0.00     0.222 HD
ENDBRANCH   6   8
BRANCH   6  10
HETATM   10  O   UNK N   1      20.002  16.718   2.384  0.00  0.00    -0.294 OA
BRANCH  10  11
HETATM   11  C   UNK N   1      20.416  17.683   1.463  0.00  0.00     0.215 C 
BRANCH  11  12
HETATM   12  C   UNK N   1      19.903  19.089   1.815  0.00  0.00     0.180 C 
HETATM   13  C   UNK N   1      20.853  20.213   1.368  0.00  0.00     0.182 C 
HETATM   14  C   UNK N   1      21.201  20.905   2.659  0.00  0.00     0.198 C 
HETATM   15  C   UNK N   1      20.807  19.906   3.737  0.00  0.00     0.262 C 
HETATM   16  O   UNK N   1      19.746  19.141   3.218  0.00  0.00    -0.353 OA
BRANCH  13  17
HETATM   17  O   UNK N   1      20.202  21.125   0.527  0.00  0.00    -0.390 OA
HETATM   18  H   UNK N   1      20.705  21.608  -0.147  0.00  0.00     0.210 HD
ENDBRANCH  13  17
BRANCH  14  19
HETATM   19  O   UNK N   1      22.535  21.323   2.703  0.00  0.00    -0.388 OA
HETATM   20  H   UNK N   1      23.299  21.362   2.107  0.00  0.00     0.210 HD
ENDBRANCH  14  19
BRANCH  15  21
HETATM   21  N   UNK N   1      21.899  19.054   4.224  0.00  0.00    -0.297 N 
HETATM   22  C   UNK N   1      23.176  18.950   3.765  0.00  0.00     0.188 A 
HETATM   23  N   UNK N   1      23.856  17.959   4.411  0.00  0.00    -0.346 N 
HETATM   24  C   UNK N   1      22.954  17.439   5.266  0.00  0.00     0.122 A 
ATOM     25  HN  UNK N   1      24.827  17.678   4.278  1.00  0.00     0.167 HD
HETATM   26  C   UNK N   1      23.065  16.373   6.146  0.00  0.00     0.131 A 
HETATM   27  C   UNK N   1      21.788  18.100   5.154  0.00  0.00     0.142 A 
HETATM   28  N   UNK N   1      21.963  16.029   6.877  0.00  0.00    -0.337 N 
HETATM   29  C   UNK N   1      20.781  16.717   6.742  0.00  0.00     0.183 A 
ATOM     30  HN  UNK N   1      22.018  15.249   7.532  1.00  0.00     0.168 HD
HETATM   31  N   UNK N   1      20.685  17.762   5.866  0.00  0.00    -0.336 N 
ATOM     32  HN  UNK N   1      19.809  18.273   5.751  1.00  0.00     0.168 HD
BRANCH  26  33
HETATM   33  N   UNK N   1      24.264  15.644   6.270  0.00  0.00    -0.383 N 
HETATM   34  H   UNK N   1      25.089  15.899   5.795  0.00  0.00     0.157 HD
HETATM   35  H   UNK N   1      24.278  14.851   6.853  0.00  0.00     0.157 HD
ENDBRANCH  26  33
ENDBRANCH  15  21
ENDBRANCH  11  12
ENDBRANCH  10  11
ENDBRANCH   6  10
ENDBRANCH   5   6
ENDBRANCH   2   5
BRANCH   2  36
HETATM   36  O   UNK N   1      24.586  13.440   3.935  0.00  0.00    -0.195 OA
BRANCH  36  37
HETATM   37  P   UNK N   1      25.518  14.374   2.806  0.00  0.00     0.410 P 
HETATM   38  O   UNK N   1      24.766  14.262   1.450  0.00  0.00    -0.631 OA
BRANCH  37  39
HETATM   39  O   UNK N   1      27.093  13.678   2.588  0.00  0.00    -0.307 OA
HETATM   40  H   UNK N   1      28.018  13.760   2.869  0.00  0.00     0.222 HD
ENDBRANCH  37  39
BRANCH  37  41
HETATM   41  O   UNK N   1      25.600  16.058   3.282  0.00  0.00    -0.195 OA
BRANCH  41  42
HETATM   42  P   UNK N   1      27.281  16.399   3.535  0.00  0.00     0.402 P 
HETATM   43  O   UNK N   1      26.571  17.781   3.603  0.00  0.00    -0.631 OA
BRANCH  42  44
HETATM   44  O   UNK N   1      26.736  15.474   4.900  0.00  0.00    -0.307 OA
HETATM   45  H   UNK N   1      26.763  14.507   4.972  0.00  0.00     0.222 HD
ENDBRANCH  42  44
BRANCH  42  46
HETATM   46  O   UNK N   1      27.974  17.155   4.942  0.00  0.00    -0.291 OA
BRANCH  46  47
HETATM   47  C   UNK N   1      29.342  17.269   4.640  0.00  0.00     0.234 C 
BRANCH  47  48
HETATM   48  C   UNK N   1      30.179  17.204   5.886  0.00  0.00     0.029 A 
HETATM   49  C   UNK N   1      29.496  16.997   7.223  0.00  0.00     0.176 A 
HETATM   50  N   UNK N   1      30.420  16.924   8.342  0.00  0.00    -0.368 N 
HETATM   51  C   UNK N   1      31.816  17.076   8.173  0.00  0.00     0.148 A 
HETATM   52  H   UNK N   1      30.063  16.765   9.247  0.00  0.00     0.161 HD
HETATM   53  C   UNK N   1      32.331  17.275   6.899  0.00  0.00     0.129 A 
HETATM   54  N   UNK N   1      32.651  17.041   9.245  0.00  0.00    -0.175 N 
HETATM   55  C   UNK N   1      33.708  17.445   6.748  0.00  0.00     0.186 A 
HETATM   56  N   UNK N   1      31.464  17.313   5.784  0.00  0.00    -0.353 N 
HETATM   57  N   UNK N   1      34.513  17.405   7.843  0.00  0.00    -0.168 N 
HETATM   58  C   UNK N   1      33.992  17.201   9.084  0.00  0.00     0.679 A 
ATOM     59  HN  UNK N   1      35.519  17.529   7.732  1.00  0.00     0.186 HD
HETATM   60  N   UNK N   1      34.766  17.165  10.099  0.00  0.00    -0.234 N 
HETATM   61  H   UNK N   1      34.404  16.958  10.991  0.00  0.00     0.174 HD
ATOM     62  HN  UNK N   1      35.762  17.352   9.987  1.00  0.00     0.174 HD
ATOM     63  HN  UNK N   1      31.870  17.432   4.856  1.00  0.00     0.166 HD
HETATM   64  H   UNK N   1      32.281  16.896  10.146  0.00  0.00     0.186 HD
BRANCH  55  65
HETATM   65  O   UNK N   1      34.241  17.653   5.532  0.00  0.00    -0.344 OA
HETATM   66  H   UNK N   1      34.327  16.949   4.919  0.00  0.00     0.219 HD
ENDBRANCH  55  65
ENDBRANCH  47  48
ENDBRANCH  46  47
ENDBRANCH  42  46
ENDBRANCH  41  42
ENDBRANCH  37  41
ENDBRANCH  36  37
ENDBRANCH   2  36
TORSDOF 21
ENDMDL
MODEL 3
REMARK VINA RESULT:      -7.4      2.946      4.392
REMARK  21 active torsions:
REMARK  status: ('A' for Active; 'I' for Inactive)
REMARK    1  A    between atoms: C_6  and  C_2 
REMARK    2  A    between atoms: O_45  and  C_2 
REMARK    3  A    between atoms: C_7  and  C_3 
REMARK    4  A    between atoms: O_46  and  C_3 
REMARK    5  A    between atoms: C_10  and  O_34 
REMARK    6  A    between atoms: C_11  and  O_35 
REMARK    7  A    between atoms: N_18  and  C_12 
REMARK    8  A    between atoms: O_36  and  C_15 
REMARK    9  A    between atoms: C_16  and  N_33 
REMARK       I    between atoms: N_19  and  C_17 
REMARK   10  A    between atoms: P_51  and  O_37 
REMARK   11  A    between atoms: P_52  and  O_39 
REMARK   12  A    between atoms: P_53  and  O_41 
REMARK   13  A    between atoms: P_54  and  O_43 
REMARK   14  A    between atoms: P_51  and  O_45 
REMARK   15  A    between atoms: P_52  and  O_46 
REMARK   16  A    between atoms: P_51  and  O_48 
REMARK   17  A    between atoms: P_53  and  O_48 
REMARK   18  A    between atoms: P_52  and  O_49 
REMARK   19  A    between atoms: P_54  and  O_49 
REMARK   20  A    between atoms: P_53  and  O_50 
REMARK   21  A    between atoms: P_54  and  O_50 
ROOT
HETATM    1  O   UNK N   1      21.540  15.472   5.855  0.00  0.00    -0.631 OA
HETATM    2  P   UNK N   1      20.314  16.373   5.586  0.00  0.00     0.410 P 
ENDROOT
BRANCH   2   3
HETATM    3  O   UNK N   1      19.763  15.908   4.008  0.00  0.00    -0.307 OA
HETATM    4  H   UNK N   1      19.030  15.936   3.375  0.00  0.00     0.222 HD
ENDBRANCH   2   3
BRANCH   2   5
HETATM    5  O   UNK N   1      19.027  16.140   6.762  0.00  0.00    -0.195 OA
BRANCH   5   6
HETATM    6  P   UNK N   1      19.644  15.632   8.319  0.00  0.00     0.401 P 
HETATM    7  O   UNK N   1      20.737  16.659   8.733  0.00  0.00    -0.631 OA
BRANCH   6   8
HETATM    8  O   UNK N   1      18.382  15.802   9.497  0.00  0.00    -0.307 OA
HETATM    9  H   UNK N   1      17.486  15.487   9.306  0.00  0.00     0.222 HD
ENDBRANCH   6   8
BRANCH   6  10
HETATM   10  O   UNK N   1      20.288  14.003   8.367  0.00  0.00    -0.294 OA
BRANCH  10  11
HETATM   11  C   UNK N   1      21.296  13.990   9.333  0.00  0.00     0.215 C 
BRANCH  11  12
HETATM   12  C   UNK N   1      21.642  12.567   9.803  0.00  0.00     0.180 C 
HETATM   13  C   UNK N   1      22.668  12.537  10.948  0.00  0.00     0.182 C 
HETATM   14  C   UNK N   1      23.810  11.745  10.367  0.00  0.00     0.198 C 
HETATM   15  C   UNK N   1      23.555  11.766   8.867  0.00  0.00     0.262 C 
HETATM   16  O   UNK N   1      22.162  11.872   8.690  0.00  0.00    -0.353 OA
BRANCH  13  17
HETATM   17  O   UNK N   1      22.166  11.855  12.063  0.00  0.00    -0.390 OA
HETATM   18  H   UNK N   1      21.341  12.150  12.481  0.00  0.00     0.210 HD
ENDBRANCH  13  17
BRANCH  14  19
HETATM   19  O   UNK N   1      25.059  12.235  10.760  0.00  0.00    -0.388 OA
HETATM   20  H   UNK N   1      25.456  13.085  11.007  0.00  0.00     0.210 HD
ENDBRANCH  14  19
BRANCH  15  21
HETATM   21  N   UNK N   1      24.274  12.813   8.130  0.00  0.00    -0.297 N 
HETATM   22  C   UNK N   1      25.149  13.744   8.597  0.00  0.00     0.188 A 
HETATM   23  N   UNK N   1      25.517  14.617   7.614  0.00  0.00    -0.346 N 
HETATM   24  C   UNK N   1      24.823  14.212   6.533  0.00  0.00     0.122 A 
ATOM     25  HN  UNK N   1      26.168  15.398   7.683  1.00  0.00     0.167 HD
HETATM   26  C   UNK N   1      24.756  14.752   5.258  0.00  0.00     0.131 A 
HETATM   27  C   UNK N   1      24.086  13.131   6.845  0.00  0.00     0.142 A 
HETATM   28  N   UNK N   1      23.927  14.152   4.351  0.00  0.00    -0.337 N 
HETATM   29  C   UNK N   1      23.181  13.051   4.694  0.00  0.00     0.183 A 
ATOM     30  HN  UNK N   1      23.861  14.529   3.405  1.00  0.00     0.168 HD
HETATM   31  N   UNK N   1      23.252  12.534   5.959  0.00  0.00    -0.336 N 
ATOM     32  HN  UNK N   1      22.694  11.722   6.226  1.00  0.00     0.168 HD
BRANCH  26  33
HETATM   33  N   UNK N   1      25.496  15.897   4.905  0.00  0.00    -0.383 N 
HETATM   34  H   UNK N   1      26.327  16.153   5.368  0.00  0.00     0.157 HD
HETATM   35  H   UNK N   1      25.169  16.464   4.169  0.00  0.00     0.157 HD
ENDBRANCH  26  33
ENDBRANCH  15  21
ENDBRANCH  11  12
ENDBRANCH  10  11
ENDBRANCH   6  10
ENDBRANCH   5   6
ENDBRANCH   2   5
BRANCH   2  36
HETATM   36  O   UNK N   1      20.898  18.008   5.550  0.00  0.00    -0.195 OA
BRANCH  36  37
HETATM   37  P   UNK N   1      21.669  18.189   4.004  0.00  0.00     0.410 P 
HETATM   38  O   UNK N   1      20.514  18.366   2.980  0.00  0.00    -0.631 OA
BRANCH  37  39
HETATM   39  O   UNK N   1      22.529  16.744   3.575  0.00  0.00    -0.307 OA
HETATM   40  H   UNK N   1      22.549  15.785   3.724  0.00  0.00     0.222 HD
ENDBRANCH  37  39
BRANCH  37  41
HETATM   41  O   UNK N   1      22.698  19.607   3.964  0.00  0.00    -0.195 OA
BRANCH  41  42
HETATM   42  P   UNK N   1      24.326  19.011   3.941  0.00  0.00     0.402 P 
HETATM   43  O   UNK N   1      24.460  20.558   4.041  0.00  0.00    -0.631 OA
BRANCH  42  44
HETATM   44  O   UNK N   1      23.603  18.462   5.421  0.00  0.00    -0.307 OA
HETATM   45  H   UNK N   1      22.652  18.341   5.572  0.00  0.00     0.222 HD
ENDBRANCH  42  44
BRANCH  42  46
HETATM   46  O   UNK N   1      25.522  19.247   5.184  0.00  0.00    -0.291 OA
BRANCH  46  47
HETATM   47  C   UNK N   1      26.743  19.302   4.489  0.00  0.00     0.234 C 
BRANCH  47  48
HETATM   48  C   UNK N   1      27.836  18.616   5.259  0.00  0.00     0.029 A 
HETATM   49  C   UNK N   1      29.019  18.041   4.506  0.00  0.00     0.176 A 
HETATM   50  N   UNK N   1      30.016  17.431   5.369  0.00  0.00    -0.368 N 
HETATM   51  C   UNK N   1      29.851  17.361   6.772  0.00  0.00     0.148 A 
HETATM   52  H   UNK N   1      30.831  17.054   4.965  0.00  0.00     0.161 HD
HETATM   53  C   UNK N   1      28.717  17.912   7.354  0.00  0.00     0.129 A 
HETATM   54  N   UNK N   1      30.784  16.751   7.549  0.00  0.00    -0.175 N 
HETATM   55  C   UNK N   1      28.557  17.818   8.737  0.00  0.00     0.186 A 
HETATM   56  N   UNK N   1      27.746  18.546   6.548  0.00  0.00    -0.353 N 
HETATM   57  N   UNK N   1      29.509  17.198   9.483  0.00  0.00    -0.168 N 
HETATM   58  C   UNK N   1      30.619  16.671   8.897  0.00  0.00     0.679 A 
ATOM     59  HN  UNK N   1      29.392  17.130  10.494  1.00  0.00     0.186 HD
HETATM   60  N   UNK N   1      31.504  16.095   9.615  0.00  0.00    -0.234 N 
HETATM   61  H   UNK N   1      32.336  15.764   9.207  0.00  0.00     0.174 HD
ATOM     62  HN  UNK N   1      31.348  15.976  10.617  1.00  0.00     0.174 HD
ATOM     63  HN  UNK N   1      26.937  18.968   7.003  1.00  0.00     0.166 HD
HETATM   64  H   UNK N   1      31.589  16.364   7.132  0.00  0.00     0.186 HD
BRANCH  55  65
HETATM   65  O   UNK N   1      27.465  18.328   9.334  0.00  0.00    -0.344 OA
HETATM   66  H   UNK N   1      26.838  17.766   9.747  0.00  0.00     0.219 HD
ENDBRANCH  55  65
ENDBRANCH  47  48
ENDBRANCH  46  47
ENDBRANCH  42  46
ENDBRANCH  41  42
ENDBRANCH  37  41
ENDBRANCH  36  37
ENDBRANCH   2  36
TORSDOF 21
ENDMDL
MODEL 4
REMARK VINA RESULT:      -7.2      9.507     13.610
REMARK  21 active torsions:
REMARK  status: ('A' for Active; 'I' for Inactive)
REMARK    1  A    between atoms: C_6  and  C_2 
REMARK    2  A    between atoms: O_45  and  C_2 
REMARK    3  A    between atoms: C_7  and  C_3 
REMARK    4  A    between atoms: O_46  and  C_3 
REMARK    5  A    between atoms: C_10  and  O_34 
REMARK    6  A    between atoms: C_11  and  O_35 
REMARK    7  A    between atoms: N_18  and  C_12 
REMARK    8  A    between atoms: O_36  and  C_15 
REMARK    9  A    between atoms: C_16  and  N_33 
REMARK       I    between atoms: N_19  and  C_17 
REMARK   10  A    between atoms: P_51  and  O_37 
REMARK   11  A    between atoms: P_52  and  O_39 
REMARK   12  A    between atoms: P_53  and  O_41 
REMARK   13  A    between atoms: P_54  and  O_43 
REMARK   14  A    between atoms: P_51  and  O_45 
REMARK   15  A    between atoms: P_52  and  O_46 
REMARK   16  A    between atoms: P_51  and  O_48 
REMARK   17  A    between atoms: P_53  and  O_48 
REMARK   18  A    between atoms: P_52  and  O_49 
REMARK   19  A    between atoms: P_54  and  O_49 
REMARK   20  A    between atoms: P_53  and  O_50 
REMARK   21  A    between atoms: P_54  and  O_50 
ROOT
HETATM    1  O   UNK N   1      37.721  12.119   8.420  0.00  0.00    -0.631 OA
HETATM    2  P   UNK N   1      36.319  12.708   8.143  0.00  0.00     0.410 P 
ENDROOT
BRANCH   2   3
HETATM    3  O   UNK N   1      36.091  12.516   6.434  0.00  0.00    -0.307 OA
HETATM    4  H   UNK N   1      36.134  11.904   5.684  0.00  0.00     0.222 HD
ENDBRANCH   2   3
BRANCH   2   5
HETATM    5  O   UNK N   1      35.044  11.867   9.015  0.00  0.00    -0.195 OA
BRANCH   5   6
HETATM    6  P   UNK N   1      33.451  12.313   8.442  0.00  0.00     0.401 P 
HETATM    7  O   UNK N   1      33.194  11.504   7.138  0.00  0.00    -0.631 OA
BRANCH   6   8
HETATM    8  O   UNK N   1      32.273  11.741   9.580  0.00  0.00    -0.307 OA
HETATM    9  H   UNK N   1      31.339  11.672   9.328  0.00  0.00     0.222 HD
ENDBRANCH   6   8
BRANCH   6  10
HETATM   10  O   UNK N   1      33.219  14.025   8.155  0.00  0.00    -0.294 OA
BRANCH  10  11
HETATM   11  C   UNK N   1      32.459  14.144   6.989  0.00  0.00     0.215 C 
BRANCH  11  12
HETATM   12  C   UNK N   1      33.196  14.920   5.884  0.00  0.00     0.180 C 
HETATM   13  C   UNK N   1      34.353  15.783   6.414  0.00  0.00     0.182 C 
HETATM   14  C   UNK N   1      33.961  17.178   6.000  0.00  0.00     0.198 C 
HETATM   15  C   UNK N   1      32.477  17.070   5.681  0.00  0.00     0.262 C 
HETATM   16  O   UNK N   1      32.246  15.750   5.249  0.00  0.00    -0.353 OA
BRANCH  13  17
HETATM   17  O   UNK N   1      35.562  15.450   5.791  0.00  0.00    -0.390 OA
HETATM   18  H   UNK N   1      36.178  16.150   5.521  0.00  0.00     0.210 HD
ENDBRANCH  13  17
BRANCH  14  19
HETATM   19  O   UNK N   1      34.288  18.136   6.964  0.00  0.00    -0.388 OA
HETATM   20  H   UNK N   1      33.833  18.679   7.626  0.00  0.00     0.210 HD
ENDBRANCH  14  19
BRANCH  15  21
HETATM   21  N   UNK N   1      31.577  17.442   6.780  0.00  0.00    -0.297 N 
HETATM   22  C   UNK N   1      31.862  17.629   8.097  0.00  0.00     0.188 A 
HETATM   23  N   UNK N   1      30.729  17.858   8.823  0.00  0.00    -0.346 N 
HETATM   24  C   UNK N   1      29.734  17.783   7.918  0.00  0.00     0.122 A 
ATOM     25  HN  UNK N   1      30.654  18.043   9.822  1.00  0.00     0.167 HD
HETATM   26  C   UNK N   1      28.361  17.882   8.087  0.00  0.00     0.131 A 
HETATM   27  C   UNK N   1      30.246  17.540   6.698  0.00  0.00     0.142 A 
HETATM   28  N   UNK N   1      27.568  17.725   6.984  0.00  0.00    -0.337 N 
HETATM   29  C   UNK N   1      28.114  17.474   5.749  0.00  0.00     0.183 A 
ATOM     30  HN  UNK N   1      26.555  17.795   7.081  1.00  0.00     0.168 HD
HETATM   31  N   UNK N   1      29.470  17.372   5.600  0.00  0.00    -0.336 N 
ATOM     32  HN  UNK N   1      29.884  17.176   4.688  1.00  0.00     0.168 HD
BRANCH  26  33
HETATM   33  N   UNK N   1      27.791  18.112   9.354  0.00  0.00    -0.383 N 
HETATM   34  H   UNK N   1      26.882  17.813   9.587  0.00  0.00     0.157 HD
HETATM   35  H   UNK N   1      28.321  18.590  10.032  0.00  0.00     0.157 HD
ENDBRANCH  26  33
ENDBRANCH  15  21
ENDBRANCH  11  12
ENDBRANCH  10  11
ENDBRANCH   6  10
ENDBRANCH   5   6
ENDBRANCH   2   5
BRANCH   2  36
HETATM   36  O   UNK N   1      36.402  14.396   8.543  0.00  0.00    -0.195 OA
BRANCH  36  37
HETATM   37  P   UNK N   1      37.132  14.462  10.118  0.00  0.00     0.410 P 
HETATM   38  O   UNK N   1      36.843  15.893  10.652  0.00  0.00    -0.631 OA
BRANCH  37  39
HETATM   39  O   UNK N   1      38.854  14.286  10.003  0.00  0.00    -0.307 OA
HETATM   40  H   UNK N   1      39.556  13.908   9.449  0.00  0.00     0.222 HD
ENDBRANCH  37  39
BRANCH  37  41
HETATM   41  O   UNK N   1      36.418  13.286  11.203  0.00  0.00    -0.195 OA
BRANCH  41  42
HETATM   42  P   UNK N   1      35.494  14.199  12.351  0.00  0.00     0.402 P 
HETATM   43  O   UNK N   1      34.718  12.863  12.176  0.00  0.00    -0.631 OA
BRANCH  42  44
HETATM   44  O   UNK N   1      37.011  13.818  13.105  0.00  0.00    -0.307 OA
HETATM   45  H   UNK N   1      37.507  14.402  13.701  0.00  0.00     0.222 HD
ENDBRANCH  42  44
BRANCH  42  46
HETATM   46  O   UNK N   1      35.120  13.718  13.982  0.00  0.00    -0.291 OA
BRANCH  46  47
HETATM   47  C   UNK N   1      35.066  12.315  13.930  0.00  0.00     0.234 C 
BRANCH  47  48
HETATM   48  C   UNK N   1      35.037  11.722  15.311  0.00  0.00     0.029 A 
HETATM   49  C   UNK N   1      34.818  10.231  15.468  0.00  0.00     0.176 A 
HETATM   50  N   UNK N   1      34.840   9.783  16.850  0.00  0.00    -0.368 N 
HETATM   51  C   UNK N   1      35.012  10.683  17.927  0.00  0.00     0.148 A 
HETATM   52  H   UNK N   1      34.732   8.823  17.043  0.00  0.00     0.161 HD
HETATM   53  C   UNK N   1      35.192  12.035  17.664  0.00  0.00     0.129 A 
HETATM   54  N   UNK N   1      34.991  10.239  19.211  0.00  0.00    -0.175 N 
HETATM   55  C   UNK N   1      35.340  12.916  18.737  0.00  0.00     0.186 A 
HETATM   56  N   UNK N   1      35.214  12.499  16.330  0.00  0.00    -0.353 N 
HETATM   57  N   UNK N   1      35.311  12.436  20.008  0.00  0.00    -0.168 N 
HETATM   58  C   UNK N   1      35.142  11.107  20.248  0.00  0.00     0.679 A 
ATOM     59  HN  UNK N   1      35.420  13.080  20.791  1.00  0.00     0.186 HD
HETATM   60  N   UNK N   1      35.120  10.676  21.449  0.00  0.00    -0.234 N 
HETATM   61  H   UNK N   1      35.059   9.710  21.629  0.00  0.00     0.174 HD
ATOM     62  HN  UNK N   1      35.167  11.334  22.227  1.00  0.00     0.174 HD
ATOM     63  HN  UNK N   1      35.376  13.492  16.163  1.00  0.00     0.166 HD
HETATM   64  H   UNK N   1      34.867   9.278  19.392  0.00  0.00     0.186 HD
BRANCH  55  65
HETATM   65  O   UNK N   1      35.502  14.233  18.521  0.00  0.00    -0.344 OA
HETATM   66  H   UNK N   1      36.214  14.549  17.999  0.00  0.00     0.219 HD
ENDBRANCH  55  65
ENDBRANCH  47  48
ENDBRANCH  46  47
ENDBRANCH  42  46
ENDBRANCH  41  42
ENDBRANCH  37  41
ENDBRANCH  36  37
ENDBRANCH   2  36
TORSDOF 21
ENDMDL
MODEL 5
REMARK VINA RESULT:      -7.2      2.582      5.239
REMARK  21 active torsions:
REMARK  status: ('A' for Active; 'I' for Inactive)
REMARK    1  A    between atoms: C_6  and  C_2 
REMARK    2  A    between atoms: O_45  and  C_2 
REMARK    3  A    between atoms: C_7  and  C_3 
REMARK    4  A    between atoms: O_46  and  C_3 
REMARK    5  A    between atoms: C_10  and  O_34 
REMARK    6  A    between atoms: C_11  and  O_35 
REMARK    7  A    between atoms: N_18  and  C_12 
REMARK    8  A    between atoms: O_36  and  C_15 
REMARK    9  A    between atoms: C_16  and  N_33 
REMARK       I    between atoms: N_19  and  C_17 
REMARK   10  A    between atoms: P_51  and  O_37 
REMARK   11  A    between atoms: P_52  and  O_39 
REMARK   12  A    between atoms: P_53  and  O_41 
REMARK   13  A    between atoms: P_54  and  O_43 
REMARK   14  A    between atoms: P_51  and  O_45 
REMARK   15  A    between atoms: P_52  and  O_46 
REMARK   16  A    between atoms: P_51  and  O_48 
REMARK   17  A    between atoms: P_53  and  O_48 
REMARK   18  A    between atoms: P_52  and  O_49 
REMARK   19  A    between atoms: P_54  and  O_49 
REMARK   20  A    between atoms: P_53  and  O_50 
REMARK   21  A    between atoms: P_54  and  O_50 
ROOT
HETATM    1  O   UNK N   1      22.706  13.790   4.451  0.00  0.00    -0.631 OA
HETATM    2  P   UNK N   1      22.226  14.226   3.048  0.00  0.00     0.410 P 
ENDROOT
BRANCH   2   3
HETATM    3  O   UNK N   1      22.131  12.753   2.137  0.00  0.00    -0.307 OA
HETATM    4  H   UNK N   1      21.701  12.293   1.401  0.00  0.00     0.222 HD
ENDBRANCH   2   3
BRANCH   2   5
HETATM    5  O   UNK N   1      20.653  15.011   3.082  0.00  0.00    -0.195 OA
BRANCH   5   6
HETATM    6  P   UNK N   1      19.959  15.163   1.482  0.00  0.00     0.401 P 
HETATM    7  O   UNK N   1      20.986  14.558   0.481  0.00  0.00    -0.631 OA
BRANCH   6   8
HETATM    8  O   UNK N   1      18.562  14.140   1.385  0.00  0.00    -0.307 OA
HETATM    9  H   UNK N   1      17.715  14.427   1.761  0.00  0.00     0.222 HD
ENDBRANCH   6   8
BRANCH   6  10
HETATM   10  O   UNK N   1      19.536  16.796   1.010  0.00  0.00    -0.294 OA
BRANCH  10  11
HETATM   11  C   UNK N   1      20.547  17.634   1.485  0.00  0.00     0.215 C 
BRANCH  11  12
HETATM   12  C   UNK N   1      20.017  19.016   1.904  0.00  0.00     0.180 C 
HETATM   13  C   UNK N   1      20.901  20.179   1.423  0.00  0.00     0.182 C 
HETATM   14  C   UNK N   1      21.313  20.852   2.705  0.00  0.00     0.198 C 
HETATM   15  C   UNK N   1      21.023  19.817   3.782  0.00  0.00     0.262 C 
HETATM   16  O   UNK N   1      19.952  19.031   3.315  0.00  0.00    -0.353 OA
BRANCH  13  17
HETATM   17  O   UNK N   1      20.167  21.088   0.650  0.00  0.00    -0.390 OA
HETATM   18  H   UNK N   1      19.274  21.349   0.925  0.00  0.00     0.210 HD
ENDBRANCH  13  17
BRANCH  14  19
HETATM   19  O   UNK N   1      22.634  21.311   2.670  0.00  0.00    -0.388 OA
HETATM   20  H   UNK N   1      23.121  22.127   2.863  0.00  0.00     0.210 HD
ENDBRANCH  14  19
BRANCH  15  21
HETATM   21  N   UNK N   1      22.170  18.989   4.173  0.00  0.00    -0.297 N 
HETATM   22  C   UNK N   1      23.416  18.938   3.629  0.00  0.00     0.188 A 
HETATM   23  N   UNK N   1      24.168  17.954   4.204  0.00  0.00    -0.346 N 
HETATM   24  C   UNK N   1      23.341  17.384   5.102  0.00  0.00     0.122 A 
ATOM     25  HN  UNK N   1      25.136  17.707   4.000  1.00  0.00     0.167 HD
HETATM   26  C   UNK N   1      23.542  16.301   5.944  0.00  0.00     0.131 A 
HETATM   27  C   UNK N   1      22.151  18.010   5.083  0.00  0.00     0.142 A 
HETATM   28  N   UNK N   1      22.501  15.904   6.736  0.00  0.00    -0.337 N 
HETATM   29  C   UNK N   1      21.293  16.557   6.697  0.00  0.00     0.183 A 
ATOM     30  HN  UNK N   1      22.623  15.111   7.366  1.00  0.00     0.168 HD
HETATM   31  N   UNK N   1      21.108  17.620   5.856  0.00  0.00    -0.336 N 
ATOM     32  HN  UNK N   1      20.211  18.104   5.813  1.00  0.00     0.168 HD
BRANCH  26  33
HETATM   33  N   UNK N   1      24.769  15.609   5.971  0.00  0.00    -0.383 N 
HETATM   34  H   UNK N   1      25.468  15.798   6.637  0.00  0.00     0.157 HD
HETATM   35  H   UNK N   1      24.933  14.910   5.296  0.00  0.00     0.157 HD
ENDBRANCH  26  33
ENDBRANCH  15  21
ENDBRANCH  11  12
ENDBRANCH  10  11
ENDBRANCH   6  10
ENDBRANCH   5   6
ENDBRANCH   2   5
BRANCH   2  36
HETATM   36  O   UNK N   1      23.470  15.248   2.394  0.00  0.00    -0.195 OA
BRANCH  36  37
HETATM   37  P   UNK N   1      24.656  14.164   1.734  0.00  0.00     0.410 P 
HETATM   38  O   UNK N   1      24.032  13.610   0.423  0.00  0.00    -0.631 OA
BRANCH  37  39
HETATM   39  O   UNK N   1      24.917  12.819   2.797  0.00  0.00    -0.307 OA
HETATM   40  H   UNK N   1      24.453  12.181   3.363  0.00  0.00     0.222 HD
ENDBRANCH  37  39
BRANCH  37  41
HETATM   41  O   UNK N   1      26.146  15.004   1.353  0.00  0.00    -0.195 OA
BRANCH  41  42
HETATM   42  P   UNK N   1      27.070  15.020   2.819  0.00  0.00     0.402 P 
HETATM   43  O   UNK N   1      28.121  14.905   1.678  0.00  0.00    -0.631 OA
BRANCH  42  44
HETATM   44  O   UNK N   1      26.321  16.579   2.672  0.00  0.00    -0.307 OA
HETATM   45  H   UNK N   1      26.552  17.256   2.016  0.00  0.00     0.222 HD
ENDBRANCH  42  44
BRANCH  42  46
HETATM   46  O   UNK N   1      28.287  16.188   3.253  0.00  0.00    -0.291 OA
BRANCH  46  47
HETATM   47  C   UNK N   1      28.594  15.893   4.592  0.00  0.00     0.234 C 
BRANCH  47  48
HETATM   48  C   UNK N   1      28.147  16.999   5.506  0.00  0.00     0.029 A 
HETATM   49  C   UNK N   1      28.302  16.826   7.004  0.00  0.00     0.176 A 
HETATM   50  N   UNK N   1      27.859  17.977   7.771  0.00  0.00    -0.368 N 
HETATM   51  C   UNK N   1      27.302  19.121   7.152  0.00  0.00     0.148 A 
HETATM   52  H   UNK N   1      27.948  17.961   8.752  0.00  0.00     0.161 HD
HETATM   53  C   UNK N   1      27.195  19.164   5.769  0.00  0.00     0.129 A 
HETATM   54  N   UNK N   1      26.861  20.167   7.900  0.00  0.00    -0.175 N 
HETATM   55  C   UNK N   1      26.624  20.289   5.172  0.00  0.00     0.186 A 
HETATM   56  N   UNK N   1      27.652  18.077   4.990  0.00  0.00    -0.353 N 
HETATM   57  N   UNK N   1      26.193  21.316   5.951  0.00  0.00    -0.168 N 
HETATM   58  C   UNK N   1      26.312  21.261   7.306  0.00  0.00     0.679 A 
ATOM     59  HN  UNK N   1      25.776  22.138   5.514  1.00  0.00     0.186 HD
HETATM   60  N   UNK N   1      25.902  22.236   8.020  0.00  0.00    -0.234 N 
HETATM   61  H   UNK N   1      26.040  22.230   8.995  0.00  0.00     0.174 HD
ATOM     62  HN  UNK N   1      25.431  23.027   7.580  1.00  0.00     0.174 HD
ATOM     63  HN  UNK N   1      27.589  18.146   3.975  1.00  0.00     0.166 HD
HETATM   64  H   UNK N   1      26.942  20.133   8.881  0.00  0.00     0.186 HD
BRANCH  55  65
HETATM   65  O   UNK N   1      26.492  20.361   3.836  0.00  0.00    -0.344 OA
HETATM   66  H   UNK N   1      27.218  20.177   3.272  0.00  0.00     0.219 HD
ENDBRANCH  55  65
ENDBRANCH  47  48
ENDBRANCH  46  47
ENDBRANCH  42  46
ENDBRANCH  41  42
ENDBRANCH  37  41
ENDBRANCH  36  37
ENDBRANCH   2  36
TORSDOF 21
ENDMDL
MODEL 6
REMARK VINA RESULT:      -7.1      6.873     10.614
REMARK  21 active torsions:
REMARK  status: ('A' for Active; 'I' for Inactive)
REMARK    1  A    between atoms: C_6  and  C_2 
REMARK    2  A    between atoms: O_45  and  C_2 
REMARK    3  A    between atoms: C_7  and  C_3 
REMARK    4  A    between atoms: O_46  and  C_3 
REMARK    5  A    between atoms: C_10  and  O_34 
REMARK    6  A    between atoms: C_11  and  O_35 
REMARK    7  A    between atoms: N_18  and  C_12 
REMARK    8  A    between atoms: O_36  and  C_15 
REMARK    9  A    between atoms: C_16  and  N_33 
REMARK       I    between atoms: N_19  and  C_17 
REMARK   10  A    between atoms: P_51  and  O_37 
REMARK   11  A    between atoms: P_52  and  O_39 
REMARK   12  A    between atoms: P_53  and  O_41 
REMARK   13  A    between atoms: P_54  and  O_43 
REMARK   14  A    between atoms: P_51  and  O_45 
REMARK   15  A    between atoms: P_52  and  O_46 
REMARK   16  A    between atoms: P_51  and  O_48 
REMARK   17  A    between atoms: P_53  and  O_48 
REMARK   18  A    between atoms: P_52  and  O_49 
REMARK   19  A    between atoms: P_54  and  O_49 
REMARK   20  A    between atoms: P_53  and  O_50 
REMARK   21  A    between atoms: P_54  and  O_50 
ROOT
HETATM    1  O   UNK N   1      33.468  13.539   5.879  0.00  0.00    -0.631 OA
HETATM    2  P   UNK N   1      32.503  14.736   6.033  0.00  0.00     0.410 P 
ENDROOT
BRANCH   2   3
HETATM    3  O   UNK N   1      32.823  15.738   4.653  0.00  0.00    -0.307 OA
HETATM    4  H   UNK N   1      33.481  16.281   4.193  0.00  0.00     0.222 HD
ENDBRANCH   2   3
BRANCH   2   5
HETATM    5  O   UNK N   1      30.813  14.250   6.040  0.00  0.00    -0.195 OA
BRANCH   5   6
HETATM    6  P   UNK N   1      30.359  13.427   4.564  0.00  0.00     0.401 P 
HETATM    7  O   UNK N   1      31.524  13.629   3.553  0.00  0.00    -0.631 OA
BRANCH   6   8
HETATM    8  O   UNK N   1      30.308  11.721   4.874  0.00  0.00    -0.307 OA
HETATM    9  H   UNK N   1      30.229  11.389   5.781  0.00  0.00     0.222 HD
ENDBRANCH   6   8
BRANCH   6  10
HETATM   10  O   UNK N   1      28.842  13.950   3.859  0.00  0.00    -0.294 OA
BRANCH  10  11
HETATM   11  C   UNK N   1      27.959  14.180   4.916  0.00  0.00     0.215 C 
BRANCH  11  12
HETATM   12  C   UNK N   1      26.804  15.117   4.524  0.00  0.00     0.180 C 
HETATM   13  C   UNK N   1      27.130  16.013   3.317  0.00  0.00     0.182 C 
HETATM   14  C   UNK N   1      26.990  17.406   3.873  0.00  0.00     0.198 C 
HETATM   15  C   UNK N   1      27.034  17.212   5.382  0.00  0.00     0.262 C 
HETATM   16  O   UNK N   1      26.522  15.928   5.646  0.00  0.00    -0.353 OA
BRANCH  13  17
HETATM   17  O   UNK N   1      26.195  15.840   2.289  0.00  0.00    -0.390 OA
HETATM   18  H   UNK N   1      25.691  16.600   1.959  0.00  0.00     0.210 HD
ENDBRANCH  13  17
BRANCH  14  19
HETATM   19  O   UNK N   1      27.949  18.287   3.364  0.00  0.00    -0.388 OA
HETATM   20  H   UNK N   1      28.362  19.128   3.614  0.00  0.00     0.210 HD
ENDBRANCH  14  19
BRANCH  15  21
HETATM   21  N   UNK N   1      28.356  17.402   5.994  0.00  0.00    -0.297 N 
HETATM   22  C   UNK N   1      29.583  17.381   5.408  0.00  0.00     0.188 A 
HETATM   23  N   UNK N   1      30.578  17.485   6.336  0.00  0.00    -0.346 N 
HETATM   24  C   UNK N   1      29.929  17.546   7.515  0.00  0.00     0.122 A 
ATOM     25  HN  UNK N   1      31.584  17.511   6.174  1.00  0.00     0.167 HD
HETATM   26  C   UNK N   1      30.424  17.608   8.808  0.00  0.00     0.131 A 
HETATM   27  C   UNK N   1      28.601  17.502   7.304  0.00  0.00     0.142 A 
HETATM   28  N   UNK N   1      29.525  17.621   9.838  0.00  0.00    -0.337 N 
HETATM   29  C   UNK N   1      28.173  17.571   9.598  0.00  0.00     0.183 A 
ATOM     30  HN  UNK N   1      29.863  17.667  10.799  1.00  0.00     0.168 HD
HETATM   31  N   UNK N   1      27.700  17.503   8.317  0.00  0.00    -0.336 N 
ATOM     32  HN  UNK N   1      26.698  17.455   8.129  1.00  0.00     0.168 HD
BRANCH  26  33
HETATM   33  N   UNK N   1      31.809  17.632   9.064  0.00  0.00    -0.383 N 
HETATM   34  H   UNK N   1      32.464  17.951   8.402  0.00  0.00     0.157 HD
HETATM   35  H   UNK N   1      32.134  17.316   9.939  0.00  0.00     0.157 HD
ENDBRANCH  26  33
ENDBRANCH  15  21
ENDBRANCH  11  12
ENDBRANCH  10  11
ENDBRANCH   6  10
ENDBRANCH   5   6
ENDBRANCH   2   5
BRANCH   2  36
HETATM   36  O   UNK N   1      32.967  15.565   7.487  0.00  0.00    -0.195 OA
BRANCH  36  37
HETATM   37  P   UNK N   1      34.206  16.683   7.005  0.00  0.00     0.410 P 
HETATM   38  O   UNK N   1      33.472  17.805   6.218  0.00  0.00    -0.631 OA
BRANCH  37  39
HETATM   39  O   UNK N   1      35.324  15.927   5.916  0.00  0.00    -0.307 OA
HETATM   40  H   UNK N   1      36.080  15.318   5.885  0.00  0.00     0.222 HD
ENDBRANCH  37  39
BRANCH  37  41
HETATM   41  O   UNK N   1      35.009  17.385   8.395  0.00  0.00    -0.195 OA
BRANCH  41  42
HETATM   42  P   UNK N   1      35.101  16.121   9.578  0.00  0.00     0.402 P 
HETATM   43  O   UNK N   1      36.135  15.730   8.484  0.00  0.00    -0.631 OA
BRANCH  42  44
HETATM   44  O   UNK N   1      35.679  17.572  10.336  0.00  0.00    -0.307 OA
HETATM   45  H   UNK N   1      36.598  17.883  10.330  0.00  0.00     0.222 HD
ENDBRANCH  42  44
BRANCH  42  46
HETATM   46  O   UNK N   1      36.516  15.665  10.485  0.00  0.00    -0.291 OA
BRANCH  46  47
HETATM   47  C   UNK N   1      36.489  14.260  10.493  0.00  0.00     0.234 C 
BRANCH  47  48
HETATM   48  C   UNK N   1      36.020  13.734  11.820  0.00  0.00     0.029 A 
HETATM   49  C   UNK N   1      34.941  12.670  11.851  0.00  0.00     0.176 A 
HETATM   50  N   UNK N   1      34.599  12.229  13.192  0.00  0.00    -0.368 N 
HETATM   51  C   UNK N   1      35.205  12.787  14.342  0.00  0.00     0.148 A 
HETATM   52  H   UNK N   1      33.925  11.520  13.305  0.00  0.00     0.161 HD
HETATM   53  C   UNK N   1      36.175  13.768  14.194  0.00  0.00     0.129 A 
HETATM   54  N   UNK N   1      34.837  12.379  15.585  0.00  0.00    -0.175 N 
HETATM   55  C   UNK N   1      36.751  14.326  15.337  0.00  0.00     0.186 A 
HETATM   56  N   UNK N   1      36.559  14.194  12.902  0.00  0.00    -0.353 N 
HETATM   57  N   UNK N   1      36.356  13.895  16.564  0.00  0.00    -0.168 N 
HETATM   58  C   UNK N   1      35.410  12.926  16.692  0.00  0.00     0.679 A 
ATOM     59  HN  UNK N   1      36.777  14.303  17.399  1.00  0.00     0.186 HD
HETATM   60  N   UNK N   1      35.054  12.534  17.854  0.00  0.00    -0.234 N 
HETATM   61  H   UNK N   1      34.414  11.792  17.953  0.00  0.00     0.174 HD
ATOM     62  HN  UNK N   1      35.434  12.990  18.684  1.00  0.00     0.174 HD
ATOM     63  HN  UNK N   1      37.294  14.895  12.820  1.00  0.00     0.166 HD
HETATM   64  H   UNK N   1      34.150  11.680  15.686  0.00  0.00     0.186 HD
BRANCH  55  65
HETATM   65  O   UNK N   1      37.684  15.288  15.232  0.00  0.00    -0.344 OA
HETATM   66  H   UNK N   1      38.518  15.106  14.846  0.00  0.00     0.219 HD
ENDBRANCH  55  65
ENDBRANCH  47  48
ENDBRANCH  46  47
ENDBRANCH  42  46
ENDBRANCH  41  42
ENDBRANCH  37  41
ENDBRANCH  36  37
ENDBRANCH   2  36
TORSDOF 21
ENDMDL
MODEL 7
REMARK VINA RESULT:      -7.1      3.551      7.533
REMARK  21 active torsions:
REMARK  status: ('A' for Active; 'I' for Inactive)
REMARK    1  A    between atoms: C_6  and  C_2 
REMARK    2  A    between atoms: O_45  and  C_2 
REMARK    3  A    between atoms: C_7  and  C_3 
REMARK    4  A    between atoms: O_46  and  C_3 
REMARK    5  A    between atoms: C_10  and  O_34 
REMARK    6  A    between atoms: C_11  and  O_35 
REMARK    7  A    between atoms: N_18  and  C_12 
REMARK    8  A    between atoms: O_36  and  C_15 
REMARK    9  A    between atoms: C_16  and  N_33 
REMARK       I    between atoms: N_19  and  C_17 
REMARK   10  A    between atoms: P_51  and  O_37 
REMARK   11  A    between atoms: P_52  and  O_39 
REMARK   12  A    between atoms: P_53  and  O_41 
REMARK   13  A    between atoms: P_54  and  O_43 
REMARK   14  A    between atoms: P_51  and  O_45 
REMARK   15  A    between atoms: P_52  and  O_46 
REMARK   16  A    between atoms: P_51  and  O_48 
REMARK   17  A    between atoms: P_53  and  O_48 
REMARK   18  A    between atoms: P_52  and  O_49 
REMARK   19  A    between atoms: P_54  and  O_49 
REMARK   20  A    between atoms: P_53  and  O_50 
REMARK   21  A    between atoms: P_54  and  O_50 
ROOT
HETATM    1  O   UNK N   1      22.188  14.170   5.607  0.00  0.00    -0.631 OA
HETATM    2  P   UNK N   1      22.297  13.242   6.838  0.00  0.00     0.410 P 
ENDROOT
BRANCH   2   3
HETATM    3  O   UNK N   1      20.871  12.256   6.773  0.00  0.00    -0.307 OA
HETATM    4  H   UNK N   1      20.522  11.352   6.773  0.00  0.00     0.222 HD
ENDBRANCH   2   3
BRANCH   2   5
HETATM    5  O   UNK N   1      23.731  12.225   6.798  0.00  0.00    -0.195 OA
BRANCH   5   6
HETATM    6  P   UNK N   1      24.842  12.704   5.534  0.00  0.00     0.401 P 
HETATM    7  O   UNK N   1      25.825  11.518   5.318  0.00  0.00    -0.631 OA
BRANCH   6   8
HETATM    8  O   UNK N   1      23.961  12.849   4.047  0.00  0.00    -0.307 OA
HETATM    9  H   UNK N   1      24.402  13.164   3.243  0.00  0.00     0.222 HD
ENDBRANCH   6   8
BRANCH   6  10
HETATM   10  O   UNK N   1      25.728  14.183   5.848  0.00  0.00    -0.294 OA
BRANCH  10  11
HETATM   11  C   UNK N   1      25.828  14.864   4.633  0.00  0.00     0.215 C 
BRANCH  11  12
HETATM   12  C   UNK N   1      27.150  14.571   3.902  0.00  0.00     0.180 C 
HETATM   13  C   UNK N   1      28.222  13.947   4.810  0.00  0.00     0.182 C 
HETATM   14  C   UNK N   1      29.352  14.941   4.743  0.00  0.00     0.198 C 
HETATM   15  C   UNK N   1      28.706  16.206   4.196  0.00  0.00     0.262 C 
HETATM   16  O   UNK N   1      27.627  15.798   3.389  0.00  0.00    -0.353 OA
BRANCH  13  17
HETATM   17  O   UNK N   1      28.669  12.721   4.301  0.00  0.00    -0.390 OA
HETATM   18  H   UNK N   1      29.557  12.650   3.916  0.00  0.00     0.210 HD
ENDBRANCH  13  17
BRANCH  14  19
HETATM   19  O   UNK N   1      30.004  15.097   5.971  0.00  0.00    -0.388 OA
HETATM   20  H   UNK N   1      30.897  14.987   6.333  0.00  0.00     0.210 HD
ENDBRANCH  14  19
BRANCH  15  21
HETATM   21  N   UNK N   1      28.281  17.176   5.213  0.00  0.00    -0.297 N 
HETATM   22  C   UNK N   1      28.175  17.016   6.560  0.00  0.00     0.188 A 
HETATM   23  N   UNK N   1      27.635  18.123   7.150  0.00  0.00    -0.346 N 
HETATM   24  C   UNK N   1      27.389  18.960   6.124  0.00  0.00     0.122 A 
ATOM     25  HN  UNK N   1      27.458  18.279   8.141  1.00  0.00     0.167 HD
HETATM   26  C   UNK N   1      26.798  20.215   6.113  0.00  0.00     0.131 A 
HETATM   27  C   UNK N   1      27.783  18.393   4.970  0.00  0.00     0.142 A 
HETATM   28  N   UNK N   1      26.635  20.836   4.906  0.00  0.00    -0.337 N 
HETATM   29  C   UNK N   1      27.042  20.234   3.740  0.00  0.00     0.183 A 
ATOM     30  HN  UNK N   1      26.204  21.759   4.871  1.00  0.00     0.168 HD
HETATM   31  N   UNK N   1      27.617  18.993   3.766  0.00  0.00    -0.336 N 
ATOM     32  HN  UNK N   1      27.913  18.534   2.904  1.00  0.00     0.168 HD
BRANCH  26  33
HETATM   33  N   UNK N   1      26.354  20.827   7.301  0.00  0.00    -0.383 N 
HETATM   34  H   UNK N   1      26.938  21.395   7.854  0.00  0.00     0.157 HD
HETATM   35  H   UNK N   1      25.423  20.681   7.589  0.00  0.00     0.157 HD
ENDBRANCH  26  33
ENDBRANCH  15  21
ENDBRANCH  11  12
ENDBRANCH  10  11
ENDBRANCH   6  10
ENDBRANCH   5   6
ENDBRANCH   2   5
BRANCH   2  36
HETATM   36  O   UNK N   1      22.243  14.268   8.239  0.00  0.00    -0.195 OA
BRANCH  36  37
HETATM   37  P   UNK N   1      20.608  14.846   8.326  0.00  0.00     0.410 P 
HETATM   38  O   UNK N   1      19.874  13.876   9.294  0.00  0.00    -0.631 OA
BRANCH  37  39
HETATM   39  O   UNK N   1      19.832  14.724   6.779  0.00  0.00    -0.307 OA
HETATM   40  H   UNK N   1      19.074  14.321   6.325  0.00  0.00     0.222 HD
ENDBRANCH  37  39
BRANCH  37  41
HETATM   41  O   UNK N   1      20.537  16.472   8.975  0.00  0.00    -0.195 OA
BRANCH  41  42
HETATM   42  P   UNK N   1      20.050  17.487   7.658  0.00  0.00     0.402 P 
HETATM   43  O   UNK N   1      20.244  18.451   8.864  0.00  0.00    -0.631 OA
BRANCH  42  44
HETATM   44  O   UNK N   1      21.613  16.846   7.256  0.00  0.00    -0.307 OA
HETATM   45  H   UNK N   1      22.190  16.351   7.859  0.00  0.00     0.222 HD
ENDBRANCH  42  44
BRANCH  42  46
HETATM   46  O   UNK N   1      20.963  18.812   6.991  0.00  0.00    -0.291 OA
BRANCH  46  47
HETATM   47  C   UNK N   1      21.844  18.207   6.080  0.00  0.00     0.234 C 
BRANCH  47  48
HETATM   48  C   UNK N   1      21.194  18.021   4.738  0.00  0.00     0.029 A 
HETATM   49  C   UNK N   1      20.958  19.233   3.859  0.00  0.00     0.176 A 
HETATM   50  N   UNK N   1      20.349  18.912   2.579  0.00  0.00    -0.368 N 
HETATM   51  C   UNK N   1      19.985  17.590   2.232  0.00  0.00     0.148 A 
HETATM   52  H   UNK N   1      20.184  19.638   1.934  0.00  0.00     0.161 HD
HETATM   53  C   UNK N   1      20.238  16.557   3.124  0.00  0.00     0.129 A 
HETATM   54  N   UNK N   1      19.383  17.328   1.043  0.00  0.00    -0.175 N 
HETATM   55  C   UNK N   1      19.855  15.260   2.779  0.00  0.00     0.186 A 
HETATM   56  N   UNK N   1      20.864  16.828   4.362  0.00  0.00    -0.353 N 
HETATM   57  N   UNK N   1      19.253  15.035   1.582  0.00  0.00    -0.168 N 
HETATM   58  C   UNK N   1      19.020  16.058   0.715  0.00  0.00     0.679 A 
ATOM     59  HN  UNK N   1      18.974  14.087   1.329  1.00  0.00     0.186 HD
HETATM   60  N   UNK N   1      18.455  15.825  -0.406  0.00  0.00    -0.234 N 
HETATM   61  H   UNK N   1      18.338  16.549  -1.063  0.00  0.00     0.174 HD
ATOM     62  HN  UNK N   1      18.123  14.885  -0.624  1.00  0.00     0.174 HD
ATOM     63  HN  UNK N   1      21.064  16.047   4.987  1.00  0.00     0.166 HD
HETATM   64  H   UNK N   1      19.209  18.064   0.411  0.00  0.00     0.186 HD
BRANCH  55  65
HETATM   65  O   UNK N   1      20.071  14.236   3.623  0.00  0.00    -0.344 OA
HETATM   66  H   UNK N   1      20.857  13.728   3.569  0.00  0.00     0.219 HD
ENDBRANCH  55  65
ENDBRANCH  47  48
ENDBRANCH  46  47
ENDBRANCH  42  46
ENDBRANCH  41  42
ENDBRANCH  37  41
ENDBRANCH  36  37
ENDBRANCH   2  36
TORSDOF 21
ENDMDL
MODEL 8
REMARK VINA RESULT:      -7.1      2.322      4.000
REMARK  21 active torsions:
REMARK  status: ('A' for Active; 'I' for Inactive)
REMARK    1  A    between atoms: C_6  and  C_2 
REMARK    2  A    between atoms: O_45  and  C_2 
REMARK    3  A    between atoms: C_7  and  C_3 
REMARK    4  A    between atoms: O_46  and  C_3 
REMARK    5  A    between atoms: C_10  and  O_34 
REMARK    6  A    between atoms: C_11  and  O_35 
REMARK    7  A    between atoms: N_18  and  C_12 
REMARK    8  A    between atoms: O_36  and  C_15 
REMARK    9  A    between atoms: C_16  and  N_33 
REMARK       I    between atoms: N_19  and  C_17 
REMARK   10  A    between atoms: P_51  and  O_37 
REMARK   11  A    between atoms: P_52  and  O_39 
REMARK   12  A    between atoms: P_53  and  O_41 
REMARK   13  A    between atoms: P_54  and  O_43 
REMARK   14  A    between atoms: P_51  and  O_45 
REMARK   15  A    between atoms: P_52  and  O_46 
REMARK   16  A    between atoms: P_51  and  O_48 
REMARK   17  A    between atoms: P_53  and  O_48 
REMARK   18  A    between atoms: P_52  and  O_49 
REMARK   19  A    between atoms: P_54  and  O_49 
REMARK   20  A    between atoms: P_53  and  O_50 
REMARK   21  A    between atoms: P_54  and  O_50 
ROOT
HETATM    1  O   UNK N   1      20.379  16.895   1.857  0.00  0.00    -0.631 OA
HETATM    2  P   UNK N   1      19.958  17.648   3.139  0.00  0.00     0.410 P 
ENDROOT
BRANCH   2   3
HETATM    3  O   UNK N   1      18.740  18.766   2.612  0.00  0.00    -0.307 OA
HETATM    4  H   UNK N   1      17.798  18.991   2.630  0.00  0.00     0.222 HD
ENDBRANCH   2   3
BRANCH   2   5
HETATM    5  O   UNK N   1      19.296  16.579   4.369  0.00  0.00    -0.195 OA
BRANCH   5   6
HETATM    6  P   UNK N   1      20.525  16.017   5.481  0.00  0.00     0.401 P 
HETATM    7  O   UNK N   1      21.674  15.412   4.623  0.00  0.00    -0.631 OA
BRANCH   6   8
HETATM    8  O   UNK N   1      21.219  17.391   6.280  0.00  0.00    -0.307 OA
HETATM    9  H   UNK N   1      21.569  17.311   7.181  0.00  0.00     0.222 HD
ENDBRANCH   6   8
BRANCH   6  10
HETATM   10  O   UNK N   1      19.973  14.853   6.669  0.00  0.00    -0.294 OA
BRANCH  10  11
HETATM   11  C   UNK N   1      21.087  14.479   7.423  0.00  0.00     0.215 C 
BRANCH  11  12
HETATM   12  C   UNK N   1      20.835  13.212   8.256  0.00  0.00     0.180 C 
HETATM   13  C   UNK N   1      21.178  13.384   9.746  0.00  0.00     0.182 C 
HETATM   14  C   UNK N   1      22.238  12.341   9.979  0.00  0.00     0.198 C 
HETATM   15  C   UNK N   1      22.719  11.977   8.582  0.00  0.00     0.262 C 
HETATM   16  O   UNK N   1      21.634  12.183   7.709  0.00  0.00    -0.353 OA
BRANCH  13  17
HETATM   17  O   UNK N   1      20.073  13.096  10.558  0.00  0.00    -0.390 OA
HETATM   18  H   UNK N   1      19.784  12.177  10.675  0.00  0.00     0.210 HD
ENDBRANCH  13  17
BRANCH  14  19
HETATM   19  O   UNK N   1      23.240  12.779  10.851  0.00  0.00    -0.388 OA
HETATM   20  H   UNK N   1      24.204  12.889  10.847  0.00  0.00     0.210 HD
ENDBRANCH  14  19
BRANCH  15  21
HETATM   21  N   UNK N   1      23.918  12.694   8.131  0.00  0.00    -0.297 N 
HETATM   22  C   UNK N   1      24.618  13.676   8.761  0.00  0.00     0.188 A 
HETATM   23  N   UNK N   1      25.609  14.170   7.963  0.00  0.00    -0.346 N 
HETATM   24  C   UNK N   1      25.484  13.480   6.813  0.00  0.00     0.122 A 
ATOM     25  HN  UNK N   1      26.289  14.895   8.187  1.00  0.00     0.167 HD
HETATM   26  C   UNK N   1      26.187  13.589   5.622  0.00  0.00     0.131 A 
HETATM   27  C   UNK N   1      24.476  12.596   6.920  0.00  0.00     0.142 A 
HETATM   28  N   UNK N   1      25.818  12.778   4.585  0.00  0.00    -0.337 N 
HETATM   29  C   UNK N   1      24.782  11.885   4.718  0.00  0.00     0.183 A 
ATOM     30  HN  UNK N   1      26.320  12.837   3.699  1.00  0.00     0.168 HD
HETATM   31  N   UNK N   1      24.094  11.794   5.896  0.00  0.00    -0.336 N 
ATOM     32  HN  UNK N   1      23.317  11.141   6.001  1.00  0.00     0.168 HD
BRANCH  26  33
HETATM   33  N   UNK N   1      27.232  14.520   5.468  0.00  0.00    -0.383 N 
HETATM   34  H   UNK N   1      27.414  15.224   6.132  0.00  0.00     0.157 HD
HETATM   35  H   UNK N   1      27.800  14.465   4.666  0.00  0.00     0.157 HD
ENDBRANCH  26  33
ENDBRANCH  15  21
ENDBRANCH  11  12
ENDBRANCH  10  11
ENDBRANCH   6  10
ENDBRANCH   5   6
ENDBRANCH   2   5
BRANCH   2  36
HETATM   36  O   UNK N   1      21.359  18.515   3.689  0.00  0.00    -0.195 OA
BRANCH  36  37
HETATM   37  P   UNK N   1      21.300  20.049   2.877  0.00  0.00     0.410 P 
HETATM   38  O   UNK N   1      20.218  20.877   3.627  0.00  0.00    -0.631 OA
BRANCH  37  39
HETATM   39  O   UNK N   1      20.767  19.856   1.238  0.00  0.00    -0.307 OA
HETATM   40  H   UNK N   1      21.001  19.436   0.395  0.00  0.00     0.222 HD
ENDBRANCH  37  39
BRANCH  37  41
HETATM   41  O   UNK N   1      22.837  20.884   2.978  0.00  0.00    -0.195 OA
BRANCH  41  42
HETATM   42  P   UNK N   1      24.053  19.651   2.904  0.00  0.00     0.402 P 
HETATM   43  O   UNK N   1      24.758  20.946   2.408  0.00  0.00    -0.631 OA
BRANCH  42  44
HETATM   44  O   UNK N   1      23.666  19.886   4.580  0.00  0.00    -0.307 OA
HETATM   45  H   UNK N   1      24.310  20.026   5.293  0.00  0.00     0.222 HD
ENDBRANCH  42  44
BRANCH  42  46
HETATM   46  O   UNK N   1      25.571  19.653   3.758  0.00  0.00    -0.291 OA
BRANCH  46  47
HETATM   47  C   UNK N   1      25.501  18.530   4.600  0.00  0.00     0.234 C 
BRANCH  47  48
HETATM   48  C   UNK N   1      26.849  18.200   5.176  0.00  0.00     0.029 A 
HETATM   49  C   UNK N   1      27.987  17.851   4.236  0.00  0.00     0.176 A 
HETATM   50  N   UNK N   1      29.241  17.581   4.918  0.00  0.00    -0.368 N 
HETATM   51  C   UNK N   1      29.349  17.609   6.328  0.00  0.00     0.148 A 
HETATM   52  H   UNK N   1      30.040  17.371   4.383  0.00  0.00     0.161 HD
HETATM   53  C   UNK N   1      28.234  17.930   7.091  0.00  0.00     0.129 A 
HETATM   54  N   UNK N   1      30.527  17.315   6.938  0.00  0.00    -0.175 N 
HETATM   55  C   UNK N   1      28.348  17.934   8.482  0.00  0.00     0.186 A 
HETATM   56  N   UNK N   1      27.008  18.235   6.459  0.00  0.00    -0.353 N 
HETATM   57  N   UNK N   1      29.542  17.633   9.058  0.00  0.00    -0.168 N 
HETATM   58  C   UNK N   1      30.627  17.329   8.295  0.00  0.00     0.679 A 
ATOM     59  HN  UNK N   1      29.625  17.636  10.075  1.00  0.00     0.186 HD
HETATM   60  N   UNK N   1      31.740  17.050   8.856  0.00  0.00    -0.234 N 
HETATM   61  H   UNK N   1      32.544  16.889   8.310  0.00  0.00     0.174 HD
ATOM     62  HN  UNK N   1      31.798  16.995   9.873  1.00  0.00     0.174 HD
ATOM     63  HN  UNK N   1      26.212  18.495   7.041  1.00  0.00     0.166 HD
HETATM   64  H   UNK N   1      31.316  17.092   6.393  0.00  0.00     0.186 HD
BRANCH  55  65
HETATM   65  O   UNK N   1      27.287  18.226   9.254  0.00  0.00    -0.344 OA
HETATM   66  H   UNK N   1      27.378  18.777  10.006  0.00  0.00     0.219 HD
ENDBRANCH  55  65
ENDBRANCH  47  48
ENDBRANCH  46  47
ENDBRANCH  42  46
ENDBRANCH  41  42
ENDBRANCH  37  41
ENDBRANCH  36  37
ENDBRANCH   2  36
TORSDOF 21
ENDMDL
MODEL 9
REMARK VINA RESULT:      -7.1      9.264     14.282
REMARK  21 active torsions:
REMARK  status: ('A' for Active; 'I' for Inactive)
REMARK    1  A    between atoms: C_6  and  C_2 
REMARK    2  A    between atoms: O_45  and  C_2 
REMARK    3  A    between atoms: C_7  and  C_3 
REMARK    4  A    between atoms: O_46  and  C_3 
REMARK    5  A    between atoms: C_10  and  O_34 
REMARK    6  A    between atoms: C_11  and  O_35 
REMARK    7  A    between atoms: N_18  and  C_12 
REMARK    8  A    between atoms: O_36  and  C_15 
REMARK    9  A    between atoms: C_16  and  N_33 
REMARK       I    between atoms: N_19  and  C_17 
REMARK   10  A    between atoms: P_51  and  O_37 
REMARK   11  A    between atoms: P_52  and  O_39 
REMARK   12  A    between atoms: P_53  and  O_41 
REMARK   13  A    between atoms: P_54  and  O_43 
REMARK   14  A    between atoms: P_51  and  O_45 
REMARK   15  A    between atoms: P_52  and  O_46 
REMARK   16  A    between atoms: P_51  and  O_48 
REMARK   17  A    between atoms: P_53  and  O_48 
REMARK   18  A    between atoms: P_52  and  O_49 
REMARK   19  A    between atoms: P_54  and  O_49 
REMARK   20  A    between atoms: P_53  and  O_50 
REMARK   21  A    between atoms: P_54  and  O_50 
ROOT
HETATM    1  O   UNK N   1      35.237  11.844   8.425  0.00  0.00    -0.631 OA
HETATM    2  P   UNK N   1      34.848  13.016   9.354  0.00  0.00     0.410 P 
ENDROOT
BRANCH   2   3
HETATM    3  O   UNK N   1      33.795  12.309  10.537  0.00  0.00    -0.307 OA
HETATM    4  H   UNK N   1      33.269  11.532  10.779  0.00  0.00     0.222 HD
ENDBRANCH   2   3
BRANCH   2   5
HETATM    5  O   UNK N   1      36.238  13.744  10.149  0.00  0.00    -0.195 OA
BRANCH   5   6
HETATM    6  P   UNK N   1      35.771  15.004  11.268  0.00  0.00     0.401 P 
HETATM    7  O   UNK N   1      36.252  16.354  10.662  0.00  0.00    -0.631 OA
BRANCH   6   8
HETATM    8  O   UNK N   1      34.039  15.103  11.300  0.00  0.00    -0.307 OA
HETATM    9  H   UNK N   1      33.499  14.362  10.987  0.00  0.00     0.222 HD
ENDBRANCH   6   8
BRANCH   6  10
HETATM   10  O   UNK N   1      36.386  14.814  12.898  0.00  0.00    -0.294 OA
BRANCH  10  11
HETATM   11  C   UNK N   1      35.611  13.828  13.514  0.00  0.00     0.215 C 
BRANCH  11  12
HETATM   12  C   UNK N   1      36.234  12.427  13.390  0.00  0.00     0.180 C 
HETATM   13  C   UNK N   1      35.197  11.293  13.452  0.00  0.00     0.182 C 
HETATM   14  C   UNK N   1      35.636  10.489  14.648  0.00  0.00     0.198 C 
HETATM   15  C   UNK N   1      36.568  11.424  15.405  0.00  0.00     0.262 C 
HETATM   16  O   UNK N   1      37.152  12.280  14.452  0.00  0.00    -0.353 OA
BRANCH  13  17
HETATM   17  O   UNK N   1      35.263  10.481  12.312  0.00  0.00    -0.390 OA
HETATM   18  H   UNK N   1      34.754   9.656  12.274  0.00  0.00     0.210 HD
ENDBRANCH  13  17
BRANCH  14  19
HETATM   19  O   UNK N   1      34.557  10.002  15.393  0.00  0.00    -0.388 OA
HETATM   20  H   UNK N   1      34.102  10.208  16.224  0.00  0.00     0.210 HD
ENDBRANCH  14  19
BRANCH  15  21
HETATM   21  N   UNK N   1      35.937  12.181  16.494  0.00  0.00    -0.297 N 
HETATM   22  C   UNK N   1      35.551  13.485  16.521  0.00  0.00     0.188 A 
HETATM   23  N   UNK N   1      35.107  13.846  17.761  0.00  0.00    -0.346 N 
HETATM   24  C   UNK N   1      35.254  12.731  18.503  0.00  0.00     0.122 A 
ATOM     25  HN  UNK N   1      34.746  14.752  18.057  1.00  0.00     0.167 HD
HETATM   26  C   UNK N   1      35.013  12.516  19.852  0.00  0.00     0.131 A 
HETATM   27  C   UNK N   1      35.745  11.738  17.741  0.00  0.00     0.142 A 
HETATM   28  N   UNK N   1      35.291  11.278  20.362  0.00  0.00    -0.337 N 
HETATM   29  C   UNK N   1      35.796  10.281  19.564  0.00  0.00     0.183 A 
ATOM     30  HN  UNK N   1      35.122  11.093  21.351  1.00  0.00     0.168 HD
HETATM   31  N   UNK N   1      36.035  10.511  18.237  0.00  0.00    -0.336 N 
ATOM     32  HN  UNK N   1      36.419   9.779  17.639  1.00  0.00     0.168 HD
BRANCH  26  33
HETATM   33  N   UNK N   1      34.521  13.541  20.684  0.00  0.00    -0.383 N 
HETATM   34  H   UNK N   1      34.484  13.454  21.664  0.00  0.00     0.157 HD
HETATM   35  H   UNK N   1      34.202  14.375  20.269  0.00  0.00     0.157 HD
ENDBRANCH  26  33
ENDBRANCH  15  21
ENDBRANCH  11  12
ENDBRANCH  10  11
ENDBRANCH   6  10
ENDBRANCH   5   6
ENDBRANCH   2   5
BRANCH   2  36
HETATM   36  O   UNK N   1      33.966  14.151   8.379  0.00  0.00    -0.195 OA
BRANCH  36  37
HETATM   37  P   UNK N   1      35.055  14.612   7.107  0.00  0.00     0.410 P 
HETATM   38  O   UNK N   1      34.606  13.801   5.859  0.00  0.00    -0.631 OA
BRANCH  37  39
HETATM   39  O   UNK N   1      36.678  14.130   7.485  0.00  0.00    -0.307 OA
HETATM   40  H   UNK N   1      37.540  13.938   7.082  0.00  0.00     0.222 HD
ENDBRANCH  37  39
BRANCH  37  41
HETATM   41  O   UNK N   1      34.938  16.324   6.755  0.00  0.00    -0.195 OA
BRANCH  41  42
HETATM   42  P   UNK N   1      33.810  16.969   7.903  0.00  0.00     0.402 P 
HETATM   43  O   UNK N   1      34.378  18.207   7.152  0.00  0.00    -0.631 OA
BRANCH  42  44
HETATM   44  O   UNK N   1      32.895  16.045   6.752  0.00  0.00    -0.307 OA
HETATM   45  H   UNK N   1      33.269  15.440   6.091  0.00  0.00     0.222 HD
ENDBRANCH  42  44
BRANCH  42  46
HETATM   46  O   UNK N   1      32.397  17.916   7.532  0.00  0.00    -0.291 OA
BRANCH  46  47
HETATM   47  C   UNK N   1      31.319  17.045   7.767  0.00  0.00     0.234 C 
BRANCH  47  48
HETATM   48  C   UNK N   1      30.017  17.669   7.352  0.00  0.00     0.029 A 
HETATM   49  C   UNK N   1      29.151  18.335   8.403  0.00  0.00     0.176 A 
HETATM   50  N   UNK N   1      27.936  18.922   7.866  0.00  0.00    -0.368 N 
HETATM   51  C   UNK N   1      27.600  18.830   6.496  0.00  0.00     0.148 A 
HETATM   52  H   UNK N   1      27.326  19.399   8.476  0.00  0.00     0.161 HD
HETATM   53  C   UNK N   1      28.465  18.183   5.624  0.00  0.00     0.129 A 
HETATM   54  N   UNK N   1      26.437  19.358   6.031  0.00  0.00    -0.175 N 
HETATM   55  C   UNK N   1      28.112  18.081   4.277  0.00  0.00     0.186 A 
HETATM   56  N   UNK N   1      29.674  17.634   6.105  0.00  0.00    -0.353 N 
HETATM   57  N   UNK N   1      26.940  18.618   3.848  0.00  0.00    -0.168 N 
HETATM   58  C   UNK N   1      26.107  19.257   4.714  0.00  0.00     0.679 A 
ATOM     59  HN  UNK N   1      26.683  18.543   2.864  1.00  0.00     0.186 HD
HETATM   60  N   UNK N   1      25.011  19.757   4.291  0.00  0.00    -0.234 N 
HETATM   61  H   UNK N   1      24.433  20.272   4.899  0.00  0.00     0.174 HD
ATOM     62  HN  UNK N   1      24.733  19.623   3.319  1.00  0.00     0.174 HD
ATOM     63  HN  UNK N   1      30.305  17.189   5.439  1.00  0.00     0.166 HD
HETATM   64  H   UNK N   1      25.828  19.819   6.653  0.00  0.00     0.186 HD
BRANCH  55  65
HETATM   65  O   UNK N   1      28.918  17.449   3.406  0.00  0.00    -0.344 OA
HETATM   66  H   UNK N   1      28.582  16.786   2.836  0.00  0.00     0.219 HD
ENDBRANCH  55  65
ENDBRANCH  47  48
ENDBRANCH  46  47
ENDBRANCH  42  46
ENDBRANCH  41  42
ENDBRANCH  37  41
ENDBRANCH  36  37
ENDBRANCH   2  36
TORSDOF 21
ENDMDL
