MODEL 1
REMARK VINA RESULT:      -4.3      0.000      0.000
REMARK  2 active torsions:
REMARK  status: ('A' for Active; 'I' for Inactive)
REMARK    1  A    between atoms: O_1  and  C_2 
REMARK    2  A    between atoms: C_2  and  C_3 
ROOT
HETATM    1  C   UNK N   1      23.324  12.678  10.448  0.00  0.00    -0.019 A 
HETATM    2  C   UNK N   1      22.386  13.427   9.736  0.00  0.00     0.012 A 
HETATM    3  C   UNK N   1      21.030  13.329  10.052  0.00  0.00     0.018 A 
HETATM    4  C   UNK N   1      20.628  12.478  11.082  0.00  0.00     0.087 A 
HETATM    5  N   UNK N   1      21.553  11.752  11.769  0.00  0.00    -0.375 N 
ATOM      6  HN  UNK N   1      21.244  11.134  12.520  1.00  0.00     0.164 HD
HETATM    7  C   UNK N   1      22.879  11.834  11.476  0.00  0.00     0.096 A 
ENDROOT
BRANCH   1   8
HETATM    8  C   UNK N   1      24.773  12.803  10.087  0.00  0.00     0.204 C 
BRANCH   8   9
HETATM    9  O   UNK N   1      25.569  13.069  11.202  0.00  0.00    -0.396 OA
HETATM   10  H   UNK N   1      25.452  12.553  12.016  0.00  0.00     0.209 HD
ENDBRANCH   8   9
ENDBRANCH   1   8
TORSDOF 2
ENDMDL
MODEL 2
REMARK VINA RESULT:      -4.2      2.015      2.704
REMARK  2 active torsions:
REMARK  status: ('A' for Active; 'I' for Inactive)
REMARK    1  A    between atoms: O_1  and  C_2 
REMARK    2  A    between atoms: C_2  and  C_3 
ROOT
HETATM    1  C   UNK N   1      23.163  12.046  11.677  0.00  0.00    -0.019 A 
HETATM    2  C   UNK N   1      22.007  12.245  10.921  0.00  0.00     0.012 A 
HETATM    3  C   UNK N   1      22.103  12.489   9.550  0.00  0.00     0.018 A 
HETATM    4  C   UNK N   1      23.363  12.531   8.951  0.00  0.00     0.087 A 
HETATM    5  N   UNK N   1      24.483  12.335   9.699  0.00  0.00    -0.375 N 
ATOM      6  HN  UNK N   1      25.396  12.369   9.247  1.00  0.00     0.164 HD
HETATM    7  C   UNK N   1      24.410  12.096  11.037  0.00  0.00     0.096 A 
ENDROOT
BRANCH   1   8
HETATM    8  C   UNK N   1      23.029  11.786  13.146  0.00  0.00     0.204 C 
BRANCH   8   9
HETATM    9  O   UNK N   1      23.917  12.559  13.897  0.00  0.00    -0.396 OA
HETATM   10  H   UNK N   1      24.302  13.364  13.515  0.00  0.00     0.209 HD
ENDBRANCH   8   9
ENDBRANCH   1   8
TORSDOF 2
ENDMDL
MODEL 3
REMARK VINA RESULT:      -4.0      2.425      3.343
REMARK  2 active torsions:
REMARK  status: ('A' for Active; 'I' for Inactive)
REMARK    1  A    between atoms: O_1  and  C_2 
REMARK    2  A    between atoms: C_2  and  C_3 
ROOT
HETATM    1  C   UNK N   1      21.399  13.423   9.979  0.00  0.00    -0.019 A 
HETATM    2  C   UNK N   1      22.760  13.432   9.675  0.00  0.00     0.012 A 
HETATM    3  C   UNK N   1      23.629  12.565  10.339  0.00  0.00     0.018 A 
HETATM    4  C   UNK N   1      23.121  11.696  11.305  0.00  0.00     0.087 A 
HETATM    5  N   UNK N   1      21.790  11.697  11.593  0.00  0.00    -0.375 N 
ATOM      6  HN  UNK N   1      21.433  11.055  12.301  1.00  0.00     0.164 HD
HETATM    7  C   UNK N   1      20.927  12.534  10.956  0.00  0.00     0.096 A 
ENDROOT
BRANCH   1   8
HETATM    8  C   UNK N   1      20.489  14.365   9.250  0.00  0.00     0.204 C 
BRANCH   8   9
HETATM    9  O   UNK N   1      19.193  14.348   9.770  0.00  0.00    -0.396 OA
HETATM   10  H   UNK N   1      18.828  15.145  10.187  0.00  0.00     0.209 HD
ENDBRANCH   8   9
ENDBRANCH   1   8
TORSDOF 2
ENDMDL
MODEL 4
REMARK VINA RESULT:      -3.8     10.243     11.000
REMARK  2 active torsions:
REMARK  status: ('A' for Active; 'I' for Inactive)
REMARK    1  A    between atoms: O_1  and  C_2 
REMARK    2  A    between atoms: C_2  and  C_3 
ROOT
HETATM    1  C   UNK N   1      20.695  19.703   2.194  0.00  0.00    -0.019 A 
HETATM    2  C   UNK N   1      20.310  18.445   1.729  0.00  0.00     0.012 A 
HETATM    3  C   UNK N   1      20.300  17.353   2.598  0.00  0.00     0.018 A 
HETATM    4  C   UNK N   1      20.678  17.536   3.929  0.00  0.00     0.087 A 
HETATM    5  N   UNK N   1      21.051  18.768   4.370  0.00  0.00    -0.375 N 
ATOM      6  HN  UNK N   1      21.325  18.887   5.346  1.00  0.00     0.164 HD
HETATM    7  C   UNK N   1      21.067  19.845   3.538  0.00  0.00     0.096 A 
ENDROOT
BRANCH   1   8
HETATM    8  C   UNK N   1      20.696  20.857   1.238  0.00  0.00     0.204 C 
BRANCH   8   9
HETATM    9  O   UNK N   1      20.605  20.436  -0.090  0.00  0.00    -0.396 OA
HETATM   10  H   UNK N   1      20.448  21.085  -0.795  0.00  0.00     0.209 HD
ENDBRANCH   8   9
ENDBRANCH   1   8
TORSDOF 2
ENDMDL
MODEL 5
REMARK VINA RESULT:      -3.8     13.603     14.457
REMARK  2 active torsions:
REMARK  status: ('A' for Active; 'I' for Inactive)
REMARK    1  A    between atoms: O_1  and  C_2 
REMARK    2  A    between atoms: C_2  and  C_3 
ROOT
HETATM    1  C   UNK N   1      35.284  12.841  17.019  0.00  0.00    -0.019 A 
HETATM    2  C   UNK N   1      35.407  11.522  17.456  0.00  0.00     0.012 A 
HETATM    3  C   UNK N   1      35.439  11.240  18.822  0.00  0.00     0.018 A 
HETATM    4  C   UNK N   1      35.347  12.288  19.739  0.00  0.00     0.087 A 
HETATM    5  N   UNK N   1      35.227  13.571  19.300  0.00  0.00    -0.375 N 
ATOM      6  HN  UNK N   1      35.161  14.327  19.981  1.00  0.00     0.164 HD
HETATM    7  C   UNK N   1      35.194  13.866  17.972  0.00  0.00     0.096 A 
ENDROOT
BRANCH   1   8
HETATM    8  C   UNK N   1      35.252  13.114  15.546  0.00  0.00     0.204 C 
BRANCH   8   9
HETATM    9  O   UNK N   1      34.148  12.523  14.928  0.00  0.00    -0.396 OA
HETATM   10  H   UNK N   1      33.443  13.080  14.559  0.00  0.00     0.209 HD
ENDBRANCH   8   9
ENDBRANCH   1   8
TORSDOF 2
ENDMDL
MODEL 6
REMARK VINA RESULT:      -3.8      9.924     10.705
REMARK  2 active torsions:
REMARK  status: ('A' for Active; 'I' for Inactive)
REMARK    1  A    between atoms: O_1  and  C_2 
REMARK    2  A    between atoms: C_2  and  C_3 
ROOT
HETATM    1  C   UNK N   1      20.633  19.409   2.398  0.00  0.00    -0.019 A 
HETATM    2  C   UNK N   1      21.626  19.191   3.354  0.00  0.00     0.012 A 
HETATM    3  C   UNK N   1      21.503  18.139   4.261  0.00  0.00     0.018 A 
HETATM    4  C   UNK N   1      20.379  17.313   4.201  0.00  0.00     0.087 A 
HETATM    5  N   UNK N   1      19.417  17.536   3.264  0.00  0.00    -0.375 N 
ATOM      6  HN  UNK N   1      18.601  16.924   3.232  1.00  0.00     0.164 HD
HETATM    7  C   UNK N   1      19.519  18.557   2.370  0.00  0.00     0.096 A 
ENDROOT
BRANCH   1   8
HETATM    8  C   UNK N   1      20.793  20.547   1.437  0.00  0.00     0.204 C 
BRANCH   8   9
HETATM    9  O   UNK N   1      20.683  20.129   0.109  0.00  0.00    -0.396 OA
HETATM   10  H   UNK N   1      19.812  20.091  -0.317  0.00  0.00     0.209 HD
ENDBRANCH   8   9
ENDBRANCH   1   8
TORSDOF 2
ENDMDL
MODEL 7
REMARK VINA RESULT:      -3.7      8.654      9.679
REMARK  2 active torsions:
REMARK  status: ('A' for Active; 'I' for Inactive)
REMARK    1  A    between atoms: O_1  and  C_2 
REMARK    2  A    between atoms: C_2  and  C_3 
ROOT
HETATM    1  C   UNK N   1      28.240  18.690   7.018  0.00  0.00    -0.019 A 
HETATM    2  C   UNK N   1      27.637  19.948   7.019  0.00  0.00     0.012 A 
HETATM    3  C   UNK N   1      27.485  20.651   5.823  0.00  0.00     0.018 A 
HETATM    4  C   UNK N   1      27.943  20.082   4.634  0.00  0.00     0.087 A 
HETATM    5  N   UNK N   1      28.530  18.854   4.645  0.00  0.00    -0.375 N 
ATOM      6  HN  UNK N   1      28.859  18.450   3.768  1.00  0.00     0.164 HD
HETATM    7  C   UNK N   1      28.686  18.153   5.801  0.00  0.00     0.096 A 
ENDROOT
BRANCH   1   8
HETATM    8  C   UNK N   1      28.389  17.959   8.317  0.00  0.00     0.204 C 
BRANCH   8   9
HETATM    9  O   UNK N   1      27.444  18.368   9.259  0.00  0.00    -0.396 OA
HETATM   10  H   UNK N   1      26.556  18.636   8.972  0.00  0.00     0.209 HD
ENDBRANCH   8   9
ENDBRANCH   1   8
TORSDOF 2
ENDMDL
MODEL 8
REMARK VINA RESULT:      -3.7      8.882      9.782
REMARK  2 active torsions:
REMARK  status: ('A' for Active; 'I' for Inactive)
REMARK    1  A    between atoms: O_1  and  C_2 
REMARK    2  A    between atoms: C_2  and  C_3 
ROOT
HETATM    1  C   UNK N   1      29.496  18.097   8.133  0.00  0.00    -0.019 A 
HETATM    2  C   UNK N   1      29.724  17.232   7.062  0.00  0.00     0.012 A 
HETATM    3  C   UNK N   1      30.973  16.632   6.904  0.00  0.00     0.018 A 
HETATM    4  C   UNK N   1      31.985  16.906   7.826  0.00  0.00     0.087 A 
HETATM    5  N   UNK N   1      31.750  17.751   8.867  0.00  0.00    -0.375 N 
ATOM      6  HN  UNK N   1      32.499  17.942   9.532  1.00  0.00     0.164 HD
HETATM    7  C   UNK N   1      30.538  18.346   9.038  0.00  0.00     0.096 A 
ENDROOT
BRANCH   1   8
HETATM    8  C   UNK N   1      28.144  18.727   8.278  0.00  0.00     0.204 C 
BRANCH   8   9
HETATM    9  O   UNK N   1      27.436  18.203   9.361  0.00  0.00    -0.396 OA
HETATM   10  H   UNK N   1      26.880  18.783   9.904  0.00  0.00     0.209 HD
ENDBRANCH   8   9
ENDBRANCH   1   8
TORSDOF 2
ENDMDL
MODEL 9
REMARK VINA RESULT:      -3.7      2.511      3.278
REMARK  2 active torsions:
REMARK  status: ('A' for Active; 'I' for Inactive)
REMARK    1  A    between atoms: O_1  and  C_2 
REMARK    2  A    between atoms: C_2  and  C_3 
ROOT
HETATM    1  C   UNK N   1      22.848  13.007   9.685  0.00  0.00    -0.019 A 
HETATM    2  C   UNK N   1      22.169  12.441  10.764  0.00  0.00     0.012 A 
HETATM    3  C   UNK N   1      22.884  11.933  11.849  0.00  0.00     0.018 A 
HETATM    4  C   UNK N   1      24.278  11.999  11.840  0.00  0.00     0.087 A 
HETATM    5  N   UNK N   1      24.929  12.554  10.781  0.00  0.00    -0.375 N 
ATOM      6  HN  UNK N   1      25.948  12.595  10.789  1.00  0.00     0.164 HD
HETATM    7  C   UNK N   1      24.250  13.055   9.714  0.00  0.00     0.096 A 
ENDROOT
BRANCH   1   8
HETATM    8  C   UNK N   1      22.055  13.545   8.533  0.00  0.00     0.204 C 
BRANCH   8   9
HETATM    9  O   UNK N   1      20.816  12.913   8.411  0.00  0.00    -0.396 OA
HETATM   10  H   UNK N   1      20.061  13.394   8.036  0.00  0.00     0.209 HD
ENDBRANCH   8   9
ENDBRANCH   1   8
TORSDOF 2
ENDMDL
