REMARK  10 active torsions:
REMARK  status: ('A' for Active; 'I' for Inactive)
REMARK    1  A    between atoms: C_2  and  N_3 
REMARK    2  A    between atoms: C_2  and  C_31 
REMARK       I    between atoms: N_3  and  C_4 
REMARK    3  A    between atoms: C_6  and  C_4 
REMARK       I    between atoms: N_10  and  C_11 
REMARK    4  A    between atoms: C_13  and  C_11 
REMARK       I    between atoms: N_17  and  C_18 
REMARK    5  A    between atoms: C_18  and  C_20 
REMARK    6  A    between atoms: C_20  and  O_21 
REMARK    7  A    between atoms: C_20  and  C_22 
REMARK    8  A    between atoms: C_22  and  N_23 
REMARK    9  A    between atoms: C_22  and  C_24 
REMARK   10  A    between atoms: C_24  and  C_25 
REMARK       I    between atoms: C_31  and  N_32 
ROOT
HETATM    1  C   UNK N   1       1.556  -3.152   0.326  0.00  0.00     0.179 C 
HETATM    2  C   UNK N   1       0.383  -3.901  -0.284  0.00  0.00     0.037 C 
HETATM    3  C   UNK N   1      -0.673  -2.860  -0.637  0.00  0.00     0.022 C 
HETATM    4  C   UNK N   1      -0.027  -1.500  -0.454  0.00  0.00     0.127 C 
HETATM    5  N   UNK N   1       1.230  -1.753   0.189  0.00  0.00    -0.336 N 
HETATM    6  C   UNK N   1       2.060  -0.769   0.670  0.00  0.00     0.251 C 
HETATM    7  O   UNK N   1       3.074  -1.091   1.274  0.00  0.00    -0.270 OA
ENDROOT
BRANCH   1   8
HETATM    8  C   UNK N   1       2.812  -3.496  -0.443  0.00  0.00     0.243 C 
HETATM    9  N   UNK N   1       3.597  -4.549  -0.071  0.00  0.00    -0.337 N 
HETATM   10  C   UNK N   1       3.227  -5.418   1.011  0.00  0.00     0.127 A 
HETATM   11  C   UNK N   1       4.799  -4.931  -0.773  0.00  0.00     0.179 A 
HETATM   12  C   UNK N   1       4.198  -6.582   0.944  0.00  0.00     0.022 A 
HETATM   13  C   UNK N   1       5.227  -6.247  -0.132  0.00  0.00     0.037 A 
HETATM   14  O   UNK N   1       3.106  -2.830  -1.428  0.00  0.00    -0.271 OA
BRANCH  11  15
HETATM   15  C   UNK N   1       5.896  -3.881  -0.674  0.00  0.00     0.241 C 
HETATM   16  N   UNK N   1       7.089  -4.184  -0.100  0.00  0.00    -0.346 N 
HETATM   17  H   UNK N   1       7.218  -5.080   0.286  0.00  0.00     0.163 HD
HETATM   18  O   UNK N   1       5.717  -2.771  -1.153  0.00  0.00    -0.271 OA
BRANCH  16  19
HETATM   19  C   UNK N   1       8.179  -3.233  -0.038  0.00  0.00     0.172 C 
HETATM   20  C   UNK N   1       8.009  -2.327   1.169  0.00  0.00     0.042 C 
BRANCH  19  21
HETATM   21  C   UNK N   1       9.508  -3.935   0.013  0.00  0.00     0.237 C 
HETATM   22  N   UNK N   1      10.647  -3.215   0.002  0.00  0.00    -0.368 N 
HETATM   23  H   UNK N   1      11.519  -3.672  -0.006  0.00  0.00     0.159 HD
HETATM   24  H   UNK N   1      10.608  -2.231   0.002  0.00  0.00     0.159 HD
HETATM   25  O   UNK N   1       9.568  -5.155   0.045  0.00  0.00    -0.271 OA
ENDBRANCH  19  21
ENDBRANCH  16  19
ENDBRANCH  11  15
ENDBRANCH   1   8
BRANCH   6  26
HETATM   26  C   UNK N   1       1.775   0.725   0.531  0.00  0.00     0.232 C 
BRANCH  26  27
HETATM   27  O   UNK N   1       0.577   1.043  -0.109  0.00  0.00    -0.384 OA
HETATM   28  H   UNK N   1       0.352   1.875  -0.554  0.00  0.00     0.210 HD
ENDBRANCH  26  27
BRANCH  26  29
HETATM   29  C   UNK N   1       2.898   1.602  -0.043  0.00  0.00     0.116 C 
BRANCH  29  30
HETATM   30  N   UNK N   1       4.102   0.856  -0.384  0.00  0.00    -0.423 N 
HETATM   31  H   UNK N   1       4.072  -0.135  -0.623  0.00  0.00     0.150 HD
HETATM   32  H   UNK N   1       5.001   1.339  -0.384  0.00  0.00     0.150 HD
ENDBRANCH  29  30
BRANCH  29  33
HETATM   33  C   UNK N   1       3.206   2.673   0.994  0.00  0.00     0.066 C 
BRANCH  33  34
HETATM   34  C   UNK N   1       3.938   3.841   0.427  0.00  0.00    -0.056 A 
HETATM   35  C   UNK N   1       3.250   5.042   0.230  0.00  0.00     0.007 A 
HETATM   36  C   UNK N   1       3.921   6.162  -0.268  0.00  0.00     0.001 A 
HETATM   37  C   UNK N   1       5.286   6.086  -0.558  0.00  0.00     0.000 A 
HETATM   38  C   UNK N   1       5.980   4.888  -0.353  0.00  0.00     0.001 A 
HETATM   39  C   UNK N   1       5.307   3.765   0.140  0.00  0.00     0.007 A 
ENDBRANCH  33  34
ENDBRANCH  29  33
ENDBRANCH  26  29
ENDBRANCH   6  26
TORSDOF 10
