MODEL 1
REMARK VINA RESULT:      -7.2      0.000      0.000
REMARK  17 active torsions:
REMARK  status: ('A' for Active; 'I' for Inactive)
REMARK    1  A    between atoms: C_32  and  C_21 
REMARK    2  A    between atoms: C_33  and  C_21 
REMARK    3  A    between atoms: C_24  and  C_22 
REMARK    4  A    between atoms: O_48  and  C_22 
REMARK    5  A    between atoms: C_25  and  C_23 
REMARK    6  A    between atoms: O_49  and  C_23 
REMARK    7  A    between atoms: C_30  and  O_43 
REMARK    8  A    between atoms: C_31  and  O_44 
REMARK    9  A    between atoms: C_36  and  C_32 
REMARK   10  A    between atoms: C_32  and  O_45 
REMARK   11  A    between atoms: C_37  and  C_33 
REMARK   12  A    between atoms: C_33  and  O_48 
REMARK   13  A    between atoms: C_34  and  N_39 
REMARK   14  A    between atoms: C_35  and  N_41 
REMARK   15  A    between atoms: C_38  and  C_36 
REMARK   16  A    between atoms: C_36  and  O_49 
REMARK   17  A    between atoms: C_38  and  O_47 
ROOT
HETATM    1  C   UNK N   1      34.862  11.848  10.110  0.00  0.00     0.141 C 
HETATM    2  N   UNK N   1      35.008  10.694  10.681  0.00  0.00    -0.361 N 
ATOM      3  HN  UNK N   1      34.269  10.401  11.318  1.00  0.00     0.162 HD
HETATM    4  O   UNK N   1      33.837  12.628  10.500  0.00  0.00    -0.348 OA
HETATM    5  H   UNK N   1      33.209  13.296  10.697  0.00  0.00     0.219 HD
ENDROOT
BRANCH   1   6
HETATM    6  C   UNK N   1      35.741  12.346   8.987  0.00  0.00     0.198 C 
BRANCH   6   7
HETATM    7  C   UNK N   1      36.907  12.980   9.752  0.00  0.00     0.075 C 
BRANCH   7   8
HETATM    8  C   UNK N   1      37.005  14.503   9.786  0.00  0.00     0.158 C 
BRANCH   8   9
HETATM    9  C   UNK N   1      36.314  15.115  11.041  0.00  0.00     0.224 C 
BRANCH   9  10
HETATM   10  C   UNK N   1      35.168  15.924  10.492  0.00  0.00     0.144 C 
HETATM   11  N   UNK N   1      34.345  15.431   9.627  0.00  0.00    -0.361 N 
ATOM     12  HN  UNK N   1      34.516  14.499   9.250  1.00  0.00     0.162 HD
BRANCH  11  13
HETATM   13  C   UNK N   1      33.176  16.174   9.177  0.00  0.00     0.146 C 
HETATM   14  C   UNK N   1      33.173  16.529   7.747  0.00  0.00    -0.027 A 
HETATM   15  C   UNK N   1      34.228  17.049   6.997  0.00  0.00     0.010 A 
HETATM   16  C   UNK N   1      31.900  16.466   7.237  0.00  0.00    -0.047 A 
HETATM   17  C   UNK N   1      33.975  17.460   5.680  0.00  0.00     0.001 A 
HETATM   18  C   UNK N   1      32.670  17.389   5.155  0.00  0.00     0.001 A 
HETATM   19  C   UNK N   1      31.617  16.899   5.944  0.00  0.00     0.008 A 
HETATM   20  C   UNK N   1      30.920  15.969   8.239  0.00  0.00     0.073 C 
HETATM   21  C   UNK N   1      31.879  15.346   9.270  0.00  0.00     0.149 C 
BRANCH  21  22
HETATM   22  O   UNK N   1      31.349  15.335  10.560  0.00  0.00    -0.393 OA
HETATM   23  H   UNK N   1      30.390  15.314  10.704  0.00  0.00     0.210 HD
ENDBRANCH  21  22
ENDBRANCH  11  13
BRANCH  10  24
HETATM   24  O   UNK N   1      34.985  17.172  10.983  0.00  0.00    -0.348 OA
HETATM   25  H   UNK N   1      34.996  18.104  10.888  0.00  0.00     0.219 HD
ENDBRANCH  10  24
ENDBRANCH   9  10
BRANCH   9  26
HETATM   26  O   UNK N   1      35.752  14.170  11.943  0.00  0.00    -0.371 OA
BRANCH  26  27
HETATM   27  C   UNK N   1      36.147  14.436  13.270  0.00  0.00     0.207 C 
BRANCH  27  28
HETATM   28  C   UNK N   1      35.679  13.431  14.275  0.00  0.00    -0.035 A 
HETATM   29  C   UNK N   1      34.727  12.486  13.876  0.00  0.00     0.009 A 
HETATM   30  C   UNK N   1      34.257  11.533  14.782  0.00  0.00     0.001 A 
HETATM   31  C   UNK N   1      34.738  11.521  16.094  0.00  0.00     0.000 A 
HETATM   32  C   UNK N   1      35.691  12.462  16.497  0.00  0.00     0.001 A 
HETATM   33  C   UNK N   1      36.162  13.417  15.589  0.00  0.00     0.009 A 
ENDBRANCH  27  28
ENDBRANCH  26  27
ENDBRANCH   9  26
ENDBRANCH   8   9
BRANCH   8  34
HETATM   34  O   UNK N   1      38.350  14.898   9.809  0.00  0.00    -0.392 OA
HETATM   35  H   UNK N   1      38.948  15.653   9.690  0.00  0.00     0.210 HD
ENDBRANCH   8  34
ENDBRANCH   7   8
ENDBRANCH   6   7
BRANCH   6  36
HETATM   36  O   UNK N   1      35.016  13.176   8.092  0.00  0.00    -0.373 OA
BRANCH  36  37
HETATM   37  C   UNK N   1      35.574  13.181   6.797  0.00  0.00     0.207 C 
BRANCH  37  38
HETATM   38  C   UNK N   1      34.555  13.474   5.743  0.00  0.00    -0.035 A 
HETATM   39  C   UNK N   1      34.963  14.045   4.532  0.00  0.00     0.009 A 
HETATM   40  C   UNK N   1      34.026  14.324   3.534  0.00  0.00     0.001 A 
HETATM   41  C   UNK N   1      32.676  14.036   3.747  0.00  0.00     0.000 A 
HETATM   42  C   UNK N   1      32.262  13.476   4.959  0.00  0.00     0.001 A 
HETATM   43  C   UNK N   1      33.200  13.198   5.960  0.00  0.00     0.009 A 
ENDBRANCH  37  38
ENDBRANCH  36  37
ENDBRANCH   6  36
ENDBRANCH   1   6
BRANCH   2  44
HETATM   44  C   UNK N   1      36.121   9.775  10.504  0.00  0.00     0.146 C 
HETATM   45  C   UNK N   1      36.764   9.746  11.837  0.00  0.00    -0.027 A 
HETATM   46  C   UNK N   1      37.556  10.752  12.394  0.00  0.00     0.010 A 
HETATM   47  C   UNK N   1      36.282   8.716  12.606  0.00  0.00    -0.047 A 
HETATM   48  C   UNK N   1      37.906  10.664  13.747  0.00  0.00     0.001 A 
HETATM   49  C   UNK N   1      37.422   9.602  14.532  0.00  0.00     0.001 A 
HETATM   50  C   UNK N   1      36.591   8.624  13.962  0.00  0.00     0.008 A 
HETATM   51  C   UNK N   1      35.342   7.849  11.858  0.00  0.00     0.073 C 
HETATM   52  C   UNK N   1      35.646   8.304  10.422  0.00  0.00     0.149 C 
BRANCH  52  53
HETATM   53  O   UNK N   1      34.573   8.119   9.550  0.00  0.00    -0.393 OA
HETATM   54  H   UNK N   1      34.017   7.325   9.600  0.00  0.00     0.210 HD
ENDBRANCH  52  53
ENDBRANCH   2  44
TORSDOF 17
ENDMDL
MODEL 2
REMARK VINA RESULT:      -6.9     10.103     15.066
REMARK  17 active torsions:
REMARK  status: ('A' for Active; 'I' for Inactive)
REMARK    1  A    between atoms: C_32  and  C_21 
REMARK    2  A    between atoms: C_33  and  C_21 
REMARK    3  A    between atoms: C_24  and  C_22 
REMARK    4  A    between atoms: O_48  and  C_22 
REMARK    5  A    between atoms: C_25  and  C_23 
REMARK    6  A    between atoms: O_49  and  C_23 
REMARK    7  A    between atoms: C_30  and  O_43 
REMARK    8  A    between atoms: C_31  and  O_44 
REMARK    9  A    between atoms: C_36  and  C_32 
REMARK   10  A    between atoms: C_32  and  O_45 
REMARK   11  A    between atoms: C_37  and  C_33 
REMARK   12  A    between atoms: C_33  and  O_48 
REMARK   13  A    between atoms: C_34  and  N_39 
REMARK   14  A    between atoms: C_35  and  N_41 
REMARK   15  A    between atoms: C_38  and  C_36 
REMARK   16  A    between atoms: C_36  and  O_49 
REMARK   17  A    between atoms: C_38  and  O_47 
ROOT
HETATM    1  C   UNK N   1      22.791  15.465   6.629  0.00  0.00     0.141 C 
HETATM    2  N   UNK N   1      23.997  15.814   6.311  0.00  0.00    -0.361 N 
ATOM      3  HN  UNK N   1      24.184  16.814   6.248  1.00  0.00     0.162 HD
HETATM    4  O   UNK N   1      21.849  16.424   6.710  0.00  0.00    -0.348 OA
HETATM    5  H   UNK N   1      21.085  16.964   6.758  0.00  0.00     0.219 HD
ENDROOT
BRANCH   1   6
HETATM    6  C   UNK N   1      22.389  14.050   6.974  0.00  0.00     0.198 C 
BRANCH   6   7
HETATM    7  C   UNK N   1      21.726  13.581   5.674  0.00  0.00     0.075 C 
BRANCH   7   8
HETATM    8  C   UNK N   1      20.254  13.917   5.454  0.00  0.00     0.158 C 
BRANCH   8   9
HETATM    9  C   UNK N   1      19.964  14.387   3.996  0.00  0.00     0.224 C 
BRANCH   9  10
HETATM   10  C   UNK N   1      19.909  15.890   4.082  0.00  0.00     0.144 C 
HETATM   11  N   UNK N   1      20.880  16.629   3.657  0.00  0.00    -0.361 N 
ATOM     12  HN  UNK N   1      21.735  16.184   3.324  1.00  0.00     0.162 HD
BRANCH  11  13
HETATM   13  C   UNK N   1      20.782  18.081   3.639  0.00  0.00     0.146 C 
HETATM   14  C   UNK N   1      22.064  18.793   3.487  0.00  0.00    -0.027 A 
HETATM   15  C   UNK N   1      23.266  18.530   4.145  0.00  0.00     0.010 A 
HETATM   16  C   UNK N   1      21.900  19.922   2.724  0.00  0.00    -0.047 A 
HETATM   17  C   UNK N   1      24.334  19.422   3.967  0.00  0.00     0.001 A 
HETATM   18  C   UNK N   1      24.168  20.577   3.179  0.00  0.00     0.001 A 
HETATM   19  C   UNK N   1      22.936  20.839   2.560  0.00  0.00     0.008 A 
HETATM   20  C   UNK N   1      20.515  20.046   2.198  0.00  0.00     0.073 C 
HETATM   21  C   UNK N   1      20.014  18.606   2.410  0.00  0.00     0.149 C 
BRANCH  21  22
HETATM   22  O   UNK N   1      18.632  18.536   2.579  0.00  0.00    -0.393 OA
HETATM   23  H   UNK N   1      18.229  18.669   3.452  0.00  0.00     0.210 HD
ENDBRANCH  21  22
ENDBRANCH  11  13
BRANCH  10  24
HETATM   24  O   UNK N   1      18.775  16.453   4.562  0.00  0.00    -0.348 OA
HETATM   25  H   UNK N   1      18.016  16.992   4.460  0.00  0.00     0.219 HD
ENDBRANCH  10  24
ENDBRANCH   9  10
BRANCH   9  26
HETATM   26  O   UNK N   1      20.972  14.069   3.046  0.00  0.00    -0.371 OA
BRANCH  26  27
HETATM   27  C   UNK N   1      20.707  12.834   2.417  0.00  0.00     0.207 C 
BRANCH  27  28
HETATM   28  C   UNK N   1      21.858  12.265   1.648  0.00  0.00    -0.035 A 
HETATM   29  C   UNK N   1      22.243  12.899   0.462  0.00  0.00     0.009 A 
HETATM   30  C   UNK N   1      23.307  12.399  -0.292  0.00  0.00     0.001 A 
HETATM   31  C   UNK N   1      23.992  11.259   0.139  0.00  0.00     0.000 A 
HETATM   32  C   UNK N   1      23.612  10.623   1.325  0.00  0.00     0.001 A 
HETATM   33  C   UNK N   1      22.546  11.124   2.080  0.00  0.00     0.009 A 
ENDBRANCH  27  28
ENDBRANCH  26  27
ENDBRANCH   9  26
ENDBRANCH   8   9
BRANCH   8  34
HETATM   34  O   UNK N   1      19.461  12.788   5.699  0.00  0.00    -0.392 OA
HETATM   35  H   UNK N   1      19.471  11.818   5.748  0.00  0.00     0.210 HD
ENDBRANCH   8  34
ENDBRANCH   7   8
ENDBRANCH   6   7
BRANCH   6  36
HETATM   36  O   UNK N   1      21.609  14.008   8.159  0.00  0.00    -0.373 OA
BRANCH  36  37
HETATM   37  C   UNK N   1      21.442  12.694   8.642  0.00  0.00     0.207 C 
BRANCH  37  38
HETATM   38  C   UNK N   1      22.279  12.425   9.852  0.00  0.00    -0.035 A 
HETATM   39  C   UNK N   1      21.654  12.192  11.082  0.00  0.00     0.009 A 
HETATM   40  C   UNK N   1      22.419  11.937  12.224  0.00  0.00     0.001 A 
HETATM   41  C   UNK N   1      23.813  11.917  12.137  0.00  0.00     0.000 A 
HETATM   42  C   UNK N   1      24.442  12.160  10.912  0.00  0.00     0.001 A 
HETATM   43  C   UNK N   1      23.676  12.418   9.770  0.00  0.00     0.009 A 
ENDBRANCH  37  38
ENDBRANCH  36  37
ENDBRANCH   6  36
ENDBRANCH   1   6
BRANCH   2  44
HETATM   44  C   UNK N   1      25.112  14.922   6.035  0.00  0.00     0.146 C 
HETATM   45  C   UNK N   1      25.292  15.032   4.571  0.00  0.00    -0.027 A 
HETATM   46  C   UNK N   1      24.470  14.466   3.593  0.00  0.00     0.010 A 
HETATM   47  C   UNK N   1      26.223  15.987   4.247  0.00  0.00    -0.047 A 
HETATM   48  C   UNK N   1      24.652  14.847   2.257  0.00  0.00     0.001 A 
HETATM   49  C   UNK N   1      25.614  15.817   1.926  0.00  0.00     0.001 A 
HETATM   50  C   UNK N   1      26.400  16.405   2.929  0.00  0.00     0.008 A 
HETATM   51  C   UNK N   1      26.875  16.564   5.447  0.00  0.00     0.073 C 
HETATM   52  C   UNK N   1      26.460  15.524   6.500  0.00  0.00     0.149 C 
BRANCH  52  53
HETATM   53  O   UNK N   1      26.415  16.044   7.794  0.00  0.00    -0.393 OA
HETATM   54  H   UNK N   1      25.663  16.577   8.094  0.00  0.00     0.210 HD
ENDBRANCH  52  53
ENDBRANCH   2  44
TORSDOF 17
ENDMDL
MODEL 3
REMARK VINA RESULT:      -6.9      7.320     11.689
REMARK  17 active torsions:
REMARK  status: ('A' for Active; 'I' for Inactive)
REMARK    1  A    between atoms: C_32  and  C_21 
REMARK    2  A    between atoms: C_33  and  C_21 
REMARK    3  A    between atoms: C_24  and  C_22 
REMARK    4  A    between atoms: O_48  and  C_22 
REMARK    5  A    between atoms: C_25  and  C_23 
REMARK    6  A    between atoms: O_49  and  C_23 
REMARK    7  A    between atoms: C_30  and  O_43 
REMARK    8  A    between atoms: C_31  and  O_44 
REMARK    9  A    between atoms: C_36  and  C_32 
REMARK   10  A    between atoms: C_32  and  O_45 
REMARK   11  A    between atoms: C_37  and  C_33 
REMARK   12  A    between atoms: C_33  and  O_48 
REMARK   13  A    between atoms: C_34  and  N_39 
REMARK   14  A    between atoms: C_35  and  N_41 
REMARK   15  A    between atoms: C_38  and  C_36 
REMARK   16  A    between atoms: C_36  and  O_49 
REMARK   17  A    between atoms: C_38  and  O_47 
ROOT
HETATM    1  C   UNK N   1      27.655  19.434   5.930  0.00  0.00     0.141 C 
HETATM    2  N   UNK N   1      28.411  19.051   6.911  0.00  0.00    -0.361 N 
ATOM      3  HN  UNK N   1      28.984  19.768   7.354  1.00  0.00     0.162 HD
HETATM    4  O   UNK N   1      27.782  20.696   5.481  0.00  0.00    -0.348 OA
HETATM    5  H   UNK N   1      27.790  21.518   5.031  0.00  0.00     0.219 HD
ENDROOT
BRANCH   1   6
HETATM    6  C   UNK N   1      26.592  18.564   5.301  0.00  0.00     0.198 C 
BRANCH   6   7
HETATM    7  C   UNK N   1      27.241  18.184   3.966  0.00  0.00     0.075 C 
BRANCH   7   8
HETATM    8  C   UNK N   1      27.081  16.750   3.468  0.00  0.00     0.158 C 
BRANCH   8   9
HETATM    9  C   UNK N   1      27.607  15.703   4.496  0.00  0.00     0.224 C 
BRANCH   9  10
HETATM   10  C   UNK N   1      26.414  14.835   4.803  0.00  0.00     0.144 C 
HETATM   11  N   UNK N   1      25.632  15.088   5.799  0.00  0.00    -0.361 N 
ATOM     12  HN  UNK N   1      25.868  15.847   6.438  1.00  0.00     0.162 HD
BRANCH  11  13
HETATM   13  C   UNK N   1      24.420  14.315   6.032  0.00  0.00     0.146 C 
HETATM   14  C   UNK N   1      24.157  13.975   7.442  0.00  0.00    -0.027 A 
HETATM   15  C   UNK N   1      25.067  13.493   8.385  0.00  0.00     0.010 A 
HETATM   16  C   UNK N   1      22.810  14.005   7.702  0.00  0.00    -0.047 A 
HETATM   17  C   UNK N   1      24.581  13.089   9.637  0.00  0.00     0.001 A 
HETATM   18  C   UNK N   1      23.199  13.126   9.906  0.00  0.00     0.001 A 
HETATM   19  C   UNK N   1      22.300  13.577   8.926  0.00  0.00     0.008 A 
HETATM   20  C   UNK N   1      22.023  14.463   6.527  0.00  0.00     0.073 C 
HETATM   21  C   UNK N   1      23.142  15.103   5.685  0.00  0.00     0.149 C 
BRANCH  21  22
HETATM   22  O   UNK N   1      22.864  15.086   4.318  0.00  0.00    -0.393 OA
HETATM   23  H   UNK N   1      23.053  14.301   3.781  0.00  0.00     0.210 HD
ENDBRANCH  21  22
ENDBRANCH  11  13
BRANCH  10  24
HETATM   24  O   UNK N   1      26.146  13.811   3.960  0.00  0.00    -0.348 OA
HETATM   25  H   UNK N   1      26.410  13.181   3.318  0.00  0.00     0.219 HD
ENDBRANCH  10  24
ENDBRANCH   9  10
BRANCH   9  26
HETATM   26  O   UNK N   1      28.627  14.839   4.011  0.00  0.00    -0.371 OA
BRANCH  26  27
HETATM   27  C   UNK N   1      29.316  15.424   2.928  0.00  0.00     0.207 C 
BRANCH  27  28
HETATM   28  C   UNK N   1      30.804  15.456   3.079  0.00  0.00    -0.035 A 
HETATM   29  C   UNK N   1      31.484  16.624   2.717  0.00  0.00     0.009 A 
HETATM   30  C   UNK N   1      32.873  16.698   2.835  0.00  0.00     0.001 A 
HETATM   31  C   UNK N   1      33.591  15.600   3.316  0.00  0.00     0.000 A 
HETATM   32  C   UNK N   1      32.916  14.430   3.681  0.00  0.00     0.001 A 
HETATM   33  C   UNK N   1      31.524  14.357   3.563  0.00  0.00     0.009 A 
ENDBRANCH  27  28
ENDBRANCH  26  27
ENDBRANCH   9  26
ENDBRANCH   8   9
BRANCH   8  34
HETATM   34  O   UNK N   1      25.727  16.471   3.235  0.00  0.00    -0.392 OA
HETATM   35  H   UNK N   1      24.928  16.082   3.625  0.00  0.00     0.210 HD
ENDBRANCH   8  34
ENDBRANCH   7   8
ENDBRANCH   6   7
BRANCH   6  36
HETATM   36  O   UNK N   1      25.339  19.231   5.254  0.00  0.00    -0.373 OA
BRANCH  36  37
HETATM   37  C   UNK N   1      25.050  19.732   3.969  0.00  0.00     0.207 C 
BRANCH  37  38
HETATM   38  C   UNK N   1      23.595  19.632   3.637  0.00  0.00    -0.035 A 
HETATM   39  C   UNK N   1      22.832  18.599   4.193  0.00  0.00     0.009 A 
HETATM   40  C   UNK N   1      21.471  18.490   3.896  0.00  0.00     0.001 A 
HETATM   41  C   UNK N   1      20.869  19.413   3.038  0.00  0.00     0.000 A 
HETATM   42  C   UNK N   1      21.630  20.441   2.471  0.00  0.00     0.001 A 
HETATM   43  C   UNK N   1      22.994  20.548   2.767  0.00  0.00     0.009 A 
ENDBRANCH  37  38
ENDBRANCH  36  37
ENDBRANCH   6  36
ENDBRANCH   1   6
BRANCH   2  44
HETATM   44  C   UNK N   1      28.524  17.702   7.441  0.00  0.00     0.146 C 
HETATM   45  C   UNK N   1      29.976  17.424   7.377  0.00  0.00    -0.027 A 
HETATM   46  C   UNK N   1      30.713  17.138   6.225  0.00  0.00     0.010 A 
HETATM   47  C   UNK N   1      30.602  17.737   8.558  0.00  0.00    -0.047 A 
HETATM   48  C   UNK N   1      32.111  17.117   6.307  0.00  0.00     0.001 A 
HETATM   49  C   UNK N   1      32.750  17.426   7.520  0.00  0.00     0.001 A 
HETATM   50  C   UNK N   1      31.992  17.753   8.655  0.00  0.00     0.008 A 
HETATM   51  C   UNK N   1      29.642  18.155   9.607  0.00  0.00     0.073 C 
HETATM   52  C   UNK N   1      28.329  17.668   8.976  0.00  0.00     0.149 C 
BRANCH  52  53
HETATM   53  O   UNK N   1      27.214  18.388   9.406  0.00  0.00    -0.393 OA
HETATM   54  H   UNK N   1      26.331  17.988   9.413  0.00  0.00     0.210 HD
ENDBRANCH  52  53
ENDBRANCH   2  44
TORSDOF 17
ENDMDL
MODEL 4
REMARK VINA RESULT:      -6.9      6.998     11.432
REMARK  17 active torsions:
REMARK  status: ('A' for Active; 'I' for Inactive)
REMARK    1  A    between atoms: C_32  and  C_21 
REMARK    2  A    between atoms: C_33  and  C_21 
REMARK    3  A    between atoms: C_24  and  C_22 
REMARK    4  A    between atoms: O_48  and  C_22 
REMARK    5  A    between atoms: C_25  and  C_23 
REMARK    6  A    between atoms: O_49  and  C_23 
REMARK    7  A    between atoms: C_30  and  O_43 
REMARK    8  A    between atoms: C_31  and  O_44 
REMARK    9  A    between atoms: C_36  and  C_32 
REMARK   10  A    between atoms: C_32  and  O_45 
REMARK   11  A    between atoms: C_37  and  C_33 
REMARK   12  A    between atoms: C_33  and  O_48 
REMARK   13  A    between atoms: C_34  and  N_39 
REMARK   14  A    between atoms: C_35  and  N_41 
REMARK   15  A    between atoms: C_38  and  C_36 
REMARK   16  A    between atoms: C_36  and  O_49 
REMARK   17  A    between atoms: C_38  and  O_47 
ROOT
HETATM    1  C   UNK N   1      27.961  17.985   5.071  0.00  0.00     0.141 C 
HETATM    2  N   UNK N   1      28.694  18.142   6.127  0.00  0.00    -0.361 N 
ATOM      3  HN  UNK N   1      29.326  18.942   6.131  1.00  0.00     0.162 HD
HETATM    4  O   UNK N   1      28.183  18.788   4.014  0.00  0.00    -0.348 OA
HETATM    5  H   UNK N   1      28.250  19.232   3.191  0.00  0.00     0.219 HD
ENDROOT
BRANCH   1   6
HETATM    6  C   UNK N   1      26.826  16.992   4.977  0.00  0.00     0.198 C 
BRANCH   6   7
HETATM    7  C   UNK N   1      27.003  16.440   3.558  0.00  0.00     0.075 C 
BRANCH   7   8
HETATM    8  C   UNK N   1      27.320  14.956   3.395  0.00  0.00     0.158 C 
BRANCH   8   9
HETATM    9  C   UNK N   1      27.979  14.346   4.669  0.00  0.00     0.224 C 
BRANCH   9  10
HETATM   10  C   UNK N   1      27.035  13.257   5.106  0.00  0.00     0.144 C 
HETATM   11  N   UNK N   1      26.010  13.508   5.852  0.00  0.00    -0.361 N 
ATOM     12  HN  UNK N   1      25.878  14.451   6.216  1.00  0.00     0.162 HD
BRANCH  11  13
HETATM   13  C   UNK N   1      25.038  12.475   6.184  0.00  0.00     0.146 C 
HETATM   14  C   UNK N   1      24.287  12.703   7.431  0.00  0.00    -0.027 A 
HETATM   15  C   UNK N   1      24.790  13.120   8.664  0.00  0.00     0.010 A 
HETATM   16  C   UNK N   1      22.994  12.261   7.302  0.00  0.00    -0.047 A 
HETATM   17  C   UNK N   1      23.927  13.133   9.770  0.00  0.00     0.001 A 
HETATM   18  C   UNK N   1      22.598  12.685   9.636  0.00  0.00     0.001 A 
HETATM   19  C   UNK N   1      22.128  12.233   8.393  0.00  0.00     0.008 A 
HETATM   20  C   UNK N   1      22.702  11.777   5.927  0.00  0.00     0.073 C 
HETATM   21  C   UNK N   1      23.885  12.401   5.164  0.00  0.00     0.149 C 
BRANCH  21  22
HETATM   22  O   UNK N   1      24.233  11.676   4.024  0.00  0.00    -0.393 OA
HETATM   23  H   UNK N   1      24.997  11.932   3.485  0.00  0.00     0.210 HD
ENDBRANCH  21  22
ENDBRANCH  11  13
BRANCH  10  24
HETATM   24  O   UNK N   1      27.256  12.006   4.637  0.00  0.00    -0.348 OA
HETATM   25  H   UNK N   1      27.807  11.360   4.243  0.00  0.00     0.219 HD
ENDBRANCH  10  24
ENDBRANCH   9  10
BRANCH   9  26
HETATM   26  O   UNK N   1      29.244  13.732   4.461  0.00  0.00    -0.371 OA
BRANCH  26  27
HETATM   27  C   UNK N   1      29.755  14.040   3.183  0.00  0.00     0.207 C 
BRANCH  27  28
HETATM   28  C   UNK N   1      30.983  14.894   3.190  0.00  0.00    -0.035 A 
HETATM   29  C   UNK N   1      30.829  16.281   3.090  0.00  0.00     0.009 A 
HETATM   30  C   UNK N   1      31.947  17.118   3.087  0.00  0.00     0.001 A 
HETATM   31  C   UNK N   1      33.229  16.569   3.183  0.00  0.00     0.000 A 
HETATM   32  C   UNK N   1      33.388  15.183   3.285  0.00  0.00     0.001 A 
HETATM   33  C   UNK N   1      32.268  14.345   3.288  0.00  0.00     0.009 A 
ENDBRANCH  27  28
ENDBRANCH  26  27
ENDBRANCH   9  26
ENDBRANCH   8   9
BRANCH   8  34
HETATM   34  O   UNK N   1      26.143  14.238   3.144  0.00  0.00    -0.392 OA
HETATM   35  H   UNK N   1      25.362  13.841   3.562  0.00  0.00     0.210 HD
ENDBRANCH   8  34
ENDBRANCH   7   8
ENDBRANCH   6   7
BRANCH   6  36
HETATM   36  O   UNK N   1      25.582  17.596   5.294  0.00  0.00    -0.373 OA
BRANCH  36  37
HETATM   37  C   UNK N   1      24.499  16.952   4.661  0.00  0.00     0.207 C 
BRANCH  37  38
HETATM   38  C   UNK N   1      23.274  16.929   5.519  0.00  0.00    -0.035 A 
HETATM   39  C   UNK N   1      22.440  18.052   5.557  0.00  0.00     0.009 A 
HETATM   40  C   UNK N   1      21.290  18.050   6.351  0.00  0.00     0.001 A 
HETATM   41  C   UNK N   1      20.973  16.923   7.113  0.00  0.00     0.000 A 
HETATM   42  C   UNK N   1      21.810  15.802   7.087  0.00  0.00     0.001 A 
HETATM   43  C   UNK N   1      22.962  15.806   6.293  0.00  0.00     0.009 A 
ENDBRANCH  37  38
ENDBRANCH  36  37
ENDBRANCH   6  36
ENDBRANCH   1   6
BRANCH   2  44
HETATM   44  C   UNK N   1      28.707  17.293   7.307  0.00  0.00     0.146 C 
HETATM   45  C   UNK N   1      30.131  16.918   7.451  0.00  0.00    -0.027 A 
HETATM   46  C   UNK N   1      30.827  15.999   6.662  0.00  0.00     0.010 A 
HETATM   47  C   UNK N   1      30.795  17.774   8.293  0.00  0.00    -0.047 A 
HETATM   48  C   UNK N   1      32.220  15.922   6.787  0.00  0.00     0.001 A 
HETATM   49  C   UNK N   1      32.898  16.792   7.659  0.00  0.00     0.001 A 
HETATM   50  C   UNK N   1      32.183  17.737   8.411  0.00  0.00     0.008 A 
HETATM   51  C   UNK N   1      29.886  18.765   8.917  0.00  0.00     0.073 C 
HETATM   52  C   UNK N   1      28.530  18.111   8.609  0.00  0.00     0.149 C 
BRANCH  52  53
HETATM   53  O   UNK N   1      27.482  19.030   8.544  0.00  0.00    -0.393 OA
HETATM   54  H   UNK N   1      27.570  19.856   8.042  0.00  0.00     0.210 HD
ENDBRANCH  52  53
ENDBRANCH   2  44
TORSDOF 17
ENDMDL
MODEL 5
REMARK VINA RESULT:      -6.8     10.498     15.089
REMARK  17 active torsions:
REMARK  status: ('A' for Active; 'I' for Inactive)
REMARK    1  A    between atoms: C_32  and  C_21 
REMARK    2  A    between atoms: C_33  and  C_21 
REMARK    3  A    between atoms: C_24  and  C_22 
REMARK    4  A    between atoms: O_48  and  C_22 
REMARK    5  A    between atoms: C_25  and  C_23 
REMARK    6  A    between atoms: O_49  and  C_23 
REMARK    7  A    between atoms: C_30  and  O_43 
REMARK    8  A    between atoms: C_31  and  O_44 
REMARK    9  A    between atoms: C_36  and  C_32 
REMARK   10  A    between atoms: C_32  and  O_45 
REMARK   11  A    between atoms: C_37  and  C_33 
REMARK   12  A    between atoms: C_33  and  O_48 
REMARK   13  A    between atoms: C_34  and  N_39 
REMARK   14  A    between atoms: C_35  and  N_41 
REMARK   15  A    between atoms: C_38  and  C_36 
REMARK   16  A    between atoms: C_36  and  O_49 
REMARK   17  A    between atoms: C_38  and  O_47 
ROOT
HETATM    1  C   UNK N   1      22.726  15.559   6.046  0.00  0.00     0.141 C 
HETATM    2  N   UNK N   1      23.893  15.058   5.793  0.00  0.00    -0.361 N 
ATOM      3  HN  UNK N   1      24.700  15.639   6.017  1.00  0.00     0.162 HD
HETATM    4  O   UNK N   1      22.654  16.842   6.446  0.00  0.00    -0.348 OA
HETATM    5  H   UNK N   1      22.442  17.724   6.682  0.00  0.00     0.219 HD
ENDROOT
BRANCH   1   6
HETATM    6  C   UNK N   1      21.440  14.768   5.978  0.00  0.00     0.198 C 
BRANCH   6   7
HETATM    7  C   UNK N   1      20.862  15.215   4.631  0.00  0.00     0.075 C 
BRANCH   7   8
HETATM    8  C   UNK N   1      20.142  16.560   4.567  0.00  0.00     0.158 C 
BRANCH   8   9
HETATM    9  C   UNK N   1      20.501  17.364   3.281  0.00  0.00     0.224 C 
BRANCH   9  10
HETATM   10  C   UNK N   1      21.486  18.406   3.744  0.00  0.00     0.144 C 
HETATM   11  N   UNK N   1      22.758  18.258   3.571  0.00  0.00    -0.361 N 
ATOM     12  HN  UNK N   1      23.110  17.384   3.182  1.00  0.00     0.162 HD
BRANCH  11  13
HETATM   13  C   UNK N   1      23.702  19.312   3.920  0.00  0.00     0.146 C 
HETATM   14  C   UNK N   1      25.102  18.874   4.061  0.00  0.00    -0.027 A 
HETATM   15  C   UNK N   1      25.578  17.743   4.727  0.00  0.00     0.010 A 
HETATM   16  C   UNK N   1      25.958  19.844   3.603  0.00  0.00    -0.047 A 
HETATM   17  C   UNK N   1      26.964  17.586   4.872  0.00  0.00     0.001 A 
HETATM   18  C   UNK N   1      27.843  18.579   4.397  0.00  0.00     0.001 A 
HETATM   19  C   UNK N   1      27.337  19.727   3.766  0.00  0.00     0.008 A 
HETATM   20  C   UNK N   1      25.232  21.000   3.014  0.00  0.00     0.073 C 
HETATM   21  C   UNK N   1      23.843  20.369   2.807  0.00  0.00     0.149 C 
BRANCH  21  22
HETATM   22  O   UNK N   1      22.814  21.310   2.838  0.00  0.00    -0.393 OA
HETATM   23  H   UNK N   1      22.208  21.362   3.594  0.00  0.00     0.210 HD
ENDBRANCH  21  22
ENDBRANCH  11  13
BRANCH  10  24
HETATM   24  O   UNK N   1      20.993  19.541   4.292  0.00  0.00    -0.348 OA
HETATM   25  H   UNK N   1      20.302  20.028   4.696  0.00  0.00     0.219 HD
ENDBRANCH  10  24
ENDBRANCH   9  10
BRANCH   9  26
HETATM   26  O   UNK N   1      21.147  16.616   2.260  0.00  0.00    -0.371 OA
BRANCH  26  27
HETATM   27  C   UNK N   1      20.268  16.353   1.189  0.00  0.00     0.207 C 
BRANCH  27  28
HETATM   28  C   UNK N   1      20.035  14.900   0.914  0.00  0.00    -0.035 A 
HETATM   29  C   UNK N   1      21.124  14.026   0.994  0.00  0.00     0.009 A 
HETATM   30  C   UNK N   1      20.956  12.663   0.739  0.00  0.00     0.001 A 
HETATM   31  C   UNK N   1      19.693  12.168   0.402  0.00  0.00     0.000 A 
HETATM   32  C   UNK N   1      18.601  13.038   0.322  0.00  0.00     0.001 A 
HETATM   33  C   UNK N   1      18.770  14.403   0.577  0.00  0.00     0.009 A 
ENDBRANCH  27  28
ENDBRANCH  26  27
ENDBRANCH   9  26
ENDBRANCH   8   9
BRANCH   8  34
HETATM   34  O   UNK N   1      18.754  16.362   4.568  0.00  0.00    -0.392 OA
HETATM   35  H   UNK N   1      17.930  16.592   5.026  0.00  0.00     0.210 HD
ENDBRANCH   8  34
ENDBRANCH   7   8
ENDBRANCH   6   7
BRANCH   6  36
HETATM   36  O   UNK N   1      20.644  14.975   7.135  0.00  0.00    -0.373 OA
BRANCH  36  37
HETATM   37  C   UNK N   1      21.421  15.297   8.267  0.00  0.00     0.207 C 
BRANCH  37  38
HETATM   38  C   UNK N   1      21.441  14.191   9.273  0.00  0.00    -0.035 A 
HETATM   39  C   UNK N   1      22.640  13.520   9.535  0.00  0.00     0.009 A 
HETATM   40  C   UNK N   1      22.679  12.485  10.473  0.00  0.00     0.001 A 
HETATM   41  C   UNK N   1      21.514  12.116  11.150  0.00  0.00     0.000 A 
HETATM   42  C   UNK N   1      20.311  12.776  10.884  0.00  0.00     0.001 A 
HETATM   43  C   UNK N   1      20.272  13.811   9.942  0.00  0.00     0.009 A 
ENDBRANCH  37  38
ENDBRANCH  36  37
ENDBRANCH   6  36
ENDBRANCH   1   6
BRANCH   2  44
HETATM   44  C   UNK N   1      24.169  13.750   5.220  0.00  0.00     0.146 C 
HETATM   45  C   UNK N   1      24.818  14.066   3.928  0.00  0.00    -0.027 A 
HETATM   46  C   UNK N   1      24.183  14.543   2.779  0.00  0.00     0.010 A 
HETATM   47  C   UNK N   1      26.186  14.093   4.045  0.00  0.00    -0.047 A 
HETATM   48  C   UNK N   1      24.971  15.000   1.714  0.00  0.00     0.001 A 
HETATM   49  C   UNK N   1      26.372  15.016   1.830  0.00  0.00     0.001 A 
HETATM   50  C   UNK N   1      26.988  14.571   3.011  0.00  0.00     0.008 A 
HETATM   51  C   UNK N   1      26.642  13.687   5.395  0.00  0.00     0.073 C 
HETATM   52  C   UNK N   1      25.351  13.047   5.930  0.00  0.00     0.149 C 
BRANCH  52  53
HETATM   53  O   UNK N   1      25.258  13.084   7.322  0.00  0.00    -0.393 OA
HETATM   54  H   UNK N   1      25.768  13.725   7.842  0.00  0.00     0.210 HD
ENDBRANCH  52  53
ENDBRANCH   2  44
TORSDOF 17
ENDMDL
MODEL 6
REMARK VINA RESULT:      -6.7      7.524     13.360
REMARK  17 active torsions:
REMARK  status: ('A' for Active; 'I' for Inactive)
REMARK    1  A    between atoms: C_32  and  C_21 
REMARK    2  A    between atoms: C_33  and  C_21 
REMARK    3  A    between atoms: C_24  and  C_22 
REMARK    4  A    between atoms: O_48  and  C_22 
REMARK    5  A    between atoms: C_25  and  C_23 
REMARK    6  A    between atoms: O_49  and  C_23 
REMARK    7  A    between atoms: C_30  and  O_43 
REMARK    8  A    between atoms: C_31  and  O_44 
REMARK    9  A    between atoms: C_36  and  C_32 
REMARK   10  A    between atoms: C_32  and  O_45 
REMARK   11  A    between atoms: C_37  and  C_33 
REMARK   12  A    between atoms: C_33  and  O_48 
REMARK   13  A    between atoms: C_34  and  N_39 
REMARK   14  A    between atoms: C_35  and  N_41 
REMARK   15  A    between atoms: C_38  and  C_36 
REMARK   16  A    between atoms: C_36  and  O_49 
REMARK   17  A    between atoms: C_38  and  O_47 
ROOT
HETATM    1  C   UNK N   1      23.763  15.303   5.136  0.00  0.00     0.141 C 
HETATM    2  N   UNK N   1      23.038  16.341   4.863  0.00  0.00    -0.361 N 
ATOM      3  HN  UNK N   1      22.488  16.303   4.006  1.00  0.00     0.162 HD
HETATM    4  O   UNK N   1      23.849  14.324   4.217  0.00  0.00    -0.348 OA
HETATM    5  H   UNK N   1      24.044  13.592   3.664  0.00  0.00     0.219 HD
ENDROOT
BRANCH   1   6
HETATM    6  C   UNK N   1      24.470  15.097   6.456  0.00  0.00     0.198 C 
BRANCH   6   7
HETATM    7  C   UNK N   1      25.835  14.567   6.005  0.00  0.00     0.075 C 
BRANCH   7   8
HETATM    8  C   UNK N   1      26.978  15.565   5.841  0.00  0.00     0.158 C 
BRANCH   8   9
HETATM    9  C   UNK N   1      27.145  16.041   4.367  0.00  0.00     0.224 C 
BRANCH   9  10
HETATM   10  C   UNK N   1      28.371  16.915   4.382  0.00  0.00     0.144 C 
HETATM   11  N   UNK N   1      29.441  16.569   5.017  0.00  0.00    -0.361 N 
ATOM     12  HN  UNK N   1      29.432  15.722   5.584  1.00  0.00     0.162 HD
BRANCH  11  13
HETATM   13  C   UNK N   1      30.662  17.360   4.943  0.00  0.00     0.146 C 
HETATM   14  C   UNK N   1      31.505  17.323   6.151  0.00  0.00    -0.027 A 
HETATM   15  C   UNK N   1      31.094  17.436   7.480  0.00  0.00     0.010 A 
HETATM   16  C   UNK N   1      32.835  17.351   5.811  0.00  0.00    -0.047 A 
HETATM   17  C   UNK N   1      32.076  17.525   8.479  0.00  0.00     0.001 A 
HETATM   18  C   UNK N   1      33.440  17.548   8.130  0.00  0.00     0.001 A 
HETATM   19  C   UNK N   1      33.826  17.473   6.782  0.00  0.00     0.008 A 
HETATM   20  C   UNK N   1      33.037  17.313   4.339  0.00  0.00     0.073 C 
HETATM   21  C   UNK N   1      31.648  16.825   3.887  0.00  0.00     0.149 C 
BRANCH  21  22
HETATM   22  O   UNK N   1      31.323  17.245   2.598  0.00  0.00    -0.393 OA
HETATM   23  H   UNK N   1      30.441  17.592   2.394  0.00  0.00     0.210 HD
ENDBRANCH  21  22
ENDBRANCH  11  13
BRANCH  10  24
HETATM   24  O   UNK N   1      28.343  18.053   3.650  0.00  0.00    -0.348 OA
HETATM   25  H   UNK N   1      28.017  18.567   2.937  0.00  0.00     0.219 HD
ENDBRANCH  10  24
ENDBRANCH   9  10
BRANCH   9  26
HETATM   26  O   UNK N   1      27.391  15.007   3.422  0.00  0.00    -0.371 OA
BRANCH  26  27
HETATM   27  C   UNK N   1      26.818  15.315   2.170  0.00  0.00     0.207 C 
BRANCH  27  28
HETATM   28  C   UNK N   1      25.846  14.298   1.661  0.00  0.00    -0.035 A 
HETATM   29  C   UNK N   1      26.115  12.945   1.895  0.00  0.00     0.009 A 
HETATM   30  C   UNK N   1      25.240  11.960   1.433  0.00  0.00     0.001 A 
HETATM   31  C   UNK N   1      24.087  12.326   0.731  0.00  0.00     0.000 A 
HETATM   32  C   UNK N   1      23.812  13.677   0.497  0.00  0.00     0.001 A 
HETATM   33  C   UNK N   1      24.690  14.664   0.960  0.00  0.00     0.009 A 
ENDBRANCH  27  28
ENDBRANCH  26  27
ENDBRANCH   9  26
ENDBRANCH   8   9
BRANCH   8  34
HETATM   34  O   UNK N   1      26.741  16.700   6.628  0.00  0.00    -0.392 OA
HETATM   35  H   UNK N   1      26.312  17.571   6.639  0.00  0.00     0.210 HD
ENDBRANCH   8  34
ENDBRANCH   7   8
ENDBRANCH   6   7
BRANCH   6  36
HETATM   36  O   UNK N   1      23.706  14.280   7.330  0.00  0.00    -0.373 OA
BRANCH  36  37
HETATM   37  C   UNK N   1      24.510  13.615   8.278  0.00  0.00     0.207 C 
BRANCH  37  38
HETATM   38  C   UNK N   1      23.710  13.079   9.422  0.00  0.00    -0.035 A 
HETATM   39  C   UNK N   1      22.337  13.341   9.484  0.00  0.00     0.009 A 
HETATM   40  C   UNK N   1      21.572  12.846  10.544  0.00  0.00     0.001 A 
HETATM   41  C   UNK N   1      22.181  12.089  11.547  0.00  0.00     0.000 A 
HETATM   42  C   UNK N   1      23.555  11.834  11.495  0.00  0.00     0.001 A 
HETATM   43  C   UNK N   1      24.321  12.331  10.435  0.00  0.00     0.009 A 
ENDBRANCH  37  38
ENDBRANCH  36  37
ENDBRANCH   6  36
ENDBRANCH   1   6
BRANCH   2  44
HETATM   44  C   UNK N   1      22.932  17.556   5.654  0.00  0.00     0.146 C 
HETATM   45  C   UNK N   1      23.500  18.598   4.771  0.00  0.00    -0.027 A 
HETATM   46  C   UNK N   1      24.854  18.789   4.483  0.00  0.00     0.010 A 
HETATM   47  C   UNK N   1      22.525  19.220   4.033  0.00  0.00    -0.047 A 
HETATM   48  C   UNK N   1      25.206  19.677   3.459  0.00  0.00     0.001 A 
HETATM   49  C   UNK N   1      24.206  20.323   2.711  0.00  0.00     0.001 A 
HETATM   50  C   UNK N   1      22.851  20.084   2.989  0.00  0.00     0.008 A 
HETATM   51  C   UNK N   1      21.164  18.764   4.403  0.00  0.00     0.073 C 
HETATM   52  C   UNK N   1      21.472  18.065   5.736  0.00  0.00     0.149 C 
BRANCH  52  53
HETATM   53  O   UNK N   1      20.556  17.062   6.053  0.00  0.00    -0.393 OA
HETATM   54  H   UNK N   1      20.596  16.193   5.624  0.00  0.00     0.210 HD
ENDBRANCH  52  53
ENDBRANCH   2  44
TORSDOF 17
ENDMDL
MODEL 7
REMARK VINA RESULT:      -6.7      1.788      8.199
REMARK  17 active torsions:
REMARK  status: ('A' for Active; 'I' for Inactive)
REMARK    1  A    between atoms: C_32  and  C_21 
REMARK    2  A    between atoms: C_33  and  C_21 
REMARK    3  A    between atoms: C_24  and  C_22 
REMARK    4  A    between atoms: O_48  and  C_22 
REMARK    5  A    between atoms: C_25  and  C_23 
REMARK    6  A    between atoms: O_49  and  C_23 
REMARK    7  A    between atoms: C_30  and  O_43 
REMARK    8  A    between atoms: C_31  and  O_44 
REMARK    9  A    between atoms: C_36  and  C_32 
REMARK   10  A    between atoms: C_32  and  O_45 
REMARK   11  A    between atoms: C_37  and  C_33 
REMARK   12  A    between atoms: C_33  and  O_48 
REMARK   13  A    between atoms: C_34  and  N_39 
REMARK   14  A    between atoms: C_35  and  N_41 
REMARK   15  A    between atoms: C_38  and  C_36 
REMARK   16  A    between atoms: C_36  and  O_49 
REMARK   17  A    between atoms: C_38  and  O_47 
ROOT
HETATM    1  C   UNK N   1      35.495  13.261   7.552  0.00  0.00     0.141 C 
HETATM    2  N   UNK N   1      35.578  12.838   6.330  0.00  0.00    -0.361 N 
ATOM      3  HN  UNK N   1      36.419  13.093   5.813  1.00  0.00     0.162 HD
HETATM    4  O   UNK N   1      36.437  14.112   7.998  0.00  0.00    -0.348 OA
HETATM    5  H   UNK N   1      36.983  14.738   8.432  0.00  0.00     0.219 HD
ENDROOT
BRANCH   1   6
HETATM    6  C   UNK N   1      34.434  12.807   8.527  0.00  0.00     0.198 C 
BRANCH   6   7
HETATM    7  C   UNK N   1      33.615  14.087   8.724  0.00  0.00     0.075 C 
BRANCH   7   8
HETATM    8  C   UNK N   1      33.531  14.681  10.128  0.00  0.00     0.158 C 
BRANCH   8   9
HETATM    9  C   UNK N   1      34.464  15.917  10.306  0.00  0.00     0.224 C 
BRANCH   9  10
HETATM   10  C   UNK N   1      35.598  15.421  11.166  0.00  0.00     0.144 C 
HETATM   11  N   UNK N   1      35.458  14.403  11.949  0.00  0.00    -0.361 N 
ATOM     12  HN  UNK N   1      34.539  13.971  12.046  1.00  0.00     0.162 HD
BRANCH  11  13
HETATM   13  C   UNK N   1      36.581  13.858  12.698  0.00  0.00     0.146 C 
HETATM   14  C   UNK N   1      36.217  13.096  13.906  0.00  0.00    -0.027 A 
HETATM   15  C   UNK N   1      35.281  13.443  14.881  0.00  0.00     0.010 A 
HETATM   16  C   UNK N   1      37.070  12.035  14.082  0.00  0.00    -0.047 A 
HETATM   17  C   UNK N   1      35.190  12.649  16.034  0.00  0.00     0.001 A 
HETATM   18  C   UNK N   1      36.062  11.557  16.212  0.00  0.00     0.001 A 
HETATM   19  C   UNK N   1      37.021  11.252  15.234  0.00  0.00     0.008 A 
HETATM   20  C   UNK N   1      38.042  11.907  12.965  0.00  0.00     0.073 C 
HETATM   21  C   UNK N   1      37.353  12.785  11.905  0.00  0.00     0.149 C 
BRANCH  21  22
HETATM   22  O   UNK N   1      38.256  13.343  10.999  0.00  0.00    -0.393 OA
HETATM   23  H   UNK N   1      38.960  13.938  11.300  0.00  0.00     0.210 HD
ENDBRANCH  21  22
ENDBRANCH  11  13
BRANCH  10  24
HETATM   24  O   UNK N   1      36.797  16.037  11.045  0.00  0.00    -0.348 OA
HETATM   25  H   UNK N   1      37.556  16.272  10.549  0.00  0.00     0.219 HD
ENDBRANCH  10  24
ENDBRANCH   9  10
BRANCH   9  26
HETATM   26  O   UNK N   1      35.047  16.413   9.108  0.00  0.00    -0.371 OA
BRANCH  26  27
HETATM   27  C   UNK N   1      34.438  17.621   8.709  0.00  0.00     0.207 C 
BRANCH  27  28
HETATM   28  C   UNK N   1      33.464  17.486   7.580  0.00  0.00    -0.035 A 
HETATM   29  C   UNK N   1      33.957  17.516   6.271  0.00  0.00     0.009 A 
HETATM   30  C   UNK N   1      33.085  17.401   5.186  0.00  0.00     0.001 A 
HETATM   31  C   UNK N   1      31.713  17.255   5.407  0.00  0.00     0.000 A 
HETATM   32  C   UNK N   1      31.216  17.223   6.714  0.00  0.00     0.001 A 
HETATM   33  C   UNK N   1      32.089  17.339   7.801  0.00  0.00     0.009 A 
ENDBRANCH  27  28
ENDBRANCH  26  27
ENDBRANCH   9  26
ENDBRANCH   8   9
BRANCH   8  34
HETATM   34  O   UNK N   1      32.221  15.098  10.396  0.00  0.00    -0.392 OA
HETATM   35  H   UNK N   1      31.317  15.120  10.043  0.00  0.00     0.210 HD
ENDBRANCH   8  34
ENDBRANCH   7   8
ENDBRANCH   6   7
BRANCH   6  36
HETATM   36  O   UNK N   1      35.011  12.214   9.680  0.00  0.00    -0.373 OA
BRANCH  36  37
HETATM   37  C   UNK N   1      34.936  10.806   9.650  0.00  0.00     0.207 C 
BRANCH  37  38
HETATM   38  C   UNK N   1      34.946  10.210  11.021  0.00  0.00    -0.035 A 
HETATM   39  C   UNK N   1      34.047  10.683  11.983  0.00  0.00     0.009 A 
HETATM   40  C   UNK N   1      34.039  10.137  13.270  0.00  0.00     0.001 A 
HETATM   41  C   UNK N   1      34.935   9.116  13.598  0.00  0.00     0.000 A 
HETATM   42  C   UNK N   1      35.843   8.648  12.642  0.00  0.00     0.001 A 
HETATM   43  C   UNK N   1      35.852   9.197  11.355  0.00  0.00     0.009 A 
ENDBRANCH  37  38
ENDBRANCH  36  37
ENDBRANCH   6  36
ENDBRANCH   1   6
BRANCH   2  44
HETATM   44  C   UNK N   1      34.593  12.036   5.622  0.00  0.00     0.146 C 
HETATM   45  C   UNK N   1      34.423  12.748   4.337  0.00  0.00    -0.027 A 
HETATM   46  C   UNK N   1      33.732  13.946   4.141  0.00  0.00     0.010 A 
HETATM   47  C   UNK N   1      35.252  12.242   3.367  0.00  0.00    -0.047 A 
HETATM   48  C   UNK N   1      33.851  14.600   2.908  0.00  0.00     0.001 A 
HETATM   49  C   UNK N   1      34.692  14.075   1.911  0.00  0.00     0.001 A 
HETATM   50  C   UNK N   1      35.411  12.892   2.144  0.00  0.00     0.008 A 
HETATM   51  C   UNK N   1      36.003  11.053   3.834  0.00  0.00     0.073 C 
HETATM   52  C   UNK N   1      35.198  10.711   5.097  0.00  0.00     0.149 C 
BRANCH  52  53
HETATM   53  O   UNK N   1      35.948  10.029   6.056  0.00  0.00    -0.393 OA
HETATM   54  H   UNK N   1      35.606   9.228   6.483  0.00  0.00     0.210 HD
ENDBRANCH  52  53
ENDBRANCH   2  44
TORSDOF 17
ENDMDL
MODEL 8
REMARK VINA RESULT:      -6.7      7.147     10.998
REMARK  17 active torsions:
REMARK  status: ('A' for Active; 'I' for Inactive)
REMARK    1  A    between atoms: C_32  and  C_21 
REMARK    2  A    between atoms: C_33  and  C_21 
REMARK    3  A    between atoms: C_24  and  C_22 
REMARK    4  A    between atoms: O_48  and  C_22 
REMARK    5  A    between atoms: C_25  and  C_23 
REMARK    6  A    between atoms: O_49  and  C_23 
REMARK    7  A    between atoms: C_30  and  O_43 
REMARK    8  A    between atoms: C_31  and  O_44 
REMARK    9  A    between atoms: C_36  and  C_32 
REMARK   10  A    between atoms: C_32  and  O_45 
REMARK   11  A    between atoms: C_37  and  C_33 
REMARK   12  A    between atoms: C_33  and  O_48 
REMARK   13  A    between atoms: C_34  and  N_39 
REMARK   14  A    between atoms: C_35  and  N_41 
REMARK   15  A    between atoms: C_38  and  C_36 
REMARK   16  A    between atoms: C_36  and  O_49 
REMARK   17  A    between atoms: C_38  and  O_47 
ROOT
HETATM    1  C   UNK N   1      28.389  17.843   5.379  0.00  0.00     0.141 C 
HETATM    2  N   UNK N   1      28.965  18.122   6.506  0.00  0.00    -0.361 N 
ATOM      3  HN  UNK N   1      29.259  19.089   6.643  1.00  0.00     0.162 HD
HETATM    4  O   UNK N   1      28.350  18.795   4.429  0.00  0.00    -0.348 OA
HETATM    5  H   UNK N   1      28.288  19.331   3.662  0.00  0.00     0.219 HD
ENDROOT
BRANCH   1   6
HETATM    6  C   UNK N   1      27.704  16.528   5.090  0.00  0.00     0.198 C 
BRANCH   6   7
HETATM    7  C   UNK N   1      26.825  16.348   6.333  0.00  0.00     0.075 C 
BRANCH   7   8
HETATM    8  C   UNK N   1      26.029  15.053   6.472  0.00  0.00     0.158 C 
BRANCH   8   9
HETATM    9  C   UNK N   1      24.494  15.306   6.566  0.00  0.00     0.224 C 
BRANCH   9  10
HETATM   10  C   UNK N   1      24.149  16.046   5.300  0.00  0.00     0.144 C 
HETATM   11  N   UNK N   1      23.951  17.322   5.295  0.00  0.00    -0.361 N 
ATOM     12  HN  UNK N   1      23.953  17.831   6.179  1.00  0.00     0.162 HD
BRANCH  11  13
HETATM   13  C   UNK N   1      23.724  18.053   4.056  0.00  0.00     0.146 C 
HETATM   14  C   UNK N   1      22.317  18.396   3.781  0.00  0.00    -0.027 A 
HETATM   15  C   UNK N   1      21.199  17.571   3.911  0.00  0.00     0.010 A 
HETATM   16  C   UNK N   1      22.231  19.624   3.174  0.00  0.00    -0.047 A 
HETATM   17  C   UNK N   1      19.960  18.046   3.455  0.00  0.00     0.001 A 
HETATM   18  C   UNK N   1      19.871  19.309   2.836  0.00  0.00     0.001 A 
HETATM   19  C   UNK N   1      21.018  20.103   2.682  0.00  0.00     0.008 A 
HETATM   20  C   UNK N   1      23.556  20.287   3.059  0.00  0.00     0.073 C 
HETATM   21  C   UNK N   1      24.363  19.455   4.073  0.00  0.00     0.149 C 
BRANCH  21  22
HETATM   22  O   UNK N   1      25.726  19.420   3.778  0.00  0.00    -0.393 OA
HETATM   23  H   UNK N   1      26.048  19.633   2.888  0.00  0.00     0.210 HD
ENDBRANCH  21  22
ENDBRANCH  11  13
BRANCH  10  24
HETATM   24  O   UNK N   1      24.115  15.339   4.147  0.00  0.00    -0.348 OA
HETATM   25  H   UNK N   1      23.655  14.982   3.412  0.00  0.00     0.219 HD
ENDBRANCH  10  24
ENDBRANCH   9  10
BRANCH   9  26
HETATM   26  O   UNK N   1      23.688  14.135   6.589  0.00  0.00    -0.371 OA
BRANCH  26  27
HETATM   27  C   UNK N   1      22.699  14.217   7.591  0.00  0.00     0.207 C 
BRANCH  27  28
HETATM   28  C   UNK N   1      22.998  13.434   8.830  0.00  0.00    -0.035 A 
HETATM   29  C   UNK N   1      21.947  13.157   9.711  0.00  0.00     0.009 A 
HETATM   30  C   UNK N   1      22.180  12.435  10.883  0.00  0.00     0.001 A 
HETATM   31  C   UNK N   1      23.470  11.986  11.180  0.00  0.00     0.000 A 
HETATM   32  C   UNK N   1      24.523  12.258  10.302  0.00  0.00     0.001 A 
HETATM   33  C   UNK N   1      24.290  12.982   9.128  0.00  0.00     0.009 A 
ENDBRANCH  27  28
ENDBRANCH  26  27
ENDBRANCH   9  26
ENDBRANCH   8   9
BRANCH   8  34
HETATM   34  O   UNK N   1      26.254  14.229   5.361  0.00  0.00    -0.392 OA
HETATM   35  H   UNK N   1      26.774  13.476   5.035  0.00  0.00     0.210 HD
ENDBRANCH   8  34
ENDBRANCH   7   8
ENDBRANCH   6   7
BRANCH   6  36
HETATM   36  O   UNK N   1      28.646  15.506   4.800  0.00  0.00    -0.373 OA
BRANCH  36  37
HETATM   37  C   UNK N   1      29.076  15.543   3.458  0.00  0.00     0.207 C 
BRANCH  37  38
HETATM   38  C   UNK N   1      30.566  15.593   3.342  0.00  0.00    -0.035 A 
HETATM   39  C   UNK N   1      31.313  14.431   3.568  0.00  0.00     0.009 A 
HETATM   40  C   UNK N   1      32.706  14.457   3.463  0.00  0.00     0.001 A 
HETATM   41  C   UNK N   1      33.357  15.649   3.134  0.00  0.00     0.000 A 
HETATM   42  C   UNK N   1      32.615  16.815   2.918  0.00  0.00     0.001 A 
HETATM   43  C   UNK N   1      31.220  16.789   3.026  0.00  0.00     0.009 A 
ENDBRANCH  37  38
ENDBRANCH  36  37
ENDBRANCH   6  36
ENDBRANCH   1   6
BRANCH   2  44
HETATM   44  C   UNK N   1      29.234  17.197   7.593  0.00  0.00     0.146 C 
HETATM   45  C   UNK N   1      30.710  17.097   7.609  0.00  0.00    -0.027 A 
HETATM   46  C   UNK N   1      31.501  16.401   6.691  0.00  0.00     0.010 A 
HETATM   47  C   UNK N   1      31.267  17.993   8.487  0.00  0.00    -0.047 A 
HETATM   48  C   UNK N   1      32.889  16.588   6.719  0.00  0.00     0.001 A 
HETATM   49  C   UNK N   1      33.459  17.498   7.627  0.00  0.00     0.001 A 
HETATM   50  C   UNK N   1      32.642  18.219   8.512  0.00  0.00     0.008 A 
HETATM   51  C   UNK N   1      30.241  18.731   9.261  0.00  0.00     0.073 C 
HETATM   52  C   UNK N   1      29.012  17.853   8.978  0.00  0.00     0.149 C 
BRANCH  52  53
HETATM   53  O   UNK N   1      27.808  18.551   9.070  0.00  0.00    -0.393 OA
HETATM   54  H   UNK N   1      26.968  18.086   9.209  0.00  0.00     0.210 HD
ENDBRANCH  52  53
ENDBRANCH   2  44
TORSDOF 17
ENDMDL
MODEL 9
REMARK VINA RESULT:      -6.6      7.366     12.109
REMARK  17 active torsions:
REMARK  status: ('A' for Active; 'I' for Inactive)
REMARK    1  A    between atoms: C_32  and  C_21 
REMARK    2  A    between atoms: C_33  and  C_21 
REMARK    3  A    between atoms: C_24  and  C_22 
REMARK    4  A    between atoms: O_48  and  C_22 
REMARK    5  A    between atoms: C_25  and  C_23 
REMARK    6  A    between atoms: O_49  and  C_23 
REMARK    7  A    between atoms: C_30  and  O_43 
REMARK    8  A    between atoms: C_31  and  O_44 
REMARK    9  A    between atoms: C_36  and  C_32 
REMARK   10  A    between atoms: C_32  and  O_45 
REMARK   11  A    between atoms: C_37  and  C_33 
REMARK   12  A    between atoms: C_33  and  O_48 
REMARK   13  A    between atoms: C_34  and  N_39 
REMARK   14  A    between atoms: C_35  and  N_41 
REMARK   15  A    between atoms: C_38  and  C_36 
REMARK   16  A    between atoms: C_36  and  O_49 
REMARK   17  A    between atoms: C_38  and  O_47 
ROOT
HETATM    1  C   UNK N   1      29.229  14.588   4.855  0.00  0.00     0.141 C 
HETATM    2  N   UNK N   1      30.242  15.372   5.050  0.00  0.00    -0.361 N 
ATOM      3  HN  UNK N   1      31.136  14.924   5.250  1.00  0.00     0.162 HD
HETATM    4  O   UNK N   1      29.392  13.269   5.066  0.00  0.00    -0.348 OA
HETATM    5  H   UNK N   1      29.336  12.346   5.218  0.00  0.00     0.219 HD
ENDROOT
BRANCH   1   6
HETATM    6  C   UNK N   1      27.889  15.061   4.342  0.00  0.00     0.198 C 
BRANCH   6   7
HETATM    7  C   UNK N   1      26.920  14.407   5.333  0.00  0.00     0.075 C 
BRANCH   7   8
HETATM    8  C   UNK N   1      25.984  15.311   6.130  0.00  0.00     0.158 C 
BRANCH   8   9
HETATM    9  C   UNK N   1      24.523  15.278   5.589  0.00  0.00     0.224 C 
BRANCH   9  10
HETATM   10  C   UNK N   1      23.825  14.242   6.432  0.00  0.00     0.144 C 
HETATM   11  N   UNK N   1      23.138  14.569   7.475  0.00  0.00    -0.361 N 
ATOM     12  HN  UNK N   1      23.128  15.542   7.780  1.00  0.00     0.162 HD
BRANCH  11  13
HETATM   13  C   UNK N   1      22.375  13.581   8.226  0.00  0.00     0.146 C 
HETATM   14  C   UNK N   1      23.021  13.102   9.461  0.00  0.00    -0.027 A 
HETATM   15  C   UNK N   1      24.352  12.722   9.634  0.00  0.00     0.010 A 
HETATM   16  C   UNK N   1      22.083  12.878  10.439  0.00  0.00    -0.047 A 
HETATM   17  C   UNK N   1      24.732  12.151  10.858  0.00  0.00     0.001 A 
HETATM   18  C   UNK N   1      23.771  11.927  11.863  0.00  0.00     0.001 A 
HETATM   19  C   UNK N   1      22.430  12.281  11.649  0.00  0.00     0.008 A 
HETATM   20  C   UNK N   1      20.717  13.272  10.005  0.00  0.00     0.073 C 
HETATM   21  C   UNK N   1      21.063  14.156   8.793  0.00  0.00     0.149 C 
BRANCH  21  22
HETATM   22  O   UNK N   1      20.044  14.187   7.841  0.00  0.00    -0.393 OA
HETATM   23  H   UNK N   1      19.150  13.878   8.057  0.00  0.00     0.210 HD
ENDBRANCH  21  22
ENDBRANCH  11  13
BRANCH  10  24
HETATM   24  O   UNK N   1      23.887  12.953   6.024  0.00  0.00    -0.348 OA
HETATM   25  H   UNK N   1      24.146  12.061   6.147  0.00  0.00     0.219 HD
ENDBRANCH  10  24
ENDBRANCH   9  10
BRANCH   9  26
HETATM   26  O   UNK N   1      23.793  16.488   5.742  0.00  0.00    -0.371 OA
BRANCH  26  27
HETATM   27  C   UNK N   1      23.293  16.941   4.504  0.00  0.00     0.207 C 
BRANCH  27  28
HETATM   28  C   UNK N   1      23.918  18.204   4.002  0.00  0.00    -0.035 A 
HETATM   29  C   UNK N   1      25.314  18.301   4.001  0.00  0.00     0.009 A 
HETATM   30  C   UNK N   1      25.941  19.463   3.547  0.00  0.00     0.001 A 
HETATM   31  C   UNK N   1      25.172  20.537   3.092  0.00  0.00     0.000 A 
HETATM   32  C   UNK N   1      23.777  20.445   3.088  0.00  0.00     0.001 A 
HETATM   33  C   UNK N   1      23.148  19.281   3.543  0.00  0.00     0.009 A 
ENDBRANCH  27  28
ENDBRANCH  26  27
ENDBRANCH   9  26
ENDBRANCH   8   9
BRANCH   8  34
HETATM   34  O   UNK N   1      25.948  14.904   7.471  0.00  0.00    -0.392 OA
HETATM   35  H   UNK N   1      25.718  14.168   8.061  0.00  0.00     0.210 HD
ENDBRANCH   8  34
ENDBRANCH   7   8
ENDBRANCH   6   7
BRANCH   6  36
HETATM   36  O   UNK N   1      27.724  14.755   2.966  0.00  0.00    -0.373 OA
BRANCH  36  37
HETATM   37  C   UNK N   1      26.540  15.307   2.435  0.00  0.00     0.207 C 
BRANCH  37  38
HETATM   38  C   UNK N   1      25.675  14.273   1.787  0.00  0.00    -0.035 A 
HETATM   39  C   UNK N   1      24.540  14.674   1.075  0.00  0.00     0.009 A 
HETATM   40  C   UNK N   1      23.720  13.723   0.461  0.00  0.00     0.001 A 
HETATM   41  C   UNK N   1      24.034  12.366   0.562  0.00  0.00     0.000 A 
HETATM   42  C   UNK N   1      25.162  11.960   1.282  0.00  0.00     0.001 A 
HETATM   43  C   UNK N   1      25.981  12.912   1.898  0.00  0.00     0.009 A 
ENDBRANCH  37  38
ENDBRANCH  36  37
ENDBRANCH   6  36
ENDBRANCH   1   6
BRANCH   2  44
HETATM   44  C   UNK N   1      30.233  16.825   5.014  0.00  0.00     0.146 C 
HETATM   45  C   UNK N   1      31.066  17.207   6.176  0.00  0.00    -0.027 A 
HETATM   46  C   UNK N   1      30.691  17.141   7.520  0.00  0.00     0.010 A 
HETATM   47  C   UNK N   1      32.377  17.396   5.815  0.00  0.00    -0.047 A 
HETATM   48  C   UNK N   1      31.670  17.330   8.503  0.00  0.00     0.001 A 
HETATM   49  C   UNK N   1      33.011  17.535   8.132  0.00  0.00     0.001 A 
HETATM   50  C   UNK N   1      33.374  17.556   6.776  0.00  0.00     0.008 A 
HETATM   51  C   UNK N   1      32.579  17.281   4.351  0.00  0.00     0.073 C 
HETATM   52  C   UNK N   1      31.121  17.379   3.874  0.00  0.00     0.149 C 
BRANCH  52  53
HETATM   53  O   UNK N   1      30.903  16.749   2.649  0.00  0.00    -0.393 OA
HETATM   54  H   UNK N   1      31.452  16.001   2.365  0.00  0.00     0.210 HD
ENDBRANCH  52  53
ENDBRANCH   2  44
TORSDOF 17
ENDMDL
