MODEL 1
REMARK VINA RESULT:      -4.9      0.000      0.000
REMARK  11 active torsions:
REMARK  status: ('A' for Active; 'I' for Inactive)
REMARK    1  A    between atoms: O_1  and  C_2 
REMARK    2  A    between atoms: C_2  and  C_3 
REMARK    3  A    between atoms: C_3  and  C_5 
REMARK    4  A    between atoms: C_5  and  O_6 
REMARK    5  A    between atoms: C_5  and  C_7 
REMARK    6  A    between atoms: C_7  and  O_8 
REMARK    7  A    between atoms: C_7  and  C_9 
REMARK    8  A    between atoms: C_9  and  O_10 
REMARK    9  A    between atoms: O_10  and  P_11 
REMARK   10  A    between atoms: P_11  and  O_12 
REMARK   11  A    between atoms: P_11  and  O_13 
ROOT
HETATM    1  C   UNK N   1      35.491  16.309  10.835  0.00  0.00     0.178 C 
ENDROOT
BRANCH   1   2
HETATM    2  C   UNK N   1      34.725  15.149  11.482  0.00  0.00     0.220 C 
BRANCH   2   3
HETATM    3  C   UNK N   1      35.375  13.791  11.407  0.00  0.00     0.181 C 
HETATM    4  O   UNK N   1      35.525  13.220  10.338  0.00  0.00    -0.293 OA
BRANCH   3   5
HETATM    5  C   UNK N   1      35.875  13.155  12.664  0.00  0.00     0.245 C 
BRANCH   5   6
HETATM    6  O   UNK N   1      36.973  13.860  13.155  0.00  0.00    -0.393 OA
HETATM    7  H   UNK N   1      37.762  13.953  13.712  0.00  0.00     0.209 HD
ENDBRANCH   5   6
ENDBRANCH   3   5
ENDBRANCH   2   3
BRANCH   2   8
HETATM    8  O   UNK N   1      33.430  15.088  10.962  0.00  0.00    -0.385 OA
HETATM    9  H   UNK N   1      33.150  15.687  10.252  0.00  0.00     0.210 HD
ENDBRANCH   2   8
ENDBRANCH   1   2
BRANCH   1  10
HETATM   10  O   UNK N   1      36.869  16.089  10.875  0.00  0.00    -0.390 OA
HETATM   11  H   UNK N   1      37.472  16.542  10.265  0.00  0.00     0.210 HD
ENDBRANCH   1  10
BRANCH   1  12
HETATM   12  C   UNK N   1      35.047  16.635   9.418  0.00  0.00     0.215 C 
BRANCH  12  13
HETATM   13  O   UNK N   1      34.029  17.596   9.482  0.00  0.00    -0.294 OA
BRANCH  13  14
HETATM   14  P   UNK N   1      33.663  18.011   7.830  0.00  0.00     0.390 P 
HETATM   15  O   UNK N   1      34.974  18.825   8.014  0.00  0.00    -0.632 OA
BRANCH  14  16
HETATM   16  O   UNK N   1      34.625  17.446   6.500  0.00  0.00    -0.307 OA
HETATM   17  H   UNK N   1      35.429  16.923   6.645  0.00  0.00     0.222 HD
ENDBRANCH  14  16
BRANCH  14  18
HETATM   18  O   UNK N   1      34.058  16.326   7.981  0.00  0.00    -0.307 OA
HETATM   19  H   UNK N   1      33.555  15.612   7.561  0.00  0.00     0.222 HD
ENDBRANCH  14  18
ENDBRANCH  13  14
ENDBRANCH  12  13
ENDBRANCH   1  12
TORSDOF 11
ENDMDL
MODEL 2
REMARK VINA RESULT:      -4.9      2.605      5.565
REMARK  11 active torsions:
REMARK  status: ('A' for Active; 'I' for Inactive)
REMARK    1  A    between atoms: O_1  and  C_2 
REMARK    2  A    between atoms: C_2  and  C_3 
REMARK    3  A    between atoms: C_3  and  C_5 
REMARK    4  A    between atoms: C_5  and  O_6 
REMARK    5  A    between atoms: C_5  and  C_7 
REMARK    6  A    between atoms: C_7  and  O_8 
REMARK    7  A    between atoms: C_7  and  C_9 
REMARK    8  A    between atoms: C_9  and  O_10 
REMARK    9  A    between atoms: O_10  and  P_11 
REMARK   10  A    between atoms: P_11  and  O_12 
REMARK   11  A    between atoms: P_11  and  O_13 
ROOT
HETATM    1  C   UNK N   1      36.260  15.059  10.326  0.00  0.00     0.178 C 
ENDROOT
BRANCH   1   2
HETATM    2  C   UNK N   1      34.889  15.574   9.874  0.00  0.00     0.220 C 
BRANCH   2   3
HETATM    3  C   UNK N   1      34.871  16.909   9.174  0.00  0.00     0.181 C 
HETATM    4  O   UNK N   1      35.284  17.917   9.725  0.00  0.00    -0.293 OA
BRANCH   3   5
HETATM    5  C   UNK N   1      34.373  16.984   7.767  0.00  0.00     0.245 C 
BRANCH   5   6
HETATM    6  O   UNK N   1      34.592  18.259   7.247  0.00  0.00    -0.393 OA
HETATM    7  H   UNK N   1      35.001  19.139   7.258  0.00  0.00     0.209 HD
ENDBRANCH   5   6
ENDBRANCH   3   5
ENDBRANCH   2   3
BRANCH   2   8
HETATM    8  O   UNK N   1      34.009  15.592  10.958  0.00  0.00    -0.385 OA
HETATM    9  H   UNK N   1      33.846  16.410  11.453  0.00  0.00     0.210 HD
ENDBRANCH   2   8
ENDBRANCH   1   2
BRANCH   1  10
HETATM   10  O   UNK N   1      37.046  16.093  10.839  0.00  0.00    -0.390 OA
HETATM   11  H   UNK N   1      37.701  15.933  11.536  0.00  0.00     0.210 HD
ENDBRANCH   1  10
BRANCH   1  12
HETATM   12  C   UNK N   1      36.197  13.903  11.312  0.00  0.00     0.215 C 
BRANCH  12  13
HETATM   13  O   UNK N   1      36.179  14.427  12.611  0.00  0.00    -0.294 OA
BRANCH  13  14
HETATM   14  P   UNK N   1      35.952  13.064  13.671  0.00  0.00     0.390 P 
HETATM   15  O   UNK N   1      36.265  14.161  14.728  0.00  0.00    -0.632 OA
BRANCH  14  16
HETATM   16  O   UNK N   1      34.586  12.938  14.735  0.00  0.00    -0.307 OA
HETATM   17  H   UNK N   1      33.705  12.709  14.400  0.00  0.00     0.222 HD
ENDBRANCH  14  16
BRANCH  14  18
HETATM   18  O   UNK N   1      34.469  13.497  12.879  0.00  0.00    -0.307 OA
HETATM   19  H   UNK N   1      33.634  13.663  13.344  0.00  0.00     0.222 HD
ENDBRANCH  14  18
ENDBRANCH  13  14
ENDBRANCH  12  13
ENDBRANCH   1  12
TORSDOF 11
ENDMDL
MODEL 3
REMARK VINA RESULT:      -4.8      2.366      3.938
REMARK  11 active torsions:
REMARK  status: ('A' for Active; 'I' for Inactive)
REMARK    1  A    between atoms: O_1  and  C_2 
REMARK    2  A    between atoms: C_2  and  C_3 
REMARK    3  A    between atoms: C_3  and  C_5 
REMARK    4  A    between atoms: C_5  and  O_6 
REMARK    5  A    between atoms: C_5  and  C_7 
REMARK    6  A    between atoms: C_7  and  O_8 
REMARK    7  A    between atoms: C_7  and  C_9 
REMARK    8  A    between atoms: C_9  and  O_10 
REMARK    9  A    between atoms: O_10  and  P_11 
REMARK   10  A    between atoms: P_11  and  O_12 
REMARK   11  A    between atoms: P_11  and  O_13 
ROOT
HETATM    1  C   UNK N   1      35.418  13.006  12.590  0.00  0.00     0.178 C 
ENDROOT
BRANCH   1   2
HETATM    2  C   UNK N   1      36.536  13.678  13.394  0.00  0.00     0.220 C 
BRANCH   2   3
HETATM    3  C   UNK N   1      36.686  13.242  14.829  0.00  0.00     0.181 C 
HETATM    4  O   UNK N   1      36.849  12.068  15.120  0.00  0.00    -0.293 OA
BRANCH   3   5
HETATM    5  C   UNK N   1      36.671  14.278  15.907  0.00  0.00     0.245 C 
BRANCH   5   6
HETATM    6  O   UNK N   1      37.776  15.118  15.781  0.00  0.00    -0.393 OA
HETATM    7  H   UNK N   1      38.381  15.681  15.272  0.00  0.00     0.209 HD
ENDBRANCH   5   6
ENDBRANCH   3   5
ENDBRANCH   2   3
BRANCH   2   8
HETATM    8  O   UNK N   1      36.400  15.066  13.328  0.00  0.00    -0.385 OA
HETATM    9  H   UNK N   1      35.527  15.475  13.221  0.00  0.00     0.210 HD
ENDBRANCH   2   8
ENDBRANCH   1   2
BRANCH   1  10
HETATM   10  O   UNK N   1      34.365  12.612  13.419  0.00  0.00    -0.390 OA
HETATM   11  H   UNK N   1      34.123  13.124  14.206  0.00  0.00     0.210 HD
ENDBRANCH   1  10
BRANCH   1  12
HETATM   12  C   UNK N   1      34.896  13.840  11.431  0.00  0.00     0.215 C 
BRANCH  12  13
HETATM   13  O   UNK N   1      35.988  14.268  10.665  0.00  0.00    -0.294 OA
BRANCH  13  14
HETATM   14  P   UNK N   1      35.462  15.719   9.857  0.00  0.00     0.390 P 
HETATM   15  O   UNK N   1      34.372  15.633  10.962  0.00  0.00    -0.632 OA
BRANCH  14  16
HETATM   16  O   UNK N   1      35.578  17.285  10.599  0.00  0.00    -0.307 OA
HETATM   17  H   UNK N   1      35.899  17.389  11.509  0.00  0.00     0.222 HD
ENDBRANCH  14  16
BRANCH  14  18
HETATM   18  O   UNK N   1      36.995  15.957  10.639  0.00  0.00    -0.307 OA
HETATM   19  H   UNK N   1      37.572  16.720  10.481  0.00  0.00     0.222 HD
ENDBRANCH  14  18
ENDBRANCH  13  14
ENDBRANCH  12  13
ENDBRANCH   1  12
TORSDOF 11
ENDMDL
MODEL 4
REMARK VINA RESULT:      -4.8      2.625      5.341
REMARK  11 active torsions:
REMARK  status: ('A' for Active; 'I' for Inactive)
REMARK    1  A    between atoms: O_1  and  C_2 
REMARK    2  A    between atoms: C_2  and  C_3 
REMARK    3  A    between atoms: C_3  and  C_5 
REMARK    4  A    between atoms: C_5  and  O_6 
REMARK    5  A    between atoms: C_5  and  C_7 
REMARK    6  A    between atoms: C_7  and  O_8 
REMARK    7  A    between atoms: C_7  and  C_9 
REMARK    8  A    between atoms: C_9  and  O_10 
REMARK    9  A    between atoms: O_10  and  P_11 
REMARK   10  A    between atoms: P_11  and  O_12 
REMARK   11  A    between atoms: P_11  and  O_13 
ROOT
HETATM    1  C   UNK N   1      34.965  13.226  10.513  0.00  0.00     0.178 C 
ENDROOT
BRANCH   1   2
HETATM    2  C   UNK N   1      34.144  14.483  10.205  0.00  0.00     0.220 C 
BRANCH   2   3
HETATM    3  C   UNK N   1      34.901  15.658   9.640  0.00  0.00     0.181 C 
HETATM    4  O   UNK N   1      34.973  15.844   8.436  0.00  0.00    -0.293 OA
BRANCH   3   5
HETATM    5  C   UNK N   1      35.540  16.628  10.580  0.00  0.00     0.245 C 
BRANCH   5   6
HETATM    6  O   UNK N   1      36.805  16.175  10.952  0.00  0.00    -0.393 OA
HETATM    7  H   UNK N   1      37.775  16.215  10.944  0.00  0.00     0.209 HD
ENDBRANCH   5   6
ENDBRANCH   3   5
ENDBRANCH   2   3
BRANCH   2   8
HETATM    8  O   UNK N   1      33.432  14.875  11.340  0.00  0.00    -0.385 OA
HETATM    9  H   UNK N   1      33.110  14.218  11.977  0.00  0.00     0.210 HD
ENDBRANCH   2   8
ENDBRANCH   1   2
BRANCH   1  10
HETATM   10  O   UNK N   1      36.207  13.265   9.877  0.00  0.00    -0.390 OA
HETATM   11  H   UNK N   1      36.312  12.985   8.954  0.00  0.00     0.210 HD
ENDBRANCH   1  10
BRANCH   1  12
HETATM   12  C   UNK N   1      35.138  12.944  11.997  0.00  0.00     0.215 C 
BRANCH  12  13
HETATM   13  O   UNK N   1      36.082  13.841  12.513  0.00  0.00    -0.294 OA
BRANCH  13  14
HETATM   14  P   UNK N   1      36.113  13.562  14.232  0.00  0.00     0.390 P 
HETATM   15  O   UNK N   1      37.089  12.442  13.773  0.00  0.00    -0.632 OA
BRANCH  14  16
HETATM   16  O   UNK N   1      37.519  13.893  15.197  0.00  0.00    -0.307 OA
HETATM   17  H   UNK N   1      38.305  13.326  15.153  0.00  0.00     0.222 HD
ENDBRANCH  14  16
BRANCH  14  18
HETATM   18  O   UNK N   1      36.833  15.091  13.831  0.00  0.00    -0.307 OA
HETATM   19  H   UNK N   1      36.404  15.948  13.980  0.00  0.00     0.222 HD
ENDBRANCH  14  18
ENDBRANCH  13  14
ENDBRANCH  12  13
ENDBRANCH   1  12
TORSDOF 11
ENDMDL
MODEL 5
REMARK VINA RESULT:      -4.8      1.920      2.614
REMARK  11 active torsions:
REMARK  status: ('A' for Active; 'I' for Inactive)
REMARK    1  A    between atoms: O_1  and  C_2 
REMARK    2  A    between atoms: C_2  and  C_3 
REMARK    3  A    between atoms: C_3  and  C_5 
REMARK    4  A    between atoms: C_5  and  O_6 
REMARK    5  A    between atoms: C_5  and  C_7 
REMARK    6  A    between atoms: C_7  and  O_8 
REMARK    7  A    between atoms: C_7  and  C_9 
REMARK    8  A    between atoms: C_9  and  O_10 
REMARK    9  A    between atoms: O_10  and  P_11 
REMARK   10  A    between atoms: P_11  and  O_12 
REMARK   11  A    between atoms: P_11  and  O_13 
ROOT
HETATM    1  C   UNK N   1      35.579  15.890  10.948  0.00  0.00     0.178 C 
ENDROOT
BRANCH   1   2
HETATM    2  C   UNK N   1      35.188  14.942  12.087  0.00  0.00     0.220 C 
BRANCH   2   3
HETATM    3  C   UNK N   1      36.296  14.108  12.677  0.00  0.00     0.181 C 
HETATM    4  O   UNK N   1      37.062  13.480  11.963  0.00  0.00    -0.293 OA
BRANCH   3   5
HETATM    5  C   UNK N   1      36.477  14.085  14.160  0.00  0.00     0.245 C 
BRANCH   5   6
HETATM    6  O   UNK N   1      37.131  15.241  14.583  0.00  0.00    -0.393 OA
HETATM    7  H   UNK N   1      37.926  15.766  14.771  0.00  0.00     0.209 HD
ENDBRANCH   5   6
ENDBRANCH   3   5
ENDBRANCH   2   3
BRANCH   2   8
HETATM    8  O   UNK N   1      34.136  14.119  11.679  0.00  0.00    -0.385 OA
HETATM    9  H   UNK N   1      34.175  13.159  11.814  0.00  0.00     0.210 HD
ENDBRANCH   2   8
ENDBRANCH   1   2
BRANCH   1  10
HETATM   10  O   UNK N   1      36.963  16.056  10.881  0.00  0.00    -0.390 OA
HETATM   11  H   UNK N   1      37.571  15.371  11.201  0.00  0.00     0.210 HD
ENDBRANCH   1  10
BRANCH   1  12
HETATM   12  C   UNK N   1      35.027  15.491   9.588  0.00  0.00     0.215 C 
BRANCH  12  13
HETATM   13  O   UNK N   1      33.749  16.048   9.447  0.00  0.00    -0.294 OA
BRANCH  13  14
HETATM   14  P   UNK N   1      32.819  14.881   8.547  0.00  0.00     0.390 P 
HETATM   15  O   UNK N   1      34.143  14.083   8.709  0.00  0.00    -0.632 OA
BRANCH  14  16
HETATM   16  O   UNK N   1      32.259  13.399   9.258  0.00  0.00    -0.307 OA
HETATM   17  H   UNK N   1      32.619  12.541   8.983  0.00  0.00     0.222 HD
ENDBRANCH  14  16
BRANCH  14  18
HETATM   18  O   UNK N   1      32.151  15.130  10.131  0.00  0.00    -0.307 OA
HETATM   19  H   UNK N   1      32.297  15.929  10.662  0.00  0.00     0.222 HD
ENDBRANCH  14  18
ENDBRANCH  13  14
ENDBRANCH  12  13
ENDBRANCH   1  12
TORSDOF 11
ENDMDL
MODEL 6
REMARK VINA RESULT:      -4.7      1.351      1.893
REMARK  11 active torsions:
REMARK  status: ('A' for Active; 'I' for Inactive)
REMARK    1  A    between atoms: O_1  and  C_2 
REMARK    2  A    between atoms: C_2  and  C_3 
REMARK    3  A    between atoms: C_3  and  C_5 
REMARK    4  A    between atoms: C_5  and  O_6 
REMARK    5  A    between atoms: C_5  and  C_7 
REMARK    6  A    between atoms: C_7  and  O_8 
REMARK    7  A    between atoms: C_7  and  C_9 
REMARK    8  A    between atoms: C_9  and  O_10 
REMARK    9  A    between atoms: O_10  and  P_11 
REMARK   10  A    between atoms: P_11  and  O_12 
REMARK   11  A    between atoms: P_11  and  O_13 
ROOT
HETATM    1  C   UNK N   1      34.912  16.293  10.234  0.00  0.00     0.178 C 
ENDROOT
BRANCH   1   2
HETATM    2  C   UNK N   1      36.037  15.326  10.621  0.00  0.00     0.220 C 
BRANCH   2   3
HETATM    3  C   UNK N   1      35.731  14.350  11.728  0.00  0.00     0.181 C 
HETATM    4  O   UNK N   1      34.624  14.302  12.241  0.00  0.00    -0.293 OA
BRANCH   3   5
HETATM    5  C   UNK N   1      36.797  13.401  12.174  0.00  0.00     0.245 C 
BRANCH   5   6
HETATM    6  O   UNK N   1      37.892  13.469  11.314  0.00  0.00    -0.393 OA
HETATM    7  H   UNK N   1      38.695  13.890  10.968  0.00  0.00     0.209 HD
ENDBRANCH   5   6
ENDBRANCH   3   5
ENDBRANCH   2   3
BRANCH   2   8
HETATM    8  O   UNK N   1      37.196  16.043  10.923  0.00  0.00    -0.385 OA
HETATM    9  H   UNK N   1      37.841  15.701  11.562  0.00  0.00     0.210 HD
ENDBRANCH   2   8
ENDBRANCH   1   2
BRANCH   1  10
HETATM   10  O   UNK N   1      35.390  17.599  10.106  0.00  0.00    -0.390 OA
HETATM   11  H   UNK N   1      36.162  17.907  10.607  0.00  0.00     0.210 HD
ENDBRANCH   1  10
BRANCH   1  12
HETATM   12  C   UNK N   1      34.143  15.886   8.987  0.00  0.00     0.215 C 
BRANCH  12  13
HETATM   13  O   UNK N   1      34.831  16.365   7.864  0.00  0.00    -0.294 OA
BRANCH  13  14
HETATM   14  P   UNK N   1      33.645  17.201   6.901  0.00  0.00     0.390 P 
HETATM   15  O   UNK N   1      34.510  18.412   7.350  0.00  0.00    -0.632 OA
BRANCH  14  16
HETATM   16  O   UNK N   1      34.043  17.941   5.381  0.00  0.00    -0.307 OA
HETATM   17  H   UNK N   1      34.084  18.906   5.286  0.00  0.00     0.222 HD
ENDBRANCH  14  16
BRANCH  14  18
HETATM   18  O   UNK N   1      34.641  16.173   5.917  0.00  0.00    -0.307 OA
HETATM   19  H   UNK N   1      35.086  16.464   5.106  0.00  0.00     0.222 HD
ENDBRANCH  14  18
ENDBRANCH  13  14
ENDBRANCH  12  13
ENDBRANCH   1  12
TORSDOF 11
ENDMDL
MODEL 7
REMARK VINA RESULT:      -4.6      1.473      2.244
REMARK  11 active torsions:
REMARK  status: ('A' for Active; 'I' for Inactive)
REMARK    1  A    between atoms: O_1  and  C_2 
REMARK    2  A    between atoms: C_2  and  C_3 
REMARK    3  A    between atoms: C_3  and  C_5 
REMARK    4  A    between atoms: C_5  and  O_6 
REMARK    5  A    between atoms: C_5  and  C_7 
REMARK    6  A    between atoms: C_7  and  O_8 
REMARK    7  A    between atoms: C_7  and  C_9 
REMARK    8  A    between atoms: C_9  and  O_10 
REMARK    9  A    between atoms: O_10  and  P_11 
REMARK   10  A    between atoms: P_11  and  O_12 
REMARK   11  A    between atoms: P_11  and  O_13 
ROOT
HETATM    1  C   UNK N   1      34.671  14.530  10.431  0.00  0.00     0.178 C 
ENDROOT
BRANCH   1   2
HETATM    2  C   UNK N   1      36.118  14.543  10.938  0.00  0.00     0.220 C 
BRANCH   2   3
HETATM    3  C   UNK N   1      36.328  14.150  12.378  0.00  0.00     0.181 C 
HETATM    4  O   UNK N   1      36.100  14.934  13.286  0.00  0.00    -0.293 OA
BRANCH   3   5
HETATM    5  C   UNK N   1      36.788  12.763  12.692  0.00  0.00     0.245 C 
BRANCH   5   6
HETATM    6  O   UNK N   1      38.016  12.514  12.081  0.00  0.00    -0.393 OA
HETATM    7  H   UNK N   1      38.570  12.191  11.352  0.00  0.00     0.209 HD
ENDBRANCH   5   6
ENDBRANCH   3   5
ENDBRANCH   2   3
BRANCH   2   8
HETATM    8  O   UNK N   1      36.693  15.792  10.695  0.00  0.00    -0.385 OA
HETATM    9  H   UNK N   1      37.356  15.907   9.996  0.00  0.00     0.210 HD
ENDBRANCH   2   8
ENDBRANCH   1   2
BRANCH   1  10
HETATM   10  O   UNK N   1      33.786  14.969  11.417  0.00  0.00    -0.390 OA
HETATM   11  H   UNK N   1      33.096  15.623  11.224  0.00  0.00     0.210 HD
ENDBRANCH   1  10
BRANCH   1  12
HETATM   12  C   UNK N   1      34.456  15.307   9.142  0.00  0.00     0.215 C 
BRANCH  12  13
HETATM   13  O   UNK N   1      33.991  16.587   9.467  0.00  0.00    -0.294 OA
BRANCH  13  14
HETATM   14  P   UNK N   1      34.510  17.626   8.169  0.00  0.00     0.390 P 
HETATM   15  O   UNK N   1      33.072  18.178   8.379  0.00  0.00    -0.632 OA
BRANCH  14  16
HETATM   16  O   UNK N   1      34.807  19.321   8.403  0.00  0.00    -0.307 OA
HETATM   17  H   UNK N   1      35.606  19.746   8.054  0.00  0.00     0.222 HD
ENDBRANCH  14  16
BRANCH  14  18
HETATM   18  O   UNK N   1      35.415  17.934   9.619  0.00  0.00    -0.307 OA
HETATM   19  H   UNK N   1      35.033  17.914  10.511  0.00  0.00     0.222 HD
ENDBRANCH  14  18
ENDBRANCH  13  14
ENDBRANCH  12  13
ENDBRANCH   1  12
TORSDOF 11
ENDMDL
MODEL 8
REMARK VINA RESULT:      -4.6     12.967     14.674
REMARK  11 active torsions:
REMARK  status: ('A' for Active; 'I' for Inactive)
REMARK    1  A    between atoms: O_1  and  C_2 
REMARK    2  A    between atoms: C_2  and  C_3 
REMARK    3  A    between atoms: C_3  and  C_5 
REMARK    4  A    between atoms: C_5  and  O_6 
REMARK    5  A    between atoms: C_5  and  C_7 
REMARK    6  A    between atoms: C_7  and  O_8 
REMARK    7  A    between atoms: C_7  and  C_9 
REMARK    8  A    between atoms: C_9  and  O_10 
REMARK    9  A    between atoms: O_10  and  P_11 
REMARK   10  A    between atoms: P_11  and  O_12 
REMARK   11  A    between atoms: P_11  and  O_13 
ROOT
HETATM    1  C   UNK N   1      43.040  23.059   1.523  0.00  0.00     0.178 C 
ENDROOT
BRANCH   1   2
HETATM    2  C   UNK N   1      43.822  21.758   1.735  0.00  0.00     0.220 C 
BRANCH   2   3
HETATM    3  C   UNK N   1      43.840  21.206   3.137  0.00  0.00     0.181 C 
HETATM    4  O   UNK N   1      42.806  20.893   3.706  0.00  0.00    -0.293 OA
BRANCH   3   5
HETATM    5  C   UNK N   1      45.154  21.006   3.822  0.00  0.00     0.245 C 
BRANCH   5   6
HETATM    6  O   UNK N   1      45.687  22.235   4.207  0.00  0.00    -0.393 OA
HETATM    7  H   UNK N   1      46.375  22.920   4.201  0.00  0.00     0.209 HD
ENDBRANCH   5   6
ENDBRANCH   3   5
ENDBRANCH   2   3
BRANCH   2   8
HETATM    8  O   UNK N   1      45.129  21.909   1.265  0.00  0.00    -0.385 OA
HETATM    9  H   UNK N   1      45.670  21.135   1.043  0.00  0.00     0.210 HD
ENDBRANCH   2   8
ENDBRANCH   1   2
BRANCH   1  10
HETATM   10  O   UNK N   1      42.418  23.473   2.703  0.00  0.00    -0.390 OA
HETATM   11  H   UNK N   1      41.637  23.015   3.051  0.00  0.00     0.210 HD
ENDBRANCH   1  10
BRANCH   1  12
HETATM   12  C   UNK N   1      43.863  24.192   0.932  0.00  0.00     0.215 C 
BRANCH  12  13
HETATM   13  O   UNK N   1      44.429  24.925   1.983  0.00  0.00    -0.294 OA
BRANCH  13  14
HETATM   14  P   UNK N   1      45.934  25.551   1.370  0.00  0.00     0.390 P 
HETATM   15  O   UNK N   1      45.406  26.821   2.095  0.00  0.00    -0.632 OA
BRANCH  14  16
HETATM   16  O   UNK N   1      47.264  25.949   2.413  0.00  0.00    -0.307 OA
HETATM   17  H   UNK N   1      47.556  25.342   3.111  0.00  0.00     0.222 HD
ENDBRANCH  14  16
BRANCH  14  18
HETATM   18  O   UNK N   1      46.207  24.327   2.572  0.00  0.00    -0.307 OA
HETATM   19  H   UNK N   1      47.033  24.233   3.071  0.00  0.00     0.222 HD
ENDBRANCH  14  18
ENDBRANCH  13  14
ENDBRANCH  12  13
ENDBRANCH   1  12
TORSDOF 11
ENDMDL
MODEL 9
REMARK VINA RESULT:      -4.6      1.332      2.107
REMARK  11 active torsions:
REMARK  status: ('A' for Active; 'I' for Inactive)
REMARK    1  A    between atoms: O_1  and  C_2 
REMARK    2  A    between atoms: C_2  and  C_3 
REMARK    3  A    between atoms: C_3  and  C_5 
REMARK    4  A    between atoms: C_5  and  O_6 
REMARK    5  A    between atoms: C_5  and  C_7 
REMARK    6  A    between atoms: C_7  and  O_8 
REMARK    7  A    between atoms: C_7  and  C_9 
REMARK    8  A    between atoms: C_9  and  O_10 
REMARK    9  A    between atoms: O_10  and  P_11 
REMARK   10  A    between atoms: P_11  and  O_12 
REMARK   11  A    between atoms: P_11  and  O_13 
ROOT
HETATM    1  C   UNK N   1      33.918  15.189   9.995  0.00  0.00     0.178 C 
ENDROOT
BRANCH   1   2
HETATM    2  C   UNK N   1      34.839  13.973   9.850  0.00  0.00     0.220 C 
BRANCH   2   3
HETATM    3  C   UNK N   1      35.865  13.774  10.936  0.00  0.00     0.181 C 
HETATM    4  O   UNK N   1      35.530  13.537  12.086  0.00  0.00    -0.293 OA
BRANCH   3   5
HETATM    5  C   UNK N   1      37.316  13.831  10.584  0.00  0.00     0.245 C 
BRANCH   5   6
HETATM    6  O   UNK N   1      37.676  15.134  10.241  0.00  0.00    -0.393 OA
HETATM    7  H   UNK N   1      38.238  15.786   9.793  0.00  0.00     0.209 HD
ENDBRANCH   5   6
ENDBRANCH   3   5
ENDBRANCH   2   3
BRANCH   2   8
HETATM    8  O   UNK N   1      35.465  13.999   8.602  0.00  0.00    -0.385 OA
HETATM    9  H   UNK N   1      35.294  13.306   7.945  0.00  0.00     0.210 HD
ENDBRANCH   2   8
ENDBRANCH   1   2
BRANCH   1  10
HETATM   10  O   UNK N   1      33.050  15.039  11.079  0.00  0.00    -0.390 OA
HETATM   11  H   UNK N   1      32.924  15.748  11.729  0.00  0.00     0.210 HD
ENDBRANCH   1  10
BRANCH   1  12
HETATM   12  C   UNK N   1      34.651  16.519  10.084  0.00  0.00     0.215 C 
BRANCH  12  13
HETATM   13  O   UNK N   1      35.240  16.785   8.841  0.00  0.00    -0.294 OA
BRANCH  13  14
HETATM   14  P   UNK N   1      33.980  17.471   7.854  0.00  0.00     0.390 P 
HETATM   15  O   UNK N   1      34.840  18.744   8.092  0.00  0.00    -0.632 OA
BRANCH  14  16
HETATM   16  O   UNK N   1      34.271  18.016   6.231  0.00  0.00    -0.307 OA
HETATM   17  H   UNK N   1      34.529  18.933   6.046  0.00  0.00     0.222 HD
ENDBRANCH  14  16
BRANCH  14  18
HETATM   18  O   UNK N   1      34.941  16.341   6.950  0.00  0.00    -0.307 OA
HETATM   19  H   UNK N   1      35.425  15.601   7.348  0.00  0.00     0.222 HD
ENDBRANCH  14  18
ENDBRANCH  13  14
ENDBRANCH  12  13
ENDBRANCH   1  12
TORSDOF 11
ENDMDL
