REMARK  1 active torsions:
REMARK  status: ('A' for Active; 'I' for Inactive)
REMARK    1  A    between atoms: C_5  and  N_6 
ROOT
HETATM    1  C   UNK N   1       3.189   1.552   0.000  0.00  0.00     0.160 C 
HETATM    2  N   UNK N   1       1.885   0.906  -0.000  0.00  0.00    -0.314 N 
HETATM    3  C   UNK N   1       1.834  -0.450  -0.000  0.00  0.00     0.099 A 
HETATM    4  C   UNK N   1       0.608  -1.109  -0.000  0.00  0.00     0.065 A 
HETATM    5  C   UNK N   1      -0.560  -0.353  -0.000  0.00  0.00     0.103 A 
HETATM    6  N   UNK N   1      -0.493   1.004   0.000  0.00  0.00    -0.295 N 
ATOM      7  HN  UNK N   1      -1.353   1.552   0.000  1.00  0.00     0.172 HD
HETATM    8  C   UNK N   1       0.720   1.646   0.000  0.00  0.00     0.327 A 
HETATM    9  O   UNK N   1       0.757   2.864   0.000  0.00  0.00    -0.246 OA
ENDROOT
BRANCH   5  10
HETATM   10  N   UNK N   1      -1.811  -0.998   0.000  0.00  0.00    -0.385 N 
HETATM   11  H   UNK N   1      -2.639  -0.466   0.000  0.00  0.00     0.157 HD
HETATM   12  H   UNK N   1      -1.858  -1.981   0.000  0.00  0.00     0.157 HD
ENDBRANCH   5  10
TORSDOF 1
