REMARK  23 active torsions:
REMARK  status: ('A' for Active; 'I' for Inactive)
REMARK    1  A    between atoms: C_29  and  C_11 
REMARK    2  A    between atoms: C_14  and  C_12 
REMARK    3  A    between atoms: C_16  and  C_13 
REMARK    4  A    between atoms: C_19  and  C_15 
REMARK    5  A    between atoms: C_20  and  C_17 
REMARK    6  A    between atoms: C_24  and  C_18 
REMARK    7  A    between atoms: C_31  and  C_21 
REMARK    8  A    between atoms: C_32  and  C_22 
REMARK    9  A    between atoms: N_45  and  C_24 
REMARK   10  A    between atoms: C_34  and  C_26 
REMARK   11  A    between atoms: C_37  and  C_27 
REMARK   12  A    between atoms: C_37  and  C_28 
REMARK   13  A    between atoms: C_38  and  C_28 
REMARK   14  A    between atoms: C_29  and  C_41 
REMARK   15  A    between atoms: C_44  and  C_29 
REMARK   16  A    between atoms: O_48  and  C_30 
REMARK   17  A    between atoms: C_34  and  C_33 
REMARK   18  A    between atoms: C_35  and  O_50 
REMARK   19  A    between atoms: C_36  and  O_51 
REMARK   20  A    between atoms: C_37  and  O_57 
REMARK   21  A    between atoms: C_40  and  O_53 
REMARK   22  A    between atoms: O_54  and  C_41 
REMARK   23  A    between atoms: C_44  and  O_56 
ROOT
HETATM    1  C   UNK N   1       0.119  -3.827   0.620  0.00  0.00     0.020 C 
HETATM    2  C   UNK N   1       0.505  -3.054  -1.682  0.00  0.00     0.020 C 
HETATM    3  C   UNK N   1      -0.730  -1.548  -0.082  0.00  0.00     0.158 C 
HETATM    4  C   UNK N   1       1.726  -1.915   0.241  0.00  0.00     0.162 C 
HETATM    5  C   UNK N   1       1.959  -0.573  -0.493  0.00  0.00     0.210 C 
HETATM    6  C   UNK N   1       0.399  -2.595  -0.230  0.00  0.00     0.011 C 
HETATM    7  C   UNK N   1       0.676   0.302  -0.416  0.00  0.00     0.202 C 
HETATM    8  O   UNK N   1       1.669  -1.668   1.619  0.00  0.00    -0.392 OA
HETATM    9  O   UNK N   1      -0.420  -0.442  -0.915  0.00  0.00    -0.342 OA
HETATM   10  H   UNK N   1       1.797  -1.548   2.573  0.00  0.00     0.210 HD
ENDROOT
BRANCH   5  11
HETATM   11  O   UNK N   1       2.280  -0.837  -1.829  0.00  0.00    -0.387 OA
HETATM   12  H   UNK N   1       2.232  -1.121  -2.755  0.00  0.00     0.210 HD
ENDBRANCH   5  11
BRANCH   7  13
HETATM   13  C   UNK N   1       0.817   1.588  -1.295  0.00  0.00     0.124 C 
BRANCH  13  14
HETATM   14  C   UNK N   1      -0.510   2.240  -1.743  0.00  0.00     0.014 C 
HETATM   15  C   UNK N   1      -1.739   2.000  -0.876  0.00  0.00     0.006 C 
ENDBRANCH  13  14
BRANCH  13  16
HETATM   16  C   UNK N   1       1.863   2.597  -0.803  0.00  0.00     0.121 C 
HETATM   17  N   UNK N   1       1.768   3.271   0.298  0.00  0.00    -0.371 N 
ATOM     18  HN  UNK N   1       2.529   3.913   0.519  1.00  0.00     0.161 HD
BRANCH  17  19
HETATM   19  C   UNK N   1       0.679   3.192   1.239  0.00  0.00     0.148 C 
BRANCH  19  20
HETATM   20  C   UNK N   1      -0.509   4.010   0.860  0.00  0.00    -0.011 C 
HETATM   21  C   UNK N   1      -0.574   4.744  -0.265  0.00  0.00    -0.029 C 
BRANCH  21  22
HETATM   22  C   UNK N   1      -1.682   5.686  -0.399  0.00  0.00     0.033 C 
HETATM   23  C   UNK N   1      -1.276   6.922  -0.691  0.00  0.00     0.014 C 
HETATM   24  C   UNK N   1      -0.283   7.132  -1.805  0.00  0.00     0.012 C 
BRANCH  23  25
HETATM   25  C   UNK N   1      -1.118   7.748   0.581  0.00  0.00     0.131 C 
BRANCH  25  26
HETATM   26  C   UNK N   1       0.193   8.608   0.701  0.00  0.00     0.042 C 
HETATM   27  C   UNK N   1       1.468   7.782   0.548  0.00  0.00     0.015 C 
BRANCH  26  28
HETATM   28  C   UNK N   1       0.239   9.851  -0.225  0.00  0.00     0.160 C 
HETATM   29  C   UNK N   1       1.062  11.035   0.346  0.00  0.00     0.179 C 
HETATM   30  C   UNK N   1       0.003  12.133   0.524  0.00  0.00     0.182 C 
HETATM   31  C   UNK N   1      -1.193  11.250   0.747  0.00  0.00     0.176 C 
HETATM   32  O   UNK N   1      -1.063  10.312  -0.281  0.00  0.00    -0.371 OA
BRANCH  29  33
HETATM   33  O   UNK N   1       2.091  11.438  -0.509  0.00  0.00    -0.390 OA
HETATM   34  H   UNK N   1       2.690  10.959  -1.103  0.00  0.00     0.210 HD
ENDBRANCH  29  33
BRANCH  30  35
HETATM   35  O   UNK N   1      -0.178  12.838  -0.670  0.00  0.00    -0.390 OA
HETATM   36  H   UNK N   1       0.183  13.192  -1.498  0.00  0.00     0.210 HD
ENDBRANCH  30  35
BRANCH  31  37
HETATM   37  C   UNK N   1      -2.569  11.743   0.552  0.00  0.00     0.007 C 
HETATM   38  C   UNK N   1      -3.188  12.802   1.079  0.00  0.00    -0.001 C 
BRANCH  38  39
HETATM   39  C   UNK N   1      -4.630  12.913   0.743  0.00  0.00    -0.000 C 
HETATM   40  C   UNK N   1      -5.044  12.572  -0.504  0.00  0.00     0.001 C 
BRANCH  40  41
HETATM   41  C   UNK N   1      -6.437  12.310  -0.880  0.00  0.00     0.011 C 
HETATM   42  C   UNK N   1      -7.193  11.421  -0.196  0.00  0.00    -0.011 C 
HETATM   43  C   UNK N   1      -6.652  10.731   1.029  0.00  0.00     0.052 C 
BRANCH  42  44
HETATM   44  C   UNK N   1      -8.553  11.063  -0.683  0.00  0.00     0.196 C 
HETATM   45  O   UNK N   1      -9.156  11.862  -1.386  0.00  0.00    -0.287 OA
BRANCH  44  46
HETATM   46  C   UNK N   1      -9.218   9.772  -0.318  0.00  0.00     0.116 A 
HETATM   47  C   UNK N   1     -10.605   9.746  -0.078  0.00  0.00     0.086 A 
HETATM   48  C   UNK N   1     -11.235   8.551   0.255  0.00  0.00     0.055 A 
HETATM   49  C   UNK N   1     -10.497   7.374   0.330  0.00  0.00     0.096 A 
HETATM   50  N   UNK N   1      -9.162   7.378   0.078  0.00  0.00    -0.328 N 
HETATM   51  C   UNK N   1      -8.448   6.111   0.135  0.00  0.00     0.159 C 
HETATM   52  C   UNK N   1      -8.503   8.547  -0.243  0.00  0.00     0.264 A 
HETATM   53  O   UNK N   1      -7.308   8.512  -0.505  0.00  0.00    -0.267 OA
BRANCH  47  54
HETATM   54  O   UNK N   1     -11.333  10.874  -0.135  0.00  0.00    -0.359 OA
HETATM   55  H   UNK N   1     -10.906  11.707  -0.175  0.00  0.00     0.217 HD
ENDBRANCH  47  54
ENDBRANCH  44  46
ENDBRANCH  42  44
ENDBRANCH  40  41
ENDBRANCH  38  39
ENDBRANCH  31  37
ENDBRANCH  26  28
ENDBRANCH  25  26
BRANCH  25  56
HETATM   56  O   UNK N   1      -2.295   8.500   0.828  0.00  0.00    -0.390 OA
HETATM   57  C   UNK N   1      -3.150   7.792   1.690  0.00  0.00     0.202 C 
ENDBRANCH  25  56
ENDBRANCH  23  25
ENDBRANCH  21  22
ENDBRANCH  19  20
ENDBRANCH  17  19
BRANCH  16  58
HETATM   58  O   UNK N   1       2.950   2.799  -1.571  0.00  0.00    -0.349 OA
HETATM   59  H   UNK N   1       3.450   2.214  -2.106  0.00  0.00     0.219 HD
ENDBRANCH  16  58
ENDBRANCH  13  16
ENDBRANCH   7  13
BRANCH   7  60
HETATM   60  O   UNK N   1       0.430   0.658   0.913  0.00  0.00    -0.363 OA
HETATM   61  H   UNK N   1       0.559   0.930   1.835  0.00  0.00     0.213 HD
ENDBRANCH   7  60
BRANCH   3  62
HETATM   62  C   UNK N   1      -2.131  -1.979  -0.435  0.00  0.00     0.006 C 
HETATM   63  C   UNK N   1      -3.136  -1.100  -0.255  0.00  0.00    -0.002 C 
BRANCH  63  64
HETATM   64  C   UNK N   1      -4.538  -1.413  -0.605  0.00  0.00    -0.005 C 
HETATM   65  C   UNK N   1      -5.531  -0.516  -0.464  0.00  0.00    -0.031 C 
HETATM   66  C   UNK N   1      -5.305   0.869   0.061  0.00  0.00     0.036 C 
ENDBRANCH  63  64
ENDBRANCH   3  62
TORSDOF 23
