MODEL 1
REMARK VINA RESULT:      -4.2      0.000      0.000
REMARK  8 active torsions:
REMARK  status: ('A' for Active; 'I' for Inactive)
REMARK    1  A    between atoms: C_2  and  C_3 
REMARK    2  A    between atoms: C_3  and  C_4 
REMARK    3  A    between atoms: C_4  and  C_5 
REMARK    4  A    between atoms: C_5  and  C_6 
REMARK    5  A    between atoms: C_6  and  P_7 
REMARK    6  A    between atoms: P_7  and  O_8 
REMARK    7  A    between atoms: P_7  and  O_10 
REMARK    8  A    between atoms: O_10  and  C_11 
ROOT
HETATM    1  P   UNK N   1      34.238  17.696   7.974  0.00  0.00     0.237 P 
HETATM    2  O   UNK N   1      34.545  17.669   6.459  0.00  0.00    -0.653 OA
ENDROOT
BRANCH   1   3
HETATM    3  C   UNK N   1      32.447  17.969   8.465  0.00  0.00     0.125 C 
BRANCH   3   4
HETATM    4  C   UNK N   1      31.551  16.834   7.976  0.00  0.00     0.012 C 
BRANCH   4   5
HETATM    5  C   UNK N   1      30.725  17.169   6.746  0.00  0.00     0.001 C 
BRANCH   5   6
HETATM    6  C   UNK N   1      29.260  17.042   7.134  0.00  0.00    -0.000 C 
BRANCH   6   7
HETATM    7  C   UNK N   1      28.693  18.369   7.595  0.00  0.00    -0.005 C 
HETATM    8  C   UNK N   1      28.261  18.247   9.044  0.00  0.00     0.005 C 
ENDBRANCH   6   7
ENDBRANCH   5   6
ENDBRANCH   4   5
ENDBRANCH   3   4
ENDBRANCH   1   3
BRANCH   1   9
HETATM    9  O   UNK N   1      34.983  19.188   8.409  0.00  0.00    -0.329 OA
HETATM   10  H   UNK N   1      35.594  19.776   8.880  0.00  0.00     0.220 HD
ENDBRANCH   1   9
BRANCH   1  11
HETATM   11  O   UNK N   1      35.316  16.586   8.803  0.00  0.00    -0.319 OA
BRANCH  11  12
HETATM   12  C   UNK N   1      34.987  16.590  10.158  0.00  0.00     0.173 C 
HETATM   13  C   UNK N   1      34.328  15.265  10.508  0.00  0.00     0.034 C 
ENDBRANCH  11  12
ENDBRANCH   1  11
TORSDOF 8
ENDMDL
MODEL 2
REMARK VINA RESULT:      -4.2     10.333     12.186
REMARK  8 active torsions:
REMARK  status: ('A' for Active; 'I' for Inactive)
REMARK    1  A    between atoms: C_2  and  C_3 
REMARK    2  A    between atoms: C_3  and  C_4 
REMARK    3  A    between atoms: C_4  and  C_5 
REMARK    4  A    between atoms: C_5  and  C_6 
REMARK    5  A    between atoms: C_6  and  P_7 
REMARK    6  A    between atoms: P_7  and  O_8 
REMARK    7  A    between atoms: P_7  and  O_10 
REMARK    8  A    between atoms: O_10  and  C_11 
ROOT
HETATM    1  P   UNK N   1      21.347  20.326   2.653  0.00  0.00     0.237 P 
HETATM    2  O   UNK N   1      20.486  20.521   3.922  0.00  0.00    -0.653 OA
ENDROOT
BRANCH   1   3
HETATM    3  C   UNK N   1      23.207  20.469   2.870  0.00  0.00     0.125 C 
BRANCH   3   4
HETATM    4  C   UNK N   1      23.765  19.321   3.705  0.00  0.00     0.012 C 
BRANCH   4   5
HETATM    5  C   UNK N   1      25.282  19.274   3.777  0.00  0.00     0.001 C 
BRANCH   5   6
HETATM    6  C   UNK N   1      25.695  19.931   5.086  0.00  0.00    -0.000 C 
BRANCH   6   7
HETATM    7  C   UNK N   1      26.976  20.724   4.926  0.00  0.00    -0.005 C 
HETATM    8  C   UNK N   1      27.284  21.436   6.229  0.00  0.00     0.005 C 
ENDBRANCH   6   7
ENDBRANCH   5   6
ENDBRANCH   4   5
ENDBRANCH   3   4
ENDBRANCH   1   3
BRANCH   1   9
HETATM    9  O   UNK N   1      20.953  21.767   1.793  0.00  0.00    -0.329 OA
HETATM   10  H   UNK N   1      20.384  22.406   1.337  0.00  0.00     0.220 HD
ENDBRANCH   1   9
BRANCH   1  11
HETATM   11  O   UNK N   1      20.577  19.148   1.605  0.00  0.00    -0.319 OA
BRANCH  11  12
HETATM   12  C   UNK N   1      19.892  18.235   2.406  0.00  0.00     0.173 C 
HETATM   13  C   UNK N   1      20.854  17.136   2.832  0.00  0.00     0.034 C 
ENDBRANCH  11  12
ENDBRANCH   1  11
TORSDOF 8
ENDMDL
MODEL 3
REMARK VINA RESULT:      -4.1      1.881      5.809
REMARK  8 active torsions:
REMARK  status: ('A' for Active; 'I' for Inactive)
REMARK    1  A    between atoms: C_2  and  C_3 
REMARK    2  A    between atoms: C_3  and  C_4 
REMARK    3  A    between atoms: C_4  and  C_5 
REMARK    4  A    between atoms: C_5  and  C_6 
REMARK    5  A    between atoms: C_6  and  P_7 
REMARK    6  A    between atoms: P_7  and  O_8 
REMARK    7  A    between atoms: P_7  and  O_10 
REMARK    8  A    between atoms: O_10  and  C_11 
ROOT
HETATM    1  P   UNK N   1      34.324  17.918   8.254  0.00  0.00     0.237 P 
HETATM    2  O   UNK N   1      35.206  19.169   8.469  0.00  0.00    -0.653 OA
ENDROOT
BRANCH   1   3
HETATM    3  C   UNK N   1      34.965  16.304   8.968  0.00  0.00     0.125 C 
BRANCH   3   4
HETATM    4  C   UNK N   1      35.080  16.368  10.488  0.00  0.00     0.012 C 
BRANCH   4   5
HETATM    5  C   UNK N   1      34.656  15.098  11.206  0.00  0.00     0.001 C 
BRANCH   5   6
HETATM    6  C   UNK N   1      35.922  14.397  11.675  0.00  0.00    -0.000 C 
BRANCH   6   7
HETATM    7  C   UNK N   1      36.170  14.633  13.151  0.00  0.00    -0.005 C 
HETATM    8  C   UNK N   1      35.577  13.483  13.943  0.00  0.00     0.005 C 
ENDBRANCH   6   7
ENDBRANCH   5   6
ENDBRANCH   4   5
ENDBRANCH   3   4
ENDBRANCH   1   3
BRANCH   1   9
HETATM    9  O   UNK N   1      34.525  17.690   6.558  0.00  0.00    -0.329 OA
HETATM   10  H   UNK N   1      34.993  17.681   5.708  0.00  0.00     0.220 HD
ENDBRANCH   1   9
BRANCH   1  11
HETATM   11  O   UNK N   1      32.634  18.390   8.280  0.00  0.00    -0.319 OA
BRANCH  11  12
HETATM   12  C   UNK N   1      31.860  17.233   8.363  0.00  0.00     0.173 C 
HETATM   13  C   UNK N   1      30.463  17.538   7.845  0.00  0.00     0.034 C 
ENDBRANCH  11  12
ENDBRANCH   1  11
TORSDOF 8
ENDMDL
MODEL 4
REMARK VINA RESULT:      -4.1      8.297     10.492
REMARK  8 active torsions:
REMARK  status: ('A' for Active; 'I' for Inactive)
REMARK    1  A    between atoms: C_2  and  C_3 
REMARK    2  A    between atoms: C_3  and  C_4 
REMARK    3  A    between atoms: C_4  and  C_5 
REMARK    4  A    between atoms: C_5  and  C_6 
REMARK    5  A    between atoms: C_6  and  P_7 
REMARK    6  A    between atoms: P_7  and  O_8 
REMARK    7  A    between atoms: P_7  and  O_10 
REMARK    8  A    between atoms: O_10  and  C_11 
ROOT
HETATM    1  P   UNK N   1      35.901  13.550  14.131  0.00  0.00     0.237 P 
HETATM    2  O   UNK N   1      36.180  14.840  13.326  0.00  0.00    -0.653 OA
ENDROOT
BRANCH   1   3
HETATM    3  C   UNK N   1      36.252  13.616  15.974  0.00  0.00     0.125 C 
BRANCH   3   4
HETATM    4  C   UNK N   1      34.991  13.366  16.795  0.00  0.00     0.012 C 
BRANCH   4   5
HETATM    5  C   UNK N   1      35.185  12.432  17.978  0.00  0.00     0.001 C 
BRANCH   5   6
HETATM    6  C   UNK N   1      35.686  11.104  17.432  0.00  0.00    -0.000 C 
BRANCH   6   7
HETATM    7  C   UNK N   1      36.354  10.278  18.512  0.00  0.00    -0.005 C 
HETATM    8  C   UNK N   1      36.064  10.902  19.863  0.00  0.00     0.005 C 
ENDBRANCH   6   7
ENDBRANCH   5   6
ENDBRANCH   4   5
ENDBRANCH   3   4
ENDBRANCH   1   3
BRANCH   1   9
HETATM    9  O   UNK N   1      37.167  12.542  13.538  0.00  0.00    -0.329 OA
HETATM   10  H   UNK N   1      38.079  12.248  13.393  0.00  0.00     0.220 HD
ENDBRANCH   1   9
BRANCH   1  11
HETATM   11  O   UNK N   1      34.522  12.719  13.432  0.00  0.00    -0.319 OA
BRANCH  11  12
HETATM   12  C   UNK N   1      34.732  11.346  13.558  0.00  0.00     0.173 C 
HETATM   13  C   UNK N   1      33.642  10.761  14.442  0.00  0.00     0.034 C 
ENDBRANCH  11  12
ENDBRANCH   1  11
TORSDOF 8
ENDMDL
MODEL 5
REMARK VINA RESULT:      -4.0      1.711      2.241
REMARK  8 active torsions:
REMARK  status: ('A' for Active; 'I' for Inactive)
REMARK    1  A    between atoms: C_2  and  C_3 
REMARK    2  A    between atoms: C_3  and  C_4 
REMARK    3  A    between atoms: C_4  and  C_5 
REMARK    4  A    between atoms: C_5  and  C_6 
REMARK    5  A    between atoms: C_6  and  P_7 
REMARK    6  A    between atoms: P_7  and  O_8 
REMARK    7  A    between atoms: P_7  and  O_10 
REMARK    8  A    between atoms: O_10  and  C_11 
ROOT
HETATM    1  P   UNK N   1      34.049  17.858   8.256  0.00  0.00     0.237 P 
HETATM    2  O   UNK N   1      34.903  19.146   8.290  0.00  0.00    -0.653 OA
ENDROOT
BRANCH   1   3
HETATM    3  C   UNK N   1      32.187  18.081   8.348  0.00  0.00     0.125 C 
BRANCH   3   4
HETATM    4  C   UNK N   1      31.461  16.740   8.362  0.00  0.00     0.012 C 
BRANCH   4   5
HETATM    5  C   UNK N   1      30.673  16.437   7.098  0.00  0.00     0.001 C 
BRANCH   5   6
HETATM    6  C   UNK N   1      29.617  17.522   6.950  0.00  0.00    -0.000 C 
BRANCH   6   7
HETATM    7  C   UNK N   1      28.474  17.318   7.924  0.00  0.00    -0.005 C 
HETATM    8  C   UNK N   1      28.274  18.590   8.726  0.00  0.00     0.005 C 
ENDBRANCH   6   7
ENDBRANCH   5   6
ENDBRANCH   4   5
ENDBRANCH   3   4
ENDBRANCH   1   3
BRANCH   1   9
HETATM    9  O   UNK N   1      34.430  17.199   9.802  0.00  0.00    -0.329 OA
HETATM   10  H   UNK N   1      34.998  16.884  10.522  0.00  0.00     0.220 HD
ENDBRANCH   1   9
BRANCH   1  11
HETATM   11  O   UNK N   1      34.837  16.667   7.235  0.00  0.00    -0.319 OA
BRANCH  11  12
HETATM   12  C   UNK N   1      34.231  16.702   5.979  0.00  0.00     0.173 C 
HETATM   13  C   UNK N   1      33.899  15.280   5.555  0.00  0.00     0.034 C 
ENDBRANCH  11  12
ENDBRANCH   1  11
TORSDOF 8
ENDMDL
MODEL 6
REMARK VINA RESULT:      -4.0      1.952      3.678
REMARK  8 active torsions:
REMARK  status: ('A' for Active; 'I' for Inactive)
REMARK    1  A    between atoms: C_2  and  C_3 
REMARK    2  A    between atoms: C_3  and  C_4 
REMARK    3  A    between atoms: C_4  and  C_5 
REMARK    4  A    between atoms: C_5  and  C_6 
REMARK    5  A    between atoms: C_6  and  P_7 
REMARK    6  A    between atoms: P_7  and  O_8 
REMARK    7  A    between atoms: P_7  and  O_10 
REMARK    8  A    between atoms: O_10  and  C_11 
ROOT
HETATM    1  P   UNK N   1      33.839  17.070   6.545  0.00  0.00     0.237 P 
HETATM    2  O   UNK N   1      34.578  18.209   7.283  0.00  0.00    -0.653 OA
ENDROOT
BRANCH   1   3
HETATM    3  C   UNK N   1      32.921  15.831   7.616  0.00  0.00     0.125 C 
BRANCH   3   4
HETATM    4  C   UNK N   1      31.962  16.523   8.580  0.00  0.00     0.012 C 
BRANCH   4   5
HETATM    5  C   UNK N   1      30.916  17.397   7.908  0.00  0.00     0.001 C 
BRANCH   5   6
HETATM    6  C   UNK N   1      30.621  18.556   8.849  0.00  0.00    -0.000 C 
BRANCH   6   7
HETATM    7  C   UNK N   1      29.482  18.228   9.791  0.00  0.00    -0.005 C 
HETATM    8  C   UNK N   1      28.190  18.155   9.000  0.00  0.00     0.005 C 
ENDBRANCH   6   7
ENDBRANCH   5   6
ENDBRANCH   4   5
ENDBRANCH   3   4
ENDBRANCH   1   3
BRANCH   1   9
HETATM    9  O   UNK N   1      35.183  16.155   5.973  0.00  0.00    -0.329 OA
HETATM   10  H   UNK N   1      36.082  16.001   5.644  0.00  0.00     0.220 HD
ENDBRANCH   1   9
BRANCH   1  11
HETATM   11  O   UNK N   1      33.230  17.671   5.013  0.00  0.00    -0.319 OA
BRANCH  11  12
HETATM   12  C   UNK N   1      32.448  16.673   4.433  0.00  0.00     0.173 C 
HETATM   13  C   UNK N   1      32.231  17.008   2.966  0.00  0.00     0.034 C 
ENDBRANCH  11  12
ENDBRANCH   1  11
TORSDOF 8
ENDMDL
MODEL 7
REMARK VINA RESULT:      -4.0      8.075     10.098
REMARK  8 active torsions:
REMARK  status: ('A' for Active; 'I' for Inactive)
REMARK    1  A    between atoms: C_2  and  C_3 
REMARK    2  A    between atoms: C_3  and  C_4 
REMARK    3  A    between atoms: C_4  and  C_5 
REMARK    4  A    between atoms: C_5  and  C_6 
REMARK    5  A    between atoms: C_6  and  P_7 
REMARK    6  A    between atoms: P_7  and  O_8 
REMARK    7  A    between atoms: P_7  and  O_10 
REMARK    8  A    between atoms: O_10  and  C_11 
ROOT
HETATM    1  P   UNK N   1      34.946  11.852  13.521  0.00  0.00     0.237 P 
HETATM    2  O   UNK N   1      36.363  11.350  13.163  0.00  0.00    -0.653 OA
ENDROOT
BRANCH   1   3
HETATM    3  C   UNK N   1      33.906  10.732  14.610  0.00  0.00     0.125 C 
BRANCH   3   4
HETATM    4  C   UNK N   1      34.618  10.402  15.919  0.00  0.00     0.012 C 
BRANCH   4   5
HETATM    5  C   UNK N   1      35.040  11.615  16.729  0.00  0.00     0.001 C 
BRANCH   5   6
HETATM    6  C   UNK N   1      35.379  11.129  18.131  0.00  0.00    -0.000 C 
BRANCH   6   7
HETATM    7  C   UNK N   1      35.330  12.262  19.136  0.00  0.00    -0.005 C 
HETATM    8  C   UNK N   1      35.218  13.579  18.393  0.00  0.00     0.005 C 
ENDBRANCH   6   7
ENDBRANCH   5   6
ENDBRANCH   4   5
ENDBRANCH   3   4
ENDBRANCH   1   3
BRANCH   1   9
HETATM    9  O   UNK N   1      34.175  11.711  11.986  0.00  0.00    -0.329 OA
HETATM   10  H   UNK N   1      33.514  11.890  11.300  0.00  0.00     0.220 HD
ENDBRANCH   1   9
BRANCH   1  11
HETATM   11  O   UNK N   1      34.972  13.601  13.668  0.00  0.00    -0.319 OA
BRANCH  11  12
HETATM   12  C   UNK N   1      36.299  14.023  13.610  0.00  0.00     0.173 C 
HETATM   13  C   UNK N   1      36.759  14.395  15.011  0.00  0.00     0.034 C 
ENDBRANCH  11  12
ENDBRANCH   1  11
TORSDOF 8
ENDMDL
MODEL 8
REMARK VINA RESULT:      -4.0     13.161     14.540
REMARK  8 active torsions:
REMARK  status: ('A' for Active; 'I' for Inactive)
REMARK    1  A    between atoms: C_2  and  C_3 
REMARK    2  A    between atoms: C_3  and  C_4 
REMARK    3  A    between atoms: C_4  and  C_5 
REMARK    4  A    between atoms: C_5  and  C_6 
REMARK    5  A    between atoms: C_6  and  P_7 
REMARK    6  A    between atoms: P_7  and  O_8 
REMARK    7  A    between atoms: P_7  and  O_10 
REMARK    8  A    between atoms: O_10  and  C_11 
ROOT
HETATM    1  P   UNK N   1      29.756  23.615  -2.983  0.00  0.00     0.237 P 
HETATM    2  O   UNK N   1      30.578  24.923  -3.003  0.00  0.00    -0.653 OA
ENDROOT
BRANCH   1   3
HETATM    3  C   UNK N   1      27.894  23.793  -2.824  0.00  0.00     0.125 C 
BRANCH   3   4
HETATM    4  C   UNK N   1      27.250  24.164  -4.157  0.00  0.00     0.012 C 
BRANCH   4   5
HETATM    5  C   UNK N   1      26.433  25.445  -4.127  0.00  0.00     0.001 C 
BRANCH   5   6
HETATM    6  C   UNK N   1      25.800  25.612  -5.500  0.00  0.00    -0.000 C 
BRANCH   6   7
HETATM    7  C   UNK N   1      24.910  26.837  -5.553  0.00  0.00    -0.005 C 
HETATM    8  C   UNK N   1      25.404  27.853  -4.542  0.00  0.00     0.005 C 
ENDBRANCH   6   7
ENDBRANCH   5   6
ENDBRANCH   4   5
ENDBRANCH   3   4
ENDBRANCH   1   3
BRANCH   1   9
HETATM    9  O   UNK N   1      30.211  22.993  -1.442  0.00  0.00    -0.329 OA
HETATM   10  H   UNK N   1      30.805  22.631  -0.765  0.00  0.00     0.220 HD
ENDBRANCH   1   9
BRANCH   1  11
HETATM   11  O   UNK N   1      30.536  22.426  -4.013  0.00  0.00    -0.319 OA
BRANCH  11  12
HETATM   12  C   UNK N   1      31.131  21.466  -3.195  0.00  0.00     0.173 C 
HETATM   13  C   UNK N   1      32.632  21.478  -3.435  0.00  0.00     0.034 C 
ENDBRANCH  11  12
ENDBRANCH   1  11
TORSDOF 8
ENDMDL
MODEL 9
REMARK VINA RESULT:      -4.0     10.932     12.446
REMARK  8 active torsions:
REMARK  status: ('A' for Active; 'I' for Inactive)
REMARK    1  A    between atoms: C_2  and  C_3 
REMARK    2  A    between atoms: C_3  and  C_4 
REMARK    3  A    between atoms: C_4  and  C_5 
REMARK    4  A    between atoms: C_5  and  C_6 
REMARK    5  A    between atoms: C_6  and  P_7 
REMARK    6  A    between atoms: P_7  and  O_8 
REMARK    7  A    between atoms: P_7  and  O_10 
REMARK    8  A    between atoms: O_10  and  C_11 
ROOT
HETATM    1  P   UNK N   1      21.438  17.715   6.133  0.00  0.00     0.237 P 
HETATM    2  O   UNK N   1      20.986  18.917   6.993  0.00  0.00    -0.653 OA
ENDROOT
BRANCH   1   3
HETATM    3  C   UNK N   1      21.584  16.061   7.009  0.00  0.00     0.125 C 
BRANCH   3   4
HETATM    4  C   UNK N   1      20.863  16.072   8.354  0.00  0.00     0.012 C 
BRANCH   4   5
HETATM    5  C   UNK N   1      20.352  14.714   8.805  0.00  0.00     0.001 C 
BRANCH   5   6
HETATM    6  C   UNK N   1      21.463  14.056   9.611  0.00  0.00    -0.000 C 
BRANCH   6   7
HETATM    7  C   UNK N   1      20.936  12.904  10.441  0.00  0.00    -0.005 C 
HETATM    8  C   UNK N   1      22.107  12.137  11.024  0.00  0.00     0.005 C 
ENDBRANCH   6   7
ENDBRANCH   5   6
ENDBRANCH   4   5
ENDBRANCH   3   4
ENDBRANCH   1   3
BRANCH   1   9
HETATM    9  O   UNK N   1      23.084  18.143   5.852  0.00  0.00    -0.329 OA
HETATM   10  H   UNK N   1      24.042  18.009   5.792  0.00  0.00     0.220 HD
ENDBRANCH   1   9
BRANCH   1  11
HETATM   11  O   UNK N   1      20.812  17.901   4.504  0.00  0.00    -0.319 OA
BRANCH  11  12
HETATM   12  C   UNK N   1      21.015  19.223   4.108  0.00  0.00     0.173 C 
HETATM   13  C   UNK N   1      20.111  19.526   2.923  0.00  0.00     0.034 C 
ENDBRANCH  11  12
ENDBRANCH   1  11
TORSDOF 8
ENDMDL
