MODEL 1
REMARK VINA RESULT:      -5.6      0.000      0.000
REMARK  6 active torsions:
REMARK  status: ('A' for Active; 'I' for Inactive)
REMARK    1  A    between atoms: C_2  and  N_1 
REMARK    2  A    between atoms: C_2  and  C_3 
REMARK    3  A    between atoms: C_2  and  C_13 
REMARK    4  A    between atoms: C_3  and  C_4 
REMARK    5  A    between atoms: C_8  and  O_9 
REMARK    6  A    between atoms: C_13  and  O_14 
ROOT
HETATM    1  C   UNK N   1      31.226  16.926   7.758  0.00  0.00    -0.002 A 
HETATM    2  C   UNK N   1      30.365  17.144   8.765  0.00  0.00     0.069 A 
HETATM    3  C   UNK N   1      28.985  17.610   8.492  0.00  0.00     0.205 A 
HETATM    4  O   UNK N   1      28.216  17.813   9.415  0.00  0.00    -0.285 OA
HETATM    5  C   UNK N   1      28.555  17.847   7.093  0.00  0.00     0.119 A 
HETATM    6  C   UNK N   1      29.411  17.642   6.085  0.00  0.00     0.096 A 
HETATM    7  C   UNK N   1      30.791  17.183   6.353  0.00  0.00     0.181 A 
HETATM    8  O   UNK N   1      31.571  17.060   5.425  0.00  0.00    -0.288 OA
ENDROOT
BRANCH   1   9
HETATM    9  C   UNK N   1      32.646  16.544   8.085  0.00  0.00     0.078 C 
BRANCH   9  10
HETATM   10  C   UNK N   1      33.455  17.570   8.886  0.00  0.00     0.177 C 
BRANCH  10  11
HETATM   11  N   UNK N   1      34.242  16.927   9.927  0.00  0.00    -0.417 N 
HETATM   12  H   UNK N   1      34.462  15.932   9.916  0.00  0.00     0.150 HD
HETATM   13  H   UNK N   1      34.588  17.496  10.699  0.00  0.00     0.150 HD
ENDBRANCH  10  11
BRANCH  10  14
HETATM   14  C   UNK N   1      34.364  18.295   7.934  0.00  0.00     0.163 C 
HETATM   15  O   UNK N   1      35.107  19.170   8.350  0.00  0.00    -0.648 OA
BRANCH  14  16
HETATM   16  O   UNK N   1      34.356  18.002   6.618  0.00  0.00    -0.775 OA
HETATM   17  H   UNK N   1      34.384  17.109   6.333  0.00  0.00     0.167 HD
ENDBRANCH  14  16
ENDBRANCH  10  14
ENDBRANCH   9  10
ENDBRANCH   1   9
BRANCH   5  18
HETATM   18  O   UNK N   1      27.306  18.278   6.829  0.00  0.00    -0.357 OA
HETATM   19  H   UNK N   1      26.930  18.149   5.980  0.00  0.00     0.218 HD
ENDBRANCH   5  18
TORSDOF 6
ENDMDL
MODEL 2
REMARK VINA RESULT:      -5.6      8.174     11.151
REMARK  6 active torsions:
REMARK  status: ('A' for Active; 'I' for Inactive)
REMARK    1  A    between atoms: C_2  and  N_1 
REMARK    2  A    between atoms: C_2  and  C_3 
REMARK    3  A    between atoms: C_2  and  C_13 
REMARK    4  A    between atoms: C_3  and  C_4 
REMARK    5  A    between atoms: C_8  and  O_9 
REMARK    6  A    between atoms: C_13  and  O_14 
ROOT
HETATM    1  C   UNK N   1      22.701  19.272   3.609  0.00  0.00    -0.002 A 
HETATM    2  C   UNK N   1      22.985  18.003   3.941  0.00  0.00     0.069 A 
HETATM    3  C   UNK N   1      24.389  17.532   4.000  0.00  0.00     0.205 A 
HETATM    4  O   UNK N   1      24.633  16.375   4.293  0.00  0.00    -0.285 OA
HETATM    5  C   UNK N   1      25.490  18.471   3.679  0.00  0.00     0.119 A 
HETATM    6  C   UNK N   1      25.214  19.735   3.337  0.00  0.00     0.096 A 
HETATM    7  C   UNK N   1      23.814  20.208   3.270  0.00  0.00     0.181 A 
HETATM    8  O   UNK N   1      23.584  21.345   2.900  0.00  0.00    -0.288 OA
ENDROOT
BRANCH   1   9
HETATM    9  C   UNK N   1      21.258  19.682   3.469  0.00  0.00     0.078 C 
BRANCH   9  10
HETATM   10  C   UNK N   1      20.589  19.359   2.130  0.00  0.00     0.177 C 
BRANCH  10  11
HETATM   11  N   UNK N   1      19.165  19.114   2.294  0.00  0.00    -0.417 N 
HETATM   12  H   UNK N   1      18.795  18.238   2.662  0.00  0.00     0.150 HD
HETATM   13  H   UNK N   1      18.509  19.850   2.031  0.00  0.00     0.150 HD
ENDBRANCH  10  11
BRANCH  10  14
HETATM   14  C   UNK N   1      20.802  20.526   1.206  0.00  0.00     0.163 C 
HETATM   15  O   UNK N   1      20.914  20.338   0.005  0.00  0.00    -0.648 OA
BRANCH  14  16
HETATM   16  O   UNK N   1      20.890  21.780   1.693  0.00  0.00    -0.775 OA
HETATM   17  H   UNK N   1      20.128  22.209   2.033  0.00  0.00     0.167 HD
ENDBRANCH  14  16
ENDBRANCH  10  14
ENDBRANCH   9  10
ENDBRANCH   1   9
BRANCH   5  18
HETATM   18  O   UNK N   1      26.772  18.057   3.720  0.00  0.00    -0.357 OA
HETATM   19  H   UNK N   1      27.001  17.273   4.181  0.00  0.00     0.218 HD
ENDBRANCH   5  18
TORSDOF 6
ENDMDL
MODEL 3
REMARK VINA RESULT:      -5.4      2.453      3.736
REMARK  6 active torsions:
REMARK  status: ('A' for Active; 'I' for Inactive)
REMARK    1  A    between atoms: C_2  and  N_1 
REMARK    2  A    between atoms: C_2  and  C_3 
REMARK    3  A    between atoms: C_2  and  C_13 
REMARK    4  A    between atoms: C_3  and  C_4 
REMARK    5  A    between atoms: C_8  and  O_9 
REMARK    6  A    between atoms: C_13  and  O_14 
ROOT
HETATM    1  C   UNK N   1      32.329  17.222   7.059  0.00  0.00    -0.002 A 
HETATM    2  C   UNK N   1      31.086  16.933   6.642  0.00  0.00     0.069 A 
HETATM    3  C   UNK N   1      30.749  16.950   5.199  0.00  0.00     0.205 A 
HETATM    4  O   UNK N   1      29.615  16.695   4.834  0.00  0.00    -0.285 OA
HETATM    5  C   UNK N   1      31.794  17.302   4.207  0.00  0.00     0.119 A 
HETATM    6  C   UNK N   1      33.032  17.602   4.616  0.00  0.00     0.096 A 
HETATM    7  C   UNK N   1      33.371  17.592   6.055  0.00  0.00     0.181 A 
HETATM    8  O   UNK N   1      34.489  17.925   6.409  0.00  0.00    -0.288 OA
ENDROOT
BRANCH   1   9
HETATM    9  C   UNK N   1      32.604  17.284   8.539  0.00  0.00     0.078 C 
BRANCH   9  10
HETATM   10  C   UNK N   1      33.689  16.340   9.066  0.00  0.00     0.177 C 
BRANCH  10  11
HETATM   11  N   UNK N   1      34.520  16.994  10.064  0.00  0.00    -0.417 N 
HETATM   12  H   UNK N   1      35.056  16.477  10.761  0.00  0.00     0.150 HD
HETATM   13  H   UNK N   1      34.571  18.013  10.067  0.00  0.00     0.150 HD
ENDBRANCH  10  11
BRANCH  10  14
HETATM   14  C   UNK N   1      33.014  15.141   9.671  0.00  0.00     0.163 C 
HETATM   15  O   UNK N   1      32.537  14.281   8.947  0.00  0.00    -0.648 OA
BRANCH  14  16
HETATM   16  O   UNK N   1      32.912  15.014  11.009  0.00  0.00    -0.775 OA
HETATM   17  H   UNK N   1      32.204  14.527  11.384  0.00  0.00     0.167 HD
ENDBRANCH  14  16
ENDBRANCH  10  14
ENDBRANCH   9  10
ENDBRANCH   1   9
BRANCH   5  18
HETATM   18  O   UNK N   1      31.501  17.330   2.892  0.00  0.00    -0.357 OA
HETATM   19  H   UNK N   1      31.217  16.551   2.454  0.00  0.00     0.218 HD
ENDBRANCH   5  18
TORSDOF 6
ENDMDL
MODEL 4
REMARK VINA RESULT:      -5.3     11.688     12.975
REMARK  6 active torsions:
REMARK  status: ('A' for Active; 'I' for Inactive)
REMARK    1  A    between atoms: C_2  and  N_1 
REMARK    2  A    between atoms: C_2  and  C_3 
REMARK    3  A    between atoms: C_2  and  C_13 
REMARK    4  A    between atoms: C_3  and  C_4 
REMARK    5  A    between atoms: C_8  and  O_9 
REMARK    6  A    between atoms: C_13  and  O_14 
ROOT
HETATM    1  C   UNK N   1      20.493  17.765   3.393  0.00  0.00    -0.002 A 
HETATM    2  C   UNK N   1      20.355  17.212   2.177  0.00  0.00     0.069 A 
HETATM    3  C   UNK N   1      20.411  18.049   0.955  0.00  0.00     0.205 A 
HETATM    4  O   UNK N   1      20.276  17.535  -0.142  0.00  0.00    -0.285 OA
HETATM    5  C   UNK N   1      20.609  19.513   1.077  0.00  0.00     0.119 A 
HETATM    6  C   UNK N   1      20.736  20.072   2.286  0.00  0.00     0.096 A 
HETATM    7  C   UNK N   1      20.675  19.243   3.509  0.00  0.00     0.181 A 
HETATM    8  O   UNK N   1      20.734  19.781   4.600  0.00  0.00    -0.288 OA
ENDROOT
BRANCH   1   9
HETATM    9  C   UNK N   1      20.336  16.893   4.610  0.00  0.00     0.078 C 
BRANCH   9  10
HETATM   10  C   UNK N   1      20.023  15.416   4.349  0.00  0.00     0.177 C 
BRANCH  10  11
HETATM   11  N   UNK N   1      21.047  14.550   4.911  0.00  0.00    -0.417 N 
HETATM   12  H   UNK N   1      21.299  14.563   5.899  0.00  0.00     0.150 HD
HETATM   13  H   UNK N   1      21.534  13.902   4.290  0.00  0.00     0.150 HD
ENDBRANCH  10  11
BRANCH  10  14
HETATM   14  C   UNK N   1      18.692  15.102   4.973  0.00  0.00     0.163 C 
HETATM   15  O   UNK N   1      18.119  15.947   5.643  0.00  0.00    -0.648 OA
BRANCH  14  16
HETATM   16  O   UNK N   1      18.130  13.887   4.815  0.00  0.00    -0.775 OA
HETATM   17  H   UNK N   1      18.067  13.298   5.542  0.00  0.00     0.167 HD
ENDBRANCH  14  16
ENDBRANCH  10  14
ENDBRANCH   9  10
ENDBRANCH   1   9
BRANCH   5  18
HETATM   18  O   UNK N   1      20.654  20.288  -0.024  0.00  0.00    -0.357 OA
HETATM   19  H   UNK N   1      21.324  20.158  -0.667  0.00  0.00     0.218 HD
ENDBRANCH   5  18
TORSDOF 6
ENDMDL
MODEL 5
REMARK VINA RESULT:      -5.2     10.758     12.316
REMARK  6 active torsions:
REMARK  status: ('A' for Active; 'I' for Inactive)
REMARK    1  A    between atoms: C_2  and  N_1 
REMARK    2  A    between atoms: C_2  and  C_3 
REMARK    3  A    between atoms: C_2  and  C_13 
REMARK    4  A    between atoms: C_3  and  C_4 
REMARK    5  A    between atoms: C_8  and  O_9 
REMARK    6  A    between atoms: C_13  and  O_14 
ROOT
HETATM    1  C   UNK N   1      35.264  12.468  17.252  0.00  0.00    -0.002 A 
HETATM    2  C   UNK N   1      35.269  11.130  17.364  0.00  0.00     0.069 A 
HETATM    3  C   UNK N   1      35.215  10.481  18.695  0.00  0.00     0.205 A 
HETATM    4  O   UNK N   1      35.229   9.266  18.783  0.00  0.00    -0.285 OA
HETATM    5  C   UNK N   1      35.165  11.320  19.917  0.00  0.00     0.119 A 
HETATM    6  C   UNK N   1      35.171  12.654  19.814  0.00  0.00     0.096 A 
HETATM    7  C   UNK N   1      35.231  13.306  18.488  0.00  0.00     0.181 A 
HETATM    8  O   UNK N   1      35.295  14.521  18.421  0.00  0.00    -0.288 OA
ENDROOT
BRANCH   1   9
HETATM    9  C   UNK N   1      35.415  13.084  15.886  0.00  0.00     0.078 C 
BRANCH   9  10
HETATM   10  C   UNK N   1      36.848  13.235  15.366  0.00  0.00     0.177 C 
BRANCH  10  11
HETATM   11  N   UNK N   1      37.027  12.543  14.100  0.00  0.00    -0.417 N 
HETATM   12  H   UNK N   1      37.846  12.679  13.508  0.00  0.00     0.150 HD
HETATM   13  H   UNK N   1      36.303  11.894  13.790  0.00  0.00     0.150 HD
ENDBRANCH  10  11
BRANCH  10  14
HETATM   14  C   UNK N   1      37.132  14.700  15.191  0.00  0.00     0.163 C 
HETATM   15  O   UNK N   1      37.600  15.344  16.117  0.00  0.00    -0.648 OA
BRANCH  14  16
HETATM   16  O   UNK N   1      36.857  15.318  14.024  0.00  0.00    -0.775 OA
HETATM   17  H   UNK N   1      36.179  14.990  13.465  0.00  0.00     0.167 HD
ENDBRANCH  14  16
ENDBRANCH  10  14
ENDBRANCH   9  10
ENDBRANCH   1   9
BRANCH   5  18
HETATM   18  O   UNK N   1      35.124  10.745  21.135  0.00  0.00    -0.357 OA
HETATM   19  H   UNK N   1      35.912  10.627  21.629  0.00  0.00     0.218 HD
ENDBRANCH   5  18
TORSDOF 6
ENDMDL
MODEL 6
REMARK VINA RESULT:      -5.2     12.361     14.253
REMARK  6 active torsions:
REMARK  status: ('A' for Active; 'I' for Inactive)
REMARK    1  A    between atoms: C_2  and  N_1 
REMARK    2  A    between atoms: C_2  and  C_3 
REMARK    3  A    between atoms: C_2  and  C_13 
REMARK    4  A    between atoms: C_3  and  C_4 
REMARK    5  A    between atoms: C_8  and  O_9 
REMARK    6  A    between atoms: C_13  and  O_14 
ROOT
HETATM    1  C   UNK N   1      29.438  22.809  -4.705  0.00  0.00    -0.002 A 
HETATM    2  C   UNK N   1      29.476  23.227  -3.429  0.00  0.00     0.069 A 
HETATM    3  C   UNK N   1      30.500  22.707  -2.493  0.00  0.00     0.205 A 
HETATM    4  O   UNK N   1      30.518  23.088  -1.336  0.00  0.00    -0.285 OA
HETATM    5  C   UNK N   1      31.486  21.707  -2.968  0.00  0.00     0.119 A 
HETATM    6  C   UNK N   1      31.448  21.278  -4.235  0.00  0.00     0.096 A 
HETATM    7  C   UNK N   1      30.423  21.789  -5.171  0.00  0.00     0.181 A 
HETATM    8  O   UNK N   1      30.370  21.340  -6.303  0.00  0.00    -0.288 OA
ENDROOT
BRANCH   1   9
HETATM    9  C   UNK N   1      28.323  23.292  -5.595  0.00  0.00     0.078 C 
BRANCH   9  10
HETATM   10  C   UNK N   1      27.677  24.626  -5.208  0.00  0.00     0.177 C 
BRANCH  10  11
HETATM   11  N   UNK N   1      27.620  25.535  -6.342  0.00  0.00    -0.417 N 
HETATM   12  H   UNK N   1      28.109  25.355  -7.218  0.00  0.00     0.150 HD
HETATM   13  H   UNK N   1      27.068  26.389  -6.257  0.00  0.00     0.150 HD
ENDBRANCH  10  11
BRANCH  10  14
HETATM   14  C   UNK N   1      26.288  24.346  -4.708  0.00  0.00     0.163 C 
HETATM   15  O   UNK N   1      26.082  24.240  -3.509  0.00  0.00    -0.648 OA
BRANCH  14  16
HETATM   16  O   UNK N   1      25.265  24.193  -5.573  0.00  0.00    -0.775 OA
HETATM   17  H   UNK N   1      25.083  23.350  -5.944  0.00  0.00     0.167 HD
ENDBRANCH  14  16
ENDBRANCH  10  14
ENDBRANCH   9  10
ENDBRANCH   1   9
BRANCH   5  18
HETATM   18  O   UNK N   1      32.419  21.219  -2.127  0.00  0.00    -0.357 OA
HETATM   19  H   UNK N   1      32.162  20.745  -1.360  0.00  0.00     0.218 HD
ENDBRANCH   5  18
TORSDOF 6
ENDMDL
MODEL 7
REMARK VINA RESULT:      -5.2      9.943     11.662
REMARK  6 active torsions:
REMARK  status: ('A' for Active; 'I' for Inactive)
REMARK    1  A    between atoms: C_2  and  N_1 
REMARK    2  A    between atoms: C_2  and  C_3 
REMARK    3  A    between atoms: C_2  and  C_13 
REMARK    4  A    between atoms: C_3  and  C_4 
REMARK    5  A    between atoms: C_8  and  O_9 
REMARK    6  A    between atoms: C_13  and  O_14 
ROOT
HETATM    1  C   UNK N   1      21.533  13.637   8.958  0.00  0.00    -0.002 A 
HETATM    2  C   UNK N   1      22.839  13.331   9.019  0.00  0.00     0.069 A 
HETATM    3  C   UNK N   1      23.384  12.563  10.163  0.00  0.00     0.205 A 
HETATM    4  O   UNK N   1      24.573  12.300  10.211  0.00  0.00    -0.285 OA
HETATM    5  C   UNK N   1      22.478  12.139  11.258  0.00  0.00     0.119 A 
HETATM    6  C   UNK N   1      21.178  12.449  11.209  0.00  0.00     0.096 A 
HETATM    7  C   UNK N   1      20.631  13.220  10.072  0.00  0.00     0.181 A 
HETATM    8  O   UNK N   1      19.455  13.542  10.078  0.00  0.00    -0.288 OA
ENDROOT
BRANCH   1   9
HETATM    9  C   UNK N   1      21.040  14.498   7.825  0.00  0.00     0.078 C 
BRANCH   9  10
HETATM   10  C   UNK N   1      21.300  16.002   7.955  0.00  0.00     0.177 C 
BRANCH  10  11
HETATM   11  N   UNK N   1      21.641  16.593   6.670  0.00  0.00    -0.417 N 
HETATM   12  H   UNK N   1      22.059  17.519   6.583  0.00  0.00     0.150 HD
HETATM   13  H   UNK N   1      21.454  16.059   5.821  0.00  0.00     0.150 HD
ENDBRANCH  10  11
BRANCH  10  14
HETATM   14  C   UNK N   1      20.057  16.647   8.499  0.00  0.00     0.163 C 
HETATM   15  O   UNK N   1      20.100  17.794   8.918  0.00  0.00    -0.648 OA
BRANCH  14  16
HETATM   16  O   UNK N   1      18.895  15.966   8.547  0.00  0.00    -0.775 OA
HETATM   17  H   UNK N   1      18.314  15.971   7.811  0.00  0.00     0.167 HD
ENDBRANCH  14  16
ENDBRANCH  10  14
ENDBRANCH   9  10
ENDBRANCH   1   9
BRANCH   5  18
HETATM   18  O   UNK N   1      22.960  11.447  12.310  0.00  0.00    -0.357 OA
HETATM   19  H   UNK N   1      22.444  10.775  12.710  0.00  0.00     0.218 HD
ENDBRANCH   5  18
TORSDOF 6
ENDMDL
MODEL 8
REMARK VINA RESULT:      -5.2      2.587      5.527
REMARK  6 active torsions:
REMARK  status: ('A' for Active; 'I' for Inactive)
REMARK    1  A    between atoms: C_2  and  N_1 
REMARK    2  A    between atoms: C_2  and  C_3 
REMARK    3  A    between atoms: C_2  and  C_13 
REMARK    4  A    between atoms: C_3  and  C_4 
REMARK    5  A    between atoms: C_8  and  O_9 
REMARK    6  A    between atoms: C_13  and  O_14 
ROOT
HETATM    1  C   UNK N   1      30.374  17.212   7.086  0.00  0.00    -0.002 A 
HETATM    2  C   UNK N   1      31.046  17.014   5.940  0.00  0.00     0.069 A 
HETATM    3  C   UNK N   1      32.502  17.276   5.863  0.00  0.00     0.205 A 
HETATM    4  O   UNK N   1      33.099  17.100   4.815  0.00  0.00    -0.285 OA
HETATM    5  C   UNK N   1      33.222  17.773   7.060  0.00  0.00     0.119 A 
HETATM    6  C   UNK N   1      32.556  17.983   8.202  0.00  0.00     0.096 A 
HETATM    7  C   UNK N   1      31.102  17.729   8.282  0.00  0.00     0.181 A 
HETATM    8  O   UNK N   1      30.506  17.984   9.315  0.00  0.00    -0.288 OA
ENDROOT
BRANCH   1   9
HETATM    9  C   UNK N   1      28.879  17.023   7.094  0.00  0.00     0.078 C 
BRANCH   9  10
HETATM   10  C   UNK N   1      28.058  18.090   6.363  0.00  0.00     0.177 C 
BRANCH  10  11
HETATM   11  N   UNK N   1      26.777  17.563   5.923  0.00  0.00    -0.417 N 
HETATM   12  H   UNK N   1      26.109  18.113   5.383  0.00  0.00     0.150 HD
HETATM   13  H   UNK N   1      26.535  16.601   6.163  0.00  0.00     0.150 HD
ENDBRANCH  10  11
BRANCH  10  14
HETATM   14  C   UNK N   1      27.839  19.240   7.306  0.00  0.00     0.163 C 
HETATM   15  O   UNK N   1      27.801  20.382   6.875  0.00  0.00    -0.648 OA
BRANCH  14  16
HETATM   16  O   UNK N   1      27.701  19.025   8.630  0.00  0.00    -0.775 OA
HETATM   17  H   UNK N   1      26.983  18.516   8.954  0.00  0.00     0.167 HD
ENDBRANCH  14  16
ENDBRANCH  10  14
ENDBRANCH   9  10
ENDBRANCH   1   9
BRANCH   5  18
HETATM   18  O   UNK N   1      34.545  18.023   7.003  0.00  0.00    -0.357 OA
HETATM   19  H   UNK N   1      34.863  18.901   7.083  0.00  0.00     0.218 HD
ENDBRANCH   5  18
TORSDOF 6
ENDMDL
MODEL 9
REMARK VINA RESULT:      -5.1      3.565      5.407
REMARK  6 active torsions:
REMARK  status: ('A' for Active; 'I' for Inactive)
REMARK    1  A    between atoms: C_2  and  N_1 
REMARK    2  A    between atoms: C_2  and  C_3 
REMARK    3  A    between atoms: C_2  and  C_13 
REMARK    4  A    between atoms: C_3  and  C_4 
REMARK    5  A    between atoms: C_8  and  O_9 
REMARK    6  A    between atoms: C_13  and  O_14 
ROOT
HETATM    1  C   UNK N   1      33.224  16.818   6.738  0.00  0.00    -0.002 A 
HETATM    2  C   UNK N   1      33.959  17.914   6.984  0.00  0.00     0.069 A 
HETATM    3  C   UNK N   1      34.597  18.117   8.306  0.00  0.00     0.205 A 
HETATM    4  O   UNK N   1      35.254  19.121   8.519  0.00  0.00    -0.285 OA
HETATM    5  C   UNK N   1      34.412  17.103   9.372  0.00  0.00     0.119 A 
HETATM    6  C   UNK N   1      33.672  16.012   9.137  0.00  0.00     0.096 A 
HETATM    7  C   UNK N   1      33.029  15.809   7.822  0.00  0.00     0.181 A 
HETATM    8  O   UNK N   1      32.312  14.839   7.650  0.00  0.00    -0.288 OA
ENDROOT
BRANCH   1   9
HETATM    9  C   UNK N   1      32.518  16.697   5.414  0.00  0.00     0.078 C 
BRANCH   9  10
HETATM   10  C   UNK N   1      33.066  15.642   4.448  0.00  0.00     0.177 C 
BRANCH  10  11
HETATM   11  N   UNK N   1      32.280  14.419   4.499  0.00  0.00    -0.417 N 
HETATM   12  H   UNK N   1      31.391  14.355   4.995  0.00  0.00     0.150 HD
HETATM   13  H   UNK N   1      32.632  13.591   4.018  0.00  0.00     0.150 HD
ENDBRANCH  10  11
BRANCH  10  14
HETATM   14  C   UNK N   1      33.029  16.214   3.058  0.00  0.00     0.163 C 
HETATM   15  O   UNK N   1      32.285  17.148   2.805  0.00  0.00    -0.648 OA
BRANCH  14  16
HETATM   16  O   UNK N   1      33.797  15.693   2.081  0.00  0.00    -0.775 OA
HETATM   17  H   UNK N   1      34.347  16.250   1.565  0.00  0.00     0.167 HD
ENDBRANCH  14  16
ENDBRANCH  10  14
ENDBRANCH   9  10
ENDBRANCH   1   9
BRANCH   5  18
HETATM   18  O   UNK N   1      34.979  17.277  10.582  0.00  0.00    -0.357 OA
HETATM   19  H   UNK N   1      34.606  17.878  11.197  0.00  0.00     0.218 HD
ENDBRANCH   5  18
TORSDOF 6
ENDMDL
