REMARK  0 active torsions:
REMARK  status: ('A' for Active; 'I' for Inactive)
ROOT
HETATM    1  O   UNK N   1      -0.696   0.359   0.000  0.00  0.00    -0.322 OA
HETATM    2  C   UNK N   1      -1.496  -0.695  -0.000  0.00  0.00     0.143 A 
HETATM    3  C   UNK N   1      -0.726  -1.861  -0.000  0.00  0.00     0.039 A 
HETATM    4  C   UNK N   1       0.572  -1.419  -0.000  0.00  0.00    -0.001 A 
HETATM    5  C   UNK N   1       0.543  -0.057   0.000  0.00  0.00     0.085 A 
HETATM    6  C   UNK N   1       1.704   0.708   0.000  0.00  0.00     0.038 A 
HETATM    7  C   UNK N   1       2.934   0.022   0.000  0.00  0.00     0.003 A 
HETATM    8  C   UNK N   1       2.964  -1.393  -0.000  0.00  0.00     0.001 A 
HETATM    9  C   UNK N   1       1.767  -2.131  -0.000  0.00  0.00     0.014 A 
ENDROOT
TORSDOF 0
