MODEL 1
REMARK VINA RESULT:      -6.0      0.000      0.000
REMARK WARNING: 32 MAX_TORS EXCEEDED!!!
REMARK  35 active torsions:
REMARK  status: ('A' for Active; 'I' for Inactive)
REMARK    1  A    between atoms: C_10  and  C_7 
REMARK    2  A    between atoms: C_19  and  C_7 
REMARK    3  A    between atoms: C_23  and  C_10 
REMARK    4  A    between atoms: C_12  and  C_11 
REMARK    5  A    between atoms: C_22  and  C_11 
REMARK    6  A    between atoms: N_36  and  C_12 
REMARK    7  A    between atoms: C_14  and  C_13 
REMARK    8  A    between atoms: N_34  and  C_13 
REMARK    9  A    between atoms: S_66  and  C_14 
REMARK   10  A    between atoms: C_21  and  C_15 
REMARK   11  A    between atoms: O_58  and  C_15 
REMARK   12  A    between atoms: C_32  and  C_16 
REMARK   13  A    between atoms: O_59  and  C_16 
REMARK   14  A    between atoms: N_44  and  C_20 
REMARK   15  A    between atoms: N_34  and  C_22 
REMARK   16  A    between atoms: O_46  and  C_22 
REMARK   17  A    between atoms: S_66  and  C_23 
REMARK   18  A    between atoms: C_25  and  O_48 
REMARK   19  A    between atoms: C_26  and  O_61 
REMARK   20  A    between atoms: C_30  and  C_27 
REMARK   21  A    between atoms: C_32  and  C_27 
REMARK   22  A    between atoms: C_27  and  O_49 
REMARK   23  A    between atoms: N_33  and  C_28 
REMARK   24  A    between atoms: N_36  and  C_30 
REMARK   25  A    between atoms: O_50  and  C_30 
REMARK   26  A    between atoms: C_31  and  N_45 
REMARK   27  A    between atoms: P_63  and  O_51 
REMARK   28  A    between atoms: P_63  and  O_52 
REMARK   29  A    between atoms: P_64  and  O_54 
REMARK   30  A    between atoms: P_65  and  O_56 
REMARK   31  A    between atoms: P_64  and  O_58 
REMARK   32  A    between atoms: P_65  and  O_59 
REMARK   33  A    between atoms: P_63  and  O_61 
REMARK   34  A    between atoms: P_64  and  O_62 
REMARK   35  A    between atoms: P_65  and  O_62 
ROOT
HETATM    1  O   UNK N   1      20.302  10.276   4.148  0.00  0.00    -0.631 OA
HETATM    2  P   UNK N   1      19.140  10.842   3.279  0.00  0.00     0.401 P 
ENDROOT
BRANCH   2   3
HETATM    3  O   UNK N   1      18.596  12.466   3.078  0.00  0.00    -0.307 OA
HETATM    4  H   UNK N   1      18.994  13.121   2.486  0.00  0.00     0.222 HD
ENDBRANCH   2   3
BRANCH   2   5
HETATM    5  O   UNK N   1      20.386  11.721   2.328  0.00  0.00    -0.296 OA
BRANCH   5   6
HETATM    6  C   UNK N   1      21.254  10.858   1.603  0.00  0.00     0.192 C 
BRANCH   6   7
HETATM    7  C   UNK N   1      22.643  11.358   1.126  0.00  0.00     0.008 C 
HETATM    8  C   UNK N   1      23.660  11.575   2.226  0.00  0.00     0.020 C 
HETATM    9  C   UNK N   1      23.212  10.208   0.313  0.00  0.00     0.020 C 
BRANCH   7  10
HETATM   10  C   UNK N   1      22.568  12.636   0.254  0.00  0.00     0.202 C 
BRANCH  10  11
HETATM   11  C   UNK N   1      22.611  13.897   1.087  0.00  0.00     0.141 C 
BRANCH  11  12
HETATM   12  N   UNK N   1      21.532  14.346   1.631  0.00  0.00    -0.372 N 
ATOM     13  HN  UNK N   1      21.506  14.477   2.643  1.00  0.00     0.161 HD
BRANCH  12  14
HETATM   14  C   UNK N   1      20.362  14.669   0.856  0.00  0.00     0.129 C 
BRANCH  14  15
HETATM   15  C   UNK N   1      20.357  16.160   0.542  0.00  0.00     0.103 C 
BRANCH  15  16
HETATM   16  C   UNK N   1      19.922  16.981   1.726  0.00  0.00     0.112 C 
BRANCH  16  17
HETATM   17  N   UNK N   1      19.872  18.269   1.675  0.00  0.00    -0.374 N 
ATOM     18  HN  UNK N   1      20.170  18.736   0.820  1.00  0.00     0.161 HD
BRANCH  17  19
HETATM   19  C   UNK N   1      19.411  19.075   2.779  0.00  0.00     0.132 C 
BRANCH  19  20
HETATM   20  C   UNK N   1      20.576  19.736   3.497  0.00  0.00     0.102 C 
BRANCH  20  21
HETATM   21  S   UNK N   1      21.651  20.619   2.329  0.00  0.00    -0.086 SA
BRANCH  21  22
HETATM   22  C   UNK N   1      23.139  20.066   3.162  0.00  0.00     0.208 C 
HETATM   23  O   UNK N   1      23.094  19.045   3.834  0.00  0.00    -0.281 OA
BRANCH  22  24
HETATM   24  C   UNK N   1      24.396  20.850   3.064  0.00  0.00     0.063 C 
BRANCH  24  25
HETATM   25  C   UNK N   1      25.578  20.237   2.861  0.00  0.00     0.016 C 
BRANCH  25  26
HETATM   26  C   UNK N   1      26.420  19.683   3.946  0.00  0.00    -0.036 A 
HETATM   27  C   UNK N   1      26.418  20.338   5.183  0.00  0.00     0.013 A 
HETATM   28  C   UNK N   1      27.208  19.874   6.234  0.00  0.00     0.030 A 
HETATM   29  C   UNK N   1      28.011  18.736   6.074  0.00  0.00     0.029 A 
HETATM   30  C   UNK N   1      28.006  18.070   4.833  0.00  0.00     0.030 A 
HETATM   31  C   UNK N   1      27.221  18.544   3.774  0.00  0.00     0.013 A 
BRANCH  29  32
HETATM   32  N   UNK N   1      28.819  18.267   7.155  0.00  0.00    -0.390 N 
HETATM   33  C   UNK N   1      28.508  18.615   8.518  0.00  0.00     0.149 C 
HETATM   34  C   UNK N   1      29.966  17.428   6.908  0.00  0.00     0.149 C 
ENDBRANCH  29  32
ENDBRANCH  25  26
ENDBRANCH  24  25
ENDBRANCH  22  24
ENDBRANCH  21  22
ENDBRANCH  20  21
ENDBRANCH  19  20
ENDBRANCH  17  19
ENDBRANCH  16  17
BRANCH  16  35
HETATM   35  O   UNK N   1      19.545  16.353   2.854  0.00  0.00    -0.350 OA
HETATM   36  H   UNK N   1      18.755  15.891   3.054  0.00  0.00     0.219 HD
ENDBRANCH  16  35
ENDBRANCH  15  16
ENDBRANCH  14  15
ENDBRANCH  12  14
ENDBRANCH  11  12
BRANCH  11  37
HETATM   37  O   UNK N   1      23.789  14.529   1.284  0.00  0.00    -0.348 OA
HETATM   38  H   UNK N   1      24.454  15.102   0.955  0.00  0.00     0.219 HD
ENDBRANCH  11  37
ENDBRANCH  10  11
BRANCH  10  39
HETATM   39  O   UNK N   1      23.618  12.651  -0.670  0.00  0.00    -0.387 OA
HETATM   40  H   UNK N   1      23.720  12.979  -1.577  0.00  0.00     0.210 HD
ENDBRANCH  10  39
ENDBRANCH   7  10
ENDBRANCH   6   7
ENDBRANCH   5   6
ENDBRANCH   2   5
BRANCH   2  41
HETATM   41  O   UNK N   1      19.108  11.666   4.824  0.00  0.00    -0.195 OA
BRANCH  41  42
HETATM   42  P   UNK N   1      19.365  13.375   4.608  0.00  0.00     0.401 P 
HETATM   43  O   UNK N   1      18.204  14.332   4.988  0.00  0.00    -0.631 OA
BRANCH  42  44
HETATM   44  O   UNK N   1      19.819  13.354   6.277  0.00  0.00    -0.307 OA
HETATM   45  H   UNK N   1      19.876  13.170   7.228  0.00  0.00     0.222 HD
ENDBRANCH  42  44
BRANCH  42  46
HETATM   46  O   UNK N   1      20.938  14.059   4.351  0.00  0.00    -0.294 OA
BRANCH  46  47
HETATM   47  C   UNK N   1      21.779  13.307   5.165  0.00  0.00     0.215 C 
BRANCH  47  48
HETATM   48  C   UNK N   1      23.046  14.063   5.507  0.00  0.00     0.180 C 
HETATM   49  C   UNK N   1      22.881  15.558   5.759  0.00  0.00     0.197 C 
HETATM   50  C   UNK N   1      24.349  15.884   5.799  0.00  0.00     0.199 C 
HETATM   51  C   UNK N   1      24.803  15.117   4.553  0.00  0.00     0.262 C 
HETATM   52  O   UNK N   1      24.002  13.946   4.476  0.00  0.00    -0.353 OA
BRANCH  49  53
HETATM   53  O   UNK N   1      22.255  15.846   6.993  0.00  0.00    -0.286 OA
BRANCH  53  54
HETATM   54  P   UNK N   1      21.035  17.095   6.805  0.00  0.00     0.391 P 
HETATM   55  O   UNK N   1      20.309  17.225   8.170  0.00  0.00    -0.632 OA
BRANCH  54  56
HETATM   56  O   UNK N   1      19.810  16.744   5.623  0.00  0.00    -0.307 OA
HETATM   57  H   UNK N   1      18.999  16.955   5.134  0.00  0.00     0.222 HD
ENDBRANCH  54  56
BRANCH  54  58
HETATM   58  O   UNK N   1      21.753  18.645   6.499  0.00  0.00    -0.307 OA
HETATM   59  H   UNK N   1      21.206  19.446   6.520  0.00  0.00     0.222 HD
ENDBRANCH  54  58
ENDBRANCH  53  54
ENDBRANCH  49  53
BRANCH  50  60
HETATM   60  O   UNK N   1      24.599  17.257   5.726  0.00  0.00    -0.388 OA
HETATM   61  H   UNK N   1      23.966  17.970   5.550  0.00  0.00     0.210 HD
ENDBRANCH  50  60
BRANCH  51  62
HETATM   62  N   UNK N   1      26.215  14.732   4.597  0.00  0.00    -0.297 N 
HETATM   63  C   UNK N   1      27.057  14.953   5.642  0.00  0.00     0.188 A 
HETATM   64  N   UNK N   1      28.305  14.476   5.388  0.00  0.00    -0.346 N 
HETATM   65  C   UNK N   1      28.215  13.961   4.151  0.00  0.00     0.122 A 
ATOM     66  HN  UNK N   1      29.121  14.504   5.998  1.00  0.00     0.167 HD
HETATM   67  C   UNK N   1      29.187  13.362   3.373  0.00  0.00     0.131 A 
HETATM   68  C   UNK N   1      26.961  14.108   3.676  0.00  0.00     0.142 A 
HETATM   69  N   UNK N   1      28.835  12.940   2.121  0.00  0.00    -0.337 N 
HETATM   70  C   UNK N   1      27.552  13.103   1.655  0.00  0.00     0.183 A 
ATOM     71  HN  UNK N   1      29.535  12.499   1.525  1.00  0.00     0.168 HD
HETATM   72  N   UNK N   1      26.597  13.692   2.442  0.00  0.00    -0.336 N 
ATOM     73  HN  UNK N   1      25.641  13.813   2.107  1.00  0.00     0.168 HD
BRANCH  67  74
HETATM   74  N   UNK N   1      30.504  13.198   3.847  0.00  0.00    -0.383 N 
HETATM   75  H   UNK N   1      30.887  12.318   4.066  0.00  0.00     0.157 HD
HETATM   76  H   UNK N   1      31.066  13.998   3.963  0.00  0.00     0.157 HD
ENDBRANCH  67  74
ENDBRANCH  51  62
ENDBRANCH  47  48
ENDBRANCH  46  47
ENDBRANCH  42  46
ENDBRANCH  41  42
ENDBRANCH   2  41
TORSDOF 35
ENDMDL
MODEL 2
REMARK VINA RESULT:      -5.9      7.735     12.385
REMARK WARNING: 32 MAX_TORS EXCEEDED!!!
REMARK  35 active torsions:
REMARK  status: ('A' for Active; 'I' for Inactive)
REMARK    1  A    between atoms: C_10  and  C_7 
REMARK    2  A    between atoms: C_19  and  C_7 
REMARK    3  A    between atoms: C_23  and  C_10 
REMARK    4  A    between atoms: C_12  and  C_11 
REMARK    5  A    between atoms: C_22  and  C_11 
REMARK    6  A    between atoms: N_36  and  C_12 
REMARK    7  A    between atoms: C_14  and  C_13 
REMARK    8  A    between atoms: N_34  and  C_13 
REMARK    9  A    between atoms: S_66  and  C_14 
REMARK   10  A    between atoms: C_21  and  C_15 
REMARK   11  A    between atoms: O_58  and  C_15 
REMARK   12  A    between atoms: C_32  and  C_16 
REMARK   13  A    between atoms: O_59  and  C_16 
REMARK   14  A    between atoms: N_44  and  C_20 
REMARK   15  A    between atoms: N_34  and  C_22 
REMARK   16  A    between atoms: O_46  and  C_22 
REMARK   17  A    between atoms: S_66  and  C_23 
REMARK   18  A    between atoms: C_25  and  O_48 
REMARK   19  A    between atoms: C_26  and  O_61 
REMARK   20  A    between atoms: C_30  and  C_27 
REMARK   21  A    between atoms: C_32  and  C_27 
REMARK   22  A    between atoms: C_27  and  O_49 
REMARK   23  A    between atoms: N_33  and  C_28 
REMARK   24  A    between atoms: N_36  and  C_30 
REMARK   25  A    between atoms: O_50  and  C_30 
REMARK   26  A    between atoms: C_31  and  N_45 
REMARK   27  A    between atoms: P_63  and  O_51 
REMARK   28  A    between atoms: P_63  and  O_52 
REMARK   29  A    between atoms: P_64  and  O_54 
REMARK   30  A    between atoms: P_65  and  O_56 
REMARK   31  A    between atoms: P_64  and  O_58 
REMARK   32  A    between atoms: P_65  and  O_59 
REMARK   33  A    between atoms: P_63  and  O_61 
REMARK   34  A    between atoms: P_64  and  O_62 
REMARK   35  A    between atoms: P_65  and  O_62 
ROOT
HETATM    1  O   UNK N   1      28.662  15.634   6.043  0.00  0.00    -0.631 OA
HETATM    2  P   UNK N   1      28.723  16.838   5.056  0.00  0.00     0.401 P 
ENDROOT
BRANCH   2   3
HETATM    3  O   UNK N   1      28.507  18.524   5.351  0.00  0.00    -0.307 OA
HETATM    4  H   UNK N   1      28.303  19.189   4.676  0.00  0.00     0.222 HD
ENDBRANCH   2   3
BRANCH   2   5
HETATM    5  O   UNK N   1      30.152  17.419   5.978  0.00  0.00    -0.296 OA
BRANCH   5   6
HETATM    6  C   UNK N   1      31.203  16.462   6.050  0.00  0.00     0.192 C 
BRANCH   6   7
HETATM    7  C   UNK N   1      32.682  16.903   5.899  0.00  0.00     0.008 C 
HETATM    8  C   UNK N   1      33.673  15.775   5.711  0.00  0.00     0.020 C 
HETATM    9  C   UNK N   1      32.728  17.664   4.584  0.00  0.00     0.020 C 
BRANCH   7  10
HETATM   10  C   UNK N   1      33.171  17.813   7.053  0.00  0.00     0.202 C 
BRANCH  10  11
HETATM   11  C   UNK N   1      32.689  17.330   8.402  0.00  0.00     0.141 C 
BRANCH  11  12
HETATM   12  N   UNK N   1      33.423  16.531   9.099  0.00  0.00    -0.372 N 
ATOM     13  HN  UNK N   1      34.422  16.722   9.181  1.00  0.00     0.161 HD
BRANCH  12  14
HETATM   14  C   UNK N   1      32.878  15.377   9.766  0.00  0.00     0.129 C 
BRANCH  14  15
HETATM   15  C   UNK N   1      32.387  14.376   8.728  0.00  0.00     0.103 C 
BRANCH  15  16
HETATM   16  C   UNK N   1      33.148  13.079   8.794  0.00  0.00     0.112 C 
BRANCH  16  17
HETATM   17  N   UNK N   1      33.814  12.737   9.845  0.00  0.00    -0.374 N 
ATOM     18  HN  UNK N   1      33.327  12.701  10.740  1.00  0.00     0.161 HD
BRANCH  17  19
HETATM   19  C   UNK N   1      35.216  12.405   9.805  0.00  0.00     0.132 C 
BRANCH  19  20
HETATM   20  C   UNK N   1      36.063  13.543  10.353  0.00  0.00     0.102 C 
BRANCH  20  21
HETATM   21  S   UNK N   1      36.991  13.021  11.824  0.00  0.00    -0.086 SA
BRANCH  21  22
HETATM   22  C   UNK N   1      35.583  13.290  12.902  0.00  0.00     0.208 C 
HETATM   23  O   UNK N   1      34.732  14.102  12.568  0.00  0.00    -0.281 OA
BRANCH  22  24
HETATM   24  C   UNK N   1      35.470  12.565  14.192  0.00  0.00     0.063 C 
BRANCH  24  25
HETATM   25  C   UNK N   1      35.298  13.236  15.348  0.00  0.00     0.016 C 
BRANCH  25  26
HETATM   26  C   UNK N   1      35.368  12.608  16.687  0.00  0.00    -0.036 A 
HETATM   27  C   UNK N   1      35.640  11.237  16.760  0.00  0.00     0.013 A 
HETATM   28  C   UNK N   1      35.697  10.588  17.993  0.00  0.00     0.030 A 
HETATM   29  C   UNK N   1      35.491  11.300  19.183  0.00  0.00     0.029 A 
HETATM   30  C   UNK N   1      35.227  12.681  19.112  0.00  0.00     0.030 A 
HETATM   31  C   UNK N   1      35.159  13.330  17.872  0.00  0.00     0.013 A 
BRANCH  29  32
HETATM   32  N   UNK N   1      35.549  10.628  20.443  0.00  0.00    -0.390 N 
HETATM   33  C   UNK N   1      36.811  10.372  21.089  0.00  0.00     0.149 C 
HETATM   34  C   UNK N   1      34.342  10.194  21.103  0.00  0.00     0.149 C 
ENDBRANCH  29  32
ENDBRANCH  25  26
ENDBRANCH  24  25
ENDBRANCH  22  24
ENDBRANCH  21  22
ENDBRANCH  20  21
ENDBRANCH  19  20
ENDBRANCH  17  19
ENDBRANCH  16  17
BRANCH  16  35
HETATM   35  O   UNK N   1      33.107  12.241   7.742  0.00  0.00    -0.350 OA
HETATM   36  H   UNK N   1      32.780  11.366   7.679  0.00  0.00     0.219 HD
ENDBRANCH  16  35
ENDBRANCH  15  16
ENDBRANCH  14  15
ENDBRANCH  12  14
ENDBRANCH  11  12
BRANCH  11  37
HETATM   37  O   UNK N   1      31.506  17.766   8.886  0.00  0.00    -0.348 OA
HETATM   38  H   UNK N   1      30.934  18.486   9.070  0.00  0.00     0.219 HD
ENDBRANCH  11  37
ENDBRANCH  10  11
BRANCH  10  39
HETATM   39  O   UNK N   1      34.569  17.882   7.054  0.00  0.00    -0.387 OA
HETATM   40  H   UNK N   1      35.268  17.491   7.601  0.00  0.00     0.210 HD
ENDBRANCH  10  39
ENDBRANCH   7  10
ENDBRANCH   6   7
ENDBRANCH   5   6
ENDBRANCH   2   5
BRANCH   2  41
HETATM   41  O   UNK N   1      27.371  17.096   6.139  0.00  0.00    -0.195 OA
BRANCH  41  42
HETATM   42  P   UNK N   1      25.870  17.069   5.255  0.00  0.00     0.401 P 
HETATM   43  O   UNK N   1      25.548  18.283   4.343  0.00  0.00    -0.631 OA
BRANCH  42  44
HETATM   44  O   UNK N   1      26.827  16.426   3.965  0.00  0.00    -0.307 OA
HETATM   45  H   UNK N   1      27.561  16.153   3.392  0.00  0.00     0.222 HD
ENDBRANCH  42  44
BRANCH  42  46
HETATM   46  O   UNK N   1      24.924  15.628   5.062  0.00  0.00    -0.294 OA
BRANCH  46  47
HETATM   47  C   UNK N   1      24.078  15.620   6.166  0.00  0.00     0.215 C 
BRANCH  47  48
HETATM   48  C   UNK N   1      22.739  16.252   5.846  0.00  0.00     0.180 C 
HETATM   49  C   UNK N   1      21.526  15.619   6.519  0.00  0.00     0.197 C 
HETATM   50  C   UNK N   1      20.487  16.377   5.741  0.00  0.00     0.199 C 
HETATM   51  C   UNK N   1      21.062  16.203   4.332  0.00  0.00     0.262 C 
HETATM   52  O   UNK N   1      22.476  16.217   4.461  0.00  0.00    -0.353 OA
BRANCH  49  53
HETATM   53  O   UNK N   1      21.446  15.904   7.901  0.00  0.00    -0.286 OA
BRANCH  53  54
HETATM   54  P   UNK N   1      20.732  14.563   8.783  0.00  0.00     0.391 P 
HETATM   55  O   UNK N   1      20.434  13.449   7.745  0.00  0.00    -0.632 OA
BRANCH  54  56
HETATM   56  O   UNK N   1      19.226  14.928   9.568  0.00  0.00    -0.307 OA
HETATM   57  H   UNK N   1      18.548  15.543   9.888  0.00  0.00     0.222 HD
ENDBRANCH  54  56
BRANCH  54  58
HETATM   58  O   UNK N   1      21.857  13.873   9.910  0.00  0.00    -0.307 OA
HETATM   59  H   UNK N   1      22.807  14.045   9.815  0.00  0.00     0.222 HD
ENDBRANCH  54  58
ENDBRANCH  53  54
ENDBRANCH  49  53
BRANCH  50  60
HETATM   60  O   UNK N   1      19.205  15.840   5.886  0.00  0.00    -0.388 OA
HETATM   61  H   UNK N   1      18.518  15.745   5.208  0.00  0.00     0.210 HD
ENDBRANCH  50  60
BRANCH  51  62
HETATM   62  N   UNK N   1      20.653  17.263   3.408  0.00  0.00    -0.297 N 
HETATM   63  C   UNK N   1      19.512  17.261   2.668  0.00  0.00     0.188 A 
HETATM   64  N   UNK N   1      19.407  18.385   1.910  0.00  0.00    -0.346 N 
HETATM   65  C   UNK N   1      20.521  19.079   2.192  0.00  0.00     0.122 A 
ATOM     66  HN  UNK N   1      18.654  18.641   1.272  1.00  0.00     0.167 HD
HETATM   67  C   UNK N   1      20.956  20.291   1.692  0.00  0.00     0.131 A 
HETATM   68  C   UNK N   1      21.268  18.411   3.095  0.00  0.00     0.142 A 
HETATM   69  N   UNK N   1      22.156  20.773   2.134  0.00  0.00    -0.337 N 
HETATM   70  C   UNK N   1      22.903  20.074   3.052  0.00  0.00     0.183 A 
ATOM     71  HN  UNK N   1      22.501  21.664   1.777  1.00  0.00     0.168 HD
HETATM   72  N   UNK N   1      22.455  18.876   3.545  0.00  0.00    -0.336 N 
ATOM     73  HN  UNK N   1      23.001  18.352   4.230  1.00  0.00     0.168 HD
BRANCH  67  74
HETATM   74  N   UNK N   1      20.193  21.008   0.748  0.00  0.00    -0.383 N 
HETATM   75  H   UNK N   1      19.333  20.682   0.397  0.00  0.00     0.157 HD
HETATM   76  H   UNK N   1      20.535  21.873   0.426  0.00  0.00     0.157 HD
ENDBRANCH  67  74
ENDBRANCH  51  62
ENDBRANCH  47  48
ENDBRANCH  46  47
ENDBRANCH  42  46
ENDBRANCH  41  42
ENDBRANCH   2  41
TORSDOF 35
ENDMDL
MODEL 3
REMARK VINA RESULT:      -5.8      4.058      6.944
REMARK WARNING: 32 MAX_TORS EXCEEDED!!!
REMARK  35 active torsions:
REMARK  status: ('A' for Active; 'I' for Inactive)
REMARK    1  A    between atoms: C_10  and  C_7 
REMARK    2  A    between atoms: C_19  and  C_7 
REMARK    3  A    between atoms: C_23  and  C_10 
REMARK    4  A    between atoms: C_12  and  C_11 
REMARK    5  A    between atoms: C_22  and  C_11 
REMARK    6  A    between atoms: N_36  and  C_12 
REMARK    7  A    between atoms: C_14  and  C_13 
REMARK    8  A    between atoms: N_34  and  C_13 
REMARK    9  A    between atoms: S_66  and  C_14 
REMARK   10  A    between atoms: C_21  and  C_15 
REMARK   11  A    between atoms: O_58  and  C_15 
REMARK   12  A    between atoms: C_32  and  C_16 
REMARK   13  A    between atoms: O_59  and  C_16 
REMARK   14  A    between atoms: N_44  and  C_20 
REMARK   15  A    between atoms: N_34  and  C_22 
REMARK   16  A    between atoms: O_46  and  C_22 
REMARK   17  A    between atoms: S_66  and  C_23 
REMARK   18  A    between atoms: C_25  and  O_48 
REMARK   19  A    between atoms: C_26  and  O_61 
REMARK   20  A    between atoms: C_30  and  C_27 
REMARK   21  A    between atoms: C_32  and  C_27 
REMARK   22  A    between atoms: C_27  and  O_49 
REMARK   23  A    between atoms: N_33  and  C_28 
REMARK   24  A    between atoms: N_36  and  C_30 
REMARK   25  A    between atoms: O_50  and  C_30 
REMARK   26  A    between atoms: C_31  and  N_45 
REMARK   27  A    between atoms: P_63  and  O_51 
REMARK   28  A    between atoms: P_63  and  O_52 
REMARK   29  A    between atoms: P_64  and  O_54 
REMARK   30  A    between atoms: P_65  and  O_56 
REMARK   31  A    between atoms: P_64  and  O_58 
REMARK   32  A    between atoms: P_65  and  O_59 
REMARK   33  A    between atoms: P_63  and  O_61 
REMARK   34  A    between atoms: P_64  and  O_62 
REMARK   35  A    between atoms: P_65  and  O_62 
ROOT
HETATM    1  O   UNK N   1      18.594  13.381   2.782  0.00  0.00    -0.631 OA
HETATM    2  P   UNK N   1      19.875  13.788   1.996  0.00  0.00     0.401 P 
ENDROOT
BRANCH   2   3
HETATM    3  O   UNK N   1      21.213  14.761   2.484  0.00  0.00    -0.307 OA
HETATM    4  H   UNK N   1      21.568  14.814   3.385  0.00  0.00     0.222 HD
ENDBRANCH   2   3
BRANCH   2   5
HETATM    5  O   UNK N   1      20.818  12.851   3.205  0.00  0.00    -0.296 OA
BRANCH   5   6
HETATM    6  C   UNK N   1      22.224  12.914   2.995  0.00  0.00     0.192 C 
BRANCH   6   7
HETATM    7  C   UNK N   1      23.207  12.492   4.117  0.00  0.00     0.008 C 
HETATM    8  C   UNK N   1      22.736  12.780   5.526  0.00  0.00     0.020 C 
HETATM    9  C   UNK N   1      23.255  10.975   4.042  0.00  0.00     0.020 C 
BRANCH   7  10
HETATM   10  C   UNK N   1      24.631  13.075   3.937  0.00  0.00     0.202 C 
BRANCH  10  11
HETATM   11  C   UNK N   1      24.614  14.413   3.233  0.00  0.00     0.141 C 
BRANCH  11  12
HETATM   12  N   UNK N   1      25.242  14.560   2.116  0.00  0.00    -0.372 N 
ATOM     13  HN  UNK N   1      25.091  13.879   1.372  1.00  0.00     0.161 HD
BRANCH  12  14
HETATM   14  C   UNK N   1      26.146  15.656   1.886  0.00  0.00     0.129 C 
BRANCH  14  15
HETATM   15  C   UNK N   1      27.238  15.645   2.950  0.00  0.00     0.103 C 
BRANCH  15  16
HETATM   16  C   UNK N   1      28.543  15.123   2.409  0.00  0.00     0.112 C 
BRANCH  16  17
HETATM   17  N   UNK N   1      29.675  15.622   2.773  0.00  0.00    -0.374 N 
ATOM     18  HN  UNK N   1      30.532  15.191   2.426  1.00  0.00     0.161 HD
BRANCH  17  19
HETATM   19  C   UNK N   1      29.778  16.761   3.651  0.00  0.00     0.132 C 
BRANCH  19  20
HETATM   20  C   UNK N   1      30.898  16.573   4.661  0.00  0.00     0.102 C 
BRANCH  20  21
HETATM   21  S   UNK N   1      32.415  17.412   4.124  0.00  0.00    -0.086 SA
BRANCH  21  22
HETATM   22  C   UNK N   1      33.087  17.429   5.786  0.00  0.00     0.208 C 
HETATM   23  O   UNK N   1      34.195  17.913   5.969  0.00  0.00    -0.281 OA
BRANCH  22  24
HETATM   24  C   UNK N   1      32.326  16.838   6.915  0.00  0.00     0.063 C 
BRANCH  24  25
HETATM   25  C   UNK N   1      32.621  17.159   8.190  0.00  0.00     0.016 C 
BRANCH  25  26
HETATM   26  C   UNK N   1      33.511  16.358   9.059  0.00  0.00    -0.036 A 
HETATM   27  C   UNK N   1      33.050  15.115   9.511  0.00  0.00     0.013 A 
HETATM   28  C   UNK N   1      33.836  14.327  10.351  0.00  0.00     0.030 A 
HETATM   29  C   UNK N   1      35.109  14.761  10.750  0.00  0.00     0.029 A 
HETATM   30  C   UNK N   1      35.579  16.005  10.288  0.00  0.00     0.030 A 
HETATM   31  C   UNK N   1      34.783  16.802   9.454  0.00  0.00     0.013 A 
BRANCH  29  32
HETATM   32  N   UNK N   1      35.909  13.949  11.611  0.00  0.00    -0.390 N 
HETATM   33  C   UNK N   1      37.242  13.555  11.231  0.00  0.00     0.149 C 
HETATM   34  C   UNK N   1      35.402  13.507  12.887  0.00  0.00     0.149 C 
ENDBRANCH  29  32
ENDBRANCH  25  26
ENDBRANCH  24  25
ENDBRANCH  22  24
ENDBRANCH  21  22
ENDBRANCH  20  21
ENDBRANCH  19  20
ENDBRANCH  17  19
ENDBRANCH  16  17
BRANCH  16  35
HETATM   35  O   UNK N   1      28.527  14.089   1.548  0.00  0.00    -0.350 OA
HETATM   36  H   UNK N   1      27.810  13.573   1.236  0.00  0.00     0.219 HD
ENDBRANCH  16  35
ENDBRANCH  15  16
ENDBRANCH  14  15
ENDBRANCH  12  14
ENDBRANCH  11  12
BRANCH  11  37
HETATM   37  O   UNK N   1      23.912  15.438   3.763  0.00  0.00    -0.348 OA
HETATM   38  H   UNK N   1      23.758  16.011   4.488  0.00  0.00     0.219 HD
ENDBRANCH  11  37
ENDBRANCH  10  11
BRANCH  10  39
HETATM   39  O   UNK N   1      25.258  13.209   5.180  0.00  0.00    -0.387 OA
HETATM   40  H   UNK N   1      25.254  13.887   5.874  0.00  0.00     0.210 HD
ENDBRANCH  10  39
ENDBRANCH   7  10
ENDBRANCH   6   7
ENDBRANCH   5   6
ENDBRANCH   2   5
BRANCH   2  41
HETATM   41  O   UNK N   1      19.313  15.195   2.875  0.00  0.00    -0.195 OA
BRANCH  41  42
HETATM   42  P   UNK N   1      20.468  16.493   2.748  0.00  0.00     0.401 P 
HETATM   43  O   UNK N   1      20.398  17.400   1.490  0.00  0.00    -0.631 OA
BRANCH  42  44
HETATM   44  O   UNK N   1      19.214  17.460   3.445  0.00  0.00    -0.307 OA
HETATM   45  H   UNK N   1      18.582  17.874   4.054  0.00  0.00     0.222 HD
ENDBRANCH  42  44
BRANCH  42  46
HETATM   46  O   UNK N   1      21.418  17.034   4.094  0.00  0.00    -0.294 OA
BRANCH  46  47
HETATM   47  C   UNK N   1      21.206  18.409   4.136  0.00  0.00     0.215 C 
BRANCH  47  48
HETATM   48  C   UNK N   1      22.512  19.175   4.107  0.00  0.00     0.180 C 
HETATM   49  C   UNK N   1      22.759  20.024   2.864  0.00  0.00     0.197 C 
HETATM   50  C   UNK N   1      24.193  20.357   3.170  0.00  0.00     0.199 C 
HETATM   51  C   UNK N   1      24.692  18.960   3.552  0.00  0.00     0.262 C 
HETATM   52  O   UNK N   1      23.617  18.304   4.208  0.00  0.00    -0.353 OA
BRANCH  49  53
HETATM   53  O   UNK N   1      21.958  21.186   2.818  0.00  0.00    -0.286 OA
BRANCH  53  54
HETATM   54  P   UNK N   1      20.830  21.124   1.473  0.00  0.00     0.391 P 
HETATM   55  O   UNK N   1      21.603  20.534   0.264  0.00  0.00    -0.632 OA
BRANCH  54  56
HETATM   56  O   UNK N   1      20.215  22.667   0.966  0.00  0.00    -0.307 OA
HETATM   57  H   UNK N   1      19.526  23.241   0.595  0.00  0.00     0.222 HD
ENDBRANCH  54  56
BRANCH  54  58
HETATM   58  O   UNK N   1      19.527  20.021   1.787  0.00  0.00    -0.307 OA
HETATM   59  H   UNK N   1      19.146  19.500   1.063  0.00  0.00     0.222 HD
ENDBRANCH  54  58
ENDBRANCH  53  54
ENDBRANCH  49  53
BRANCH  50  60
HETATM   60  O   UNK N   1      24.866  20.906   2.075  0.00  0.00    -0.388 OA
HETATM   61  H   UNK N   1      25.725  21.355   2.067  0.00  0.00     0.210 HD
ENDBRANCH  50  60
BRANCH  51  62
HETATM   62  N   UNK N   1      25.854  18.986   4.441  0.00  0.00    -0.297 N 
HETATM   63  C   UNK N   1      26.793  19.969   4.477  0.00  0.00     0.188 A 
HETATM   64  N   UNK N   1      27.747  19.716   5.412  0.00  0.00    -0.346 N 
HETATM   65  C   UNK N   1      27.379  18.541   5.949  0.00  0.00     0.122 A 
ATOM     66  HN  UNK N   1      28.558  20.287   5.651  1.00  0.00     0.167 HD
HETATM   67  C   UNK N   1      27.993  17.790   6.933  0.00  0.00     0.131 A 
HETATM   68  C   UNK N   1      26.240  18.104   5.373  0.00  0.00     0.142 A 
HETATM   69  N   UNK N   1      27.415  16.603   7.285  0.00  0.00    -0.337 N 
HETATM   70  C   UNK N   1      26.257  16.173   6.682  0.00  0.00     0.183 A 
ATOM     71  HN  UNK N   1      27.851  16.026   8.005  1.00  0.00     0.168 HD
HETATM   72  N   UNK N   1      25.655  16.934   5.713  0.00  0.00    -0.336 N 
ATOM     73  HN  UNK N   1      24.793  16.626   5.263  1.00  0.00     0.168 HD
BRANCH  67  74
HETATM   74  N   UNK N   1      29.182  18.226   7.550  0.00  0.00    -0.383 N 
HETATM   75  H   UNK N   1      29.811  18.848   7.119  0.00  0.00     0.157 HD
HETATM   76  H   UNK N   1      29.393  17.893   8.452  0.00  0.00     0.157 HD
ENDBRANCH  67  74
ENDBRANCH  51  62
ENDBRANCH  47  48
ENDBRANCH  46  47
ENDBRANCH  42  46
ENDBRANCH  41  42
ENDBRANCH   2  41
TORSDOF 35
ENDMDL
MODEL 4
REMARK VINA RESULT:      -5.8      4.672      8.158
REMARK WARNING: 32 MAX_TORS EXCEEDED!!!
REMARK  35 active torsions:
REMARK  status: ('A' for Active; 'I' for Inactive)
REMARK    1  A    between atoms: C_10  and  C_7 
REMARK    2  A    between atoms: C_19  and  C_7 
REMARK    3  A    between atoms: C_23  and  C_10 
REMARK    4  A    between atoms: C_12  and  C_11 
REMARK    5  A    between atoms: C_22  and  C_11 
REMARK    6  A    between atoms: N_36  and  C_12 
REMARK    7  A    between atoms: C_14  and  C_13 
REMARK    8  A    between atoms: N_34  and  C_13 
REMARK    9  A    between atoms: S_66  and  C_14 
REMARK   10  A    between atoms: C_21  and  C_15 
REMARK   11  A    between atoms: O_58  and  C_15 
REMARK   12  A    between atoms: C_32  and  C_16 
REMARK   13  A    between atoms: O_59  and  C_16 
REMARK   14  A    between atoms: N_44  and  C_20 
REMARK   15  A    between atoms: N_34  and  C_22 
REMARK   16  A    between atoms: O_46  and  C_22 
REMARK   17  A    between atoms: S_66  and  C_23 
REMARK   18  A    between atoms: C_25  and  O_48 
REMARK   19  A    between atoms: C_26  and  O_61 
REMARK   20  A    between atoms: C_30  and  C_27 
REMARK   21  A    between atoms: C_32  and  C_27 
REMARK   22  A    between atoms: C_27  and  O_49 
REMARK   23  A    between atoms: N_33  and  C_28 
REMARK   24  A    between atoms: N_36  and  C_30 
REMARK   25  A    between atoms: O_50  and  C_30 
REMARK   26  A    between atoms: C_31  and  N_45 
REMARK   27  A    between atoms: P_63  and  O_51 
REMARK   28  A    between atoms: P_63  and  O_52 
REMARK   29  A    between atoms: P_64  and  O_54 
REMARK   30  A    between atoms: P_65  and  O_56 
REMARK   31  A    between atoms: P_64  and  O_58 
REMARK   32  A    between atoms: P_65  and  O_59 
REMARK   33  A    between atoms: P_63  and  O_61 
REMARK   34  A    between atoms: P_64  and  O_62 
REMARK   35  A    between atoms: P_65  and  O_62 
ROOT
HETATM    1  O   UNK N   1      26.942  16.213   3.545  0.00  0.00    -0.631 OA
HETATM    2  P   UNK N   1      26.732  15.390   2.239  0.00  0.00     0.401 P 
ENDROOT
BRANCH   2   3
HETATM    3  O   UNK N   1      26.090  13.805   2.020  0.00  0.00    -0.307 OA
HETATM    4  H   UNK N   1      26.500  13.102   1.492  0.00  0.00     0.222 HD
ENDBRANCH   2   3
BRANCH   2   5
HETATM    5  O   UNK N   1      24.968  15.466   2.569  0.00  0.00    -0.296 OA
BRANCH   5   6
HETATM    6  C   UNK N   1      24.620  15.033   3.879  0.00  0.00     0.192 C 
BRANCH   6   7
HETATM    7  C   UNK N   1      23.794  15.950   4.819  0.00  0.00     0.008 C 
HETATM    8  C   UNK N   1      22.292  15.821   4.685  0.00  0.00     0.020 C 
HETATM    9  C   UNK N   1      24.090  15.439   6.219  0.00  0.00     0.020 C 
BRANCH   7  10
HETATM   10  C   UNK N   1      24.180  17.446   4.710  0.00  0.00     0.202 C 
BRANCH  10  11
HETATM   11  C   UNK N   1      23.004  18.358   4.975  0.00  0.00     0.141 C 
BRANCH  11  12
HETATM   12  N   UNK N   1      22.485  19.035   4.008  0.00  0.00    -0.372 N 
ATOM     13  HN  UNK N   1      23.100  19.563   3.388  1.00  0.00     0.161 HD
BRANCH  12  14
HETATM   14  C   UNK N   1      21.064  19.069   3.775  0.00  0.00     0.129 C 
BRANCH  14  15
HETATM   15  C   UNK N   1      20.794  19.002   2.277  0.00  0.00     0.103 C 
BRANCH  15  16
HETATM   16  C   UNK N   1      19.525  18.253   1.969  0.00  0.00     0.112 C 
BRANCH  16  17
HETATM   17  N   UNK N   1      19.522  17.207   1.214  0.00  0.00    -0.374 N 
ATOM     18  HN  UNK N   1      19.025  17.249   0.324  1.00  0.00     0.161 HD
BRANCH  17  19
HETATM   19  C   UNK N   1      20.190  15.982   1.577  0.00  0.00     0.132 C 
BRANCH  19  20
HETATM   20  C   UNK N   1      19.518  15.327   2.773  0.00  0.00     0.102 C 
BRANCH  20  21
HETATM   21  S   UNK N   1      19.494  13.520   2.603  0.00  0.00    -0.086 SA
BRANCH  21  22
HETATM   22  C   UNK N   1      19.044  13.287   4.323  0.00  0.00     0.208 C 
HETATM   23  O   UNK N   1      17.884  13.476   4.659  0.00  0.00    -0.281 OA
BRANCH  22  24
HETATM   24  C   UNK N   1      20.068  12.902   5.327  0.00  0.00     0.063 C 
BRANCH  24  25
HETATM   25  C   UNK N   1      20.323  13.690   6.389  0.00  0.00     0.016 C 
BRANCH  25  26
HETATM   26  C   UNK N   1      21.136  13.272   7.553  0.00  0.00    -0.036 A 
HETATM   27  C   UNK N   1      20.934  13.931   8.772  0.00  0.00     0.013 A 
HETATM   28  C   UNK N   1      21.687  13.594   9.896  0.00  0.00     0.030 A 
HETATM   29  C   UNK N   1      22.654  12.582   9.829  0.00  0.00     0.029 A 
HETATM   30  C   UNK N   1      22.853  11.911   8.607  0.00  0.00     0.030 A 
HETATM   31  C   UNK N   1      22.104  12.258   7.475  0.00  0.00     0.013 A 
BRANCH  29  32
HETATM   32  N   UNK N   1      23.423  12.243  10.985  0.00  0.00    -0.390 N 
HETATM   33  C   UNK N   1      24.860  12.168  10.922  0.00  0.00     0.149 C 
HETATM   34  C   UNK N   1      22.778  11.972  12.246  0.00  0.00     0.149 C 
ENDBRANCH  29  32
ENDBRANCH  25  26
ENDBRANCH  24  25
ENDBRANCH  22  24
ENDBRANCH  21  22
ENDBRANCH  20  21
ENDBRANCH  19  20
ENDBRANCH  17  19
ENDBRANCH  16  17
BRANCH  16  35
HETATM   35  O   UNK N   1      18.370  18.668   2.521  0.00  0.00    -0.350 OA
HETATM   36  H   UNK N   1      17.892  19.463   2.397  0.00  0.00     0.219 HD
ENDBRANCH  16  35
ENDBRANCH  15  16
ENDBRANCH  14  15
ENDBRANCH  12  14
ENDBRANCH  11  12
BRANCH  11  37
HETATM   37  O   UNK N   1      22.482  18.432   6.219  0.00  0.00    -0.348 OA
HETATM   38  H   UNK N   1      22.472  18.118   7.102  0.00  0.00     0.219 HD
ENDBRANCH  11  37
ENDBRANCH  10  11
BRANCH  10  39
HETATM   39  O   UNK N   1      25.213  17.744   5.605  0.00  0.00    -0.387 OA
HETATM   40  H   UNK N   1      25.712  17.233   6.262  0.00  0.00     0.210 HD
ENDBRANCH  10  39
ENDBRANCH   7  10
ENDBRANCH   6   7
ENDBRANCH   5   6
ENDBRANCH   2   5
BRANCH   2  41
HETATM   41  O   UNK N   1      27.359  14.307   3.464  0.00  0.00    -0.195 OA
BRANCH  41  42
HETATM   42  P   UNK N   1      28.915  13.685   2.988  0.00  0.00     0.401 P 
HETATM   43  O   UNK N   1      28.971  12.754   1.748  0.00  0.00    -0.631 OA
BRANCH  42  44
HETATM   44  O   UNK N   1      28.943  15.034   1.905  0.00  0.00    -0.307 OA
HETATM   45  H   UNK N   1      28.830  15.906   1.495  0.00  0.00     0.222 HD
ENDBRANCH  42  44
BRANCH  42  46
HETATM   46  O   UNK N   1      30.407  14.337   3.588  0.00  0.00    -0.294 OA
BRANCH  46  47
HETATM   47  C   UNK N   1      30.261  14.316   4.971  0.00  0.00     0.215 C 
BRANCH  47  48
HETATM   48  C   UNK N   1      30.374  15.705   5.564  0.00  0.00     0.180 C 
HETATM   49  C   UNK N   1      31.639  15.984   6.370  0.00  0.00     0.197 C 
HETATM   50  C   UNK N   1      31.195  17.309   6.926  0.00  0.00     0.199 C 
HETATM   51  C   UNK N   1      29.781  16.926   7.371  0.00  0.00     0.262 C 
HETATM   52  O   UNK N   1      29.294  15.981   6.429  0.00  0.00    -0.353 OA
BRANCH  49  53
HETATM   53  O   UNK N   1      32.791  16.122   5.564  0.00  0.00    -0.286 OA
BRANCH  53  54
HETATM   54  P   UNK N   1      34.238  16.264   6.550  0.00  0.00     0.391 P 
HETATM   55  O   UNK N   1      33.966  15.485   7.865  0.00  0.00    -0.632 OA
BRANCH  54  56
HETATM   56  O   UNK N   1      34.649  17.888   7.010  0.00  0.00    -0.307 OA
HETATM   57  H   UNK N   1      35.146  18.535   7.535  0.00  0.00     0.222 HD
ENDBRANCH  54  56
BRANCH  54  58
HETATM   58  O   UNK N   1      35.594  15.477   5.805  0.00  0.00    -0.307 OA
HETATM   59  H   UNK N   1      36.496  15.685   6.096  0.00  0.00     0.222 HD
ENDBRANCH  54  58
ENDBRANCH  53  54
ENDBRANCH  49  53
BRANCH  50  60
HETATM   60  O   UNK N   1      32.005  17.753   7.975  0.00  0.00    -0.388 OA
HETATM   61  H   UNK N   1      31.811  17.739   8.925  0.00  0.00     0.210 HD
ENDBRANCH  50  60
BRANCH  51  62
HETATM   62  N   UNK N   1      28.865  18.066   7.425  0.00  0.00    -0.297 N 
HETATM   63  C   UNK N   1      28.374  18.626   8.563  0.00  0.00     0.188 A 
HETATM   64  N   UNK N   1      27.552  19.674   8.291  0.00  0.00    -0.346 N 
HETATM   65  C   UNK N   1      27.539  19.743   6.950  0.00  0.00     0.122 A 
ATOM     66  HN  UNK N   1      27.059  20.271   8.954  1.00  0.00     0.167 HD
HETATM   67  C   UNK N   1      26.852  20.606   6.118  0.00  0.00     0.131 A 
HETATM   68  C   UNK N   1      28.330  18.783   6.428  0.00  0.00     0.142 A 
HETATM   69  N   UNK N   1      26.996  20.445   4.769  0.00  0.00    -0.337 N 
HETATM   70  C   UNK N   1      27.804  19.457   4.257  0.00  0.00     0.183 A 
ATOM     71  HN  UNK N   1      26.495  21.066   4.133  1.00  0.00     0.168 HD
HETATM   72  N   UNK N   1      28.486  18.614   5.096  0.00  0.00    -0.336 N 
ATOM     73  HN  UNK N   1      29.092  17.881   4.725  1.00  0.00     0.168 HD
BRANCH  67  74
HETATM   74  N   UNK N   1      26.020  21.617   6.640  0.00  0.00    -0.383 N 
HETATM   75  H   UNK N   1      25.135  21.829   6.263  0.00  0.00     0.157 HD
HETATM   76  H   UNK N   1      26.336  22.133   7.416  0.00  0.00     0.157 HD
ENDBRANCH  67  74
ENDBRANCH  51  62
ENDBRANCH  47  48
ENDBRANCH  46  47
ENDBRANCH  42  46
ENDBRANCH  41  42
ENDBRANCH   2  41
TORSDOF 35
ENDMDL
MODEL 5
REMARK VINA RESULT:      -5.8      9.569     13.122
REMARK WARNING: 32 MAX_TORS EXCEEDED!!!
REMARK  35 active torsions:
REMARK  status: ('A' for Active; 'I' for Inactive)
REMARK    1  A    between atoms: C_10  and  C_7 
REMARK    2  A    between atoms: C_19  and  C_7 
REMARK    3  A    between atoms: C_23  and  C_10 
REMARK    4  A    between atoms: C_12  and  C_11 
REMARK    5  A    between atoms: C_22  and  C_11 
REMARK    6  A    between atoms: N_36  and  C_12 
REMARK    7  A    between atoms: C_14  and  C_13 
REMARK    8  A    between atoms: N_34  and  C_13 
REMARK    9  A    between atoms: S_66  and  C_14 
REMARK   10  A    between atoms: C_21  and  C_15 
REMARK   11  A    between atoms: O_58  and  C_15 
REMARK   12  A    between atoms: C_32  and  C_16 
REMARK   13  A    between atoms: O_59  and  C_16 
REMARK   14  A    between atoms: N_44  and  C_20 
REMARK   15  A    between atoms: N_34  and  C_22 
REMARK   16  A    between atoms: O_46  and  C_22 
REMARK   17  A    between atoms: S_66  and  C_23 
REMARK   18  A    between atoms: C_25  and  O_48 
REMARK   19  A    between atoms: C_26  and  O_61 
REMARK   20  A    between atoms: C_30  and  C_27 
REMARK   21  A    between atoms: C_32  and  C_27 
REMARK   22  A    between atoms: C_27  and  O_49 
REMARK   23  A    between atoms: N_33  and  C_28 
REMARK   24  A    between atoms: N_36  and  C_30 
REMARK   25  A    between atoms: O_50  and  C_30 
REMARK   26  A    between atoms: C_31  and  N_45 
REMARK   27  A    between atoms: P_63  and  O_51 
REMARK   28  A    between atoms: P_63  and  O_52 
REMARK   29  A    between atoms: P_64  and  O_54 
REMARK   30  A    between atoms: P_65  and  O_56 
REMARK   31  A    between atoms: P_64  and  O_58 
REMARK   32  A    between atoms: P_65  and  O_59 
REMARK   33  A    between atoms: P_63  and  O_61 
REMARK   34  A    between atoms: P_64  and  O_62 
REMARK   35  A    between atoms: P_65  and  O_62 
ROOT
HETATM    1  O   UNK N   1      33.193  13.900   8.814  0.00  0.00    -0.631 OA
HETATM    2  P   UNK N   1      33.553  13.021   7.579  0.00  0.00     0.401 P 
ENDROOT
BRANCH   2   3
HETATM    3  O   UNK N   1      32.666  11.747   6.829  0.00  0.00    -0.307 OA
HETATM    4  H   UNK N   1      32.597  10.839   7.163  0.00  0.00     0.222 HD
ENDBRANCH   2   3
BRANCH   2   5
HETATM    5  O   UNK N   1      32.142  13.757   6.744  0.00  0.00    -0.296 OA
BRANCH   5   6
HETATM    6  C   UNK N   1      31.967  15.137   7.044  0.00  0.00     0.192 C 
BRANCH   6   7
HETATM    7  C   UNK N   1      32.458  16.226   6.057  0.00  0.00     0.008 C 
HETATM    8  C   UNK N   1      33.494  15.764   5.054  0.00  0.00     0.020 C 
HETATM    9  C   UNK N   1      31.242  16.561   5.210  0.00  0.00     0.020 C 
BRANCH   7  10
HETATM   10  C   UNK N   1      32.979  17.503   6.762  0.00  0.00     0.202 C 
BRANCH  10  11
HETATM   11  C   UNK N   1      33.165  17.298   8.248  0.00  0.00     0.141 C 
BRANCH  11  12
HETATM   12  N   UNK N   1      32.208  17.590   9.062  0.00  0.00    -0.372 N 
ATOM     13  HN  UNK N   1      32.301  17.336  10.046  1.00  0.00     0.161 HD
BRANCH  12  14
HETATM   14  C   UNK N   1      31.013  18.265   8.626  0.00  0.00     0.129 C 
BRANCH  14  15
HETATM   15  C   UNK N   1      29.790  17.503   9.122  0.00  0.00     0.103 C 
BRANCH  15  16
HETATM   16  C   UNK N   1      28.509  18.094   8.596  0.00  0.00     0.112 C 
BRANCH  16  17
HETATM   17  N   UNK N   1      28.412  18.535   7.388  0.00  0.00    -0.374 N 
ATOM     18  HN  UNK N   1      28.785  17.965   6.630  1.00  0.00     0.161 HD
BRANCH  17  19
HETATM   19  C   UNK N   1      27.799  19.800   7.067  0.00  0.00     0.132 C 
BRANCH  19  20
HETATM   20  C   UNK N   1      27.058  19.728   5.742  0.00  0.00     0.102 C 
BRANCH  20  21
HETATM   21  S   UNK N   1      27.892  18.606   4.584  0.00  0.00    -0.086 SA
BRANCH  21  22
HETATM   22  C   UNK N   1      26.411  17.623   4.350  0.00  0.00     0.208 C 
HETATM   23  O   UNK N   1      26.529  16.435   4.084  0.00  0.00    -0.281 OA
BRANCH  22  24
HETATM   24  C   UNK N   1      25.068  18.246   4.444  0.00  0.00     0.063 C 
BRANCH  24  25
HETATM   25  C   UNK N   1      23.953  17.516   4.246  0.00  0.00     0.016 C 
BRANCH  25  26
HETATM   26  C   UNK N   1      22.992  17.164   5.316  0.00  0.00    -0.036 A 
HETATM   27  C   UNK N   1      23.076  15.888   5.885  0.00  0.00     0.013 A 
HETATM   28  C   UNK N   1      22.184  15.494   6.881  0.00  0.00     0.030 A 
HETATM   29  C   UNK N   1      21.192  16.373   7.338  0.00  0.00     0.029 A 
HETATM   30  C   UNK N   1      21.112  17.660   6.774  0.00  0.00     0.030 A 
HETATM   31  C   UNK N   1      22.002  18.052   5.765  0.00  0.00     0.013 A 
BRANCH  29  32
HETATM   32  N   UNK N   1      20.279  15.962   8.358  0.00  0.00    -0.390 N 
HETATM   33  C   UNK N   1      20.613  14.892   9.263  0.00  0.00     0.149 C 
HETATM   34  C   UNK N   1      19.001  16.612   8.510  0.00  0.00     0.149 C 
ENDBRANCH  29  32
ENDBRANCH  25  26
ENDBRANCH  24  25
ENDBRANCH  22  24
ENDBRANCH  21  22
ENDBRANCH  20  21
ENDBRANCH  19  20
ENDBRANCH  17  19
ENDBRANCH  16  17
BRANCH  16  35
HETATM   35  O   UNK N   1      27.430  18.133   9.398  0.00  0.00    -0.350 OA
HETATM   36  H   UNK N   1      26.518  18.138   9.184  0.00  0.00     0.219 HD
ENDBRANCH  16  35
ENDBRANCH  15  16
ENDBRANCH  14  15
ENDBRANCH  12  14
ENDBRANCH  11  12
BRANCH  11  37
HETATM   37  O   UNK N   1      34.321  16.776   8.713  0.00  0.00    -0.348 OA
HETATM   38  H   UNK N   1      34.852  16.019   8.868  0.00  0.00     0.219 HD
ENDBRANCH  11  37
ENDBRANCH  10  11
BRANCH  10  39
HETATM   39  O   UNK N   1      34.191  17.909   6.192  0.00  0.00    -0.387 OA
HETATM   40  H   UNK N   1      34.435  18.406   5.395  0.00  0.00     0.210 HD
ENDBRANCH  10  39
ENDBRANCH   7  10
ENDBRANCH   6   7
ENDBRANCH   5   6
ENDBRANCH   2   5
BRANCH   2  41
HETATM   41  O   UNK N   1      32.846  11.978   8.794  0.00  0.00    -0.195 OA
BRANCH  41  42
HETATM   42  P   UNK N   1      33.987  10.758   9.288  0.00  0.00     0.401 P 
HETATM   43  O   UNK N   1      34.227   9.563   8.326  0.00  0.00    -0.631 OA
BRANCH  42  44
HETATM   44  O   UNK N   1      35.121  11.667   8.349  0.00  0.00    -0.307 OA
HETATM   45  H   UNK N   1      35.538  12.300   7.743  0.00  0.00     0.222 HD
ENDBRANCH  42  44
BRANCH  42  46
HETATM   46  O   UNK N   1      35.110  10.998  10.588  0.00  0.00    -0.294 OA
BRANCH  46  47
HETATM   47  C   UNK N   1      34.353  10.805  11.739  0.00  0.00     0.215 C 
BRANCH  47  48
HETATM   48  C   UNK N   1      34.704  11.814  12.812  0.00  0.00     0.180 C 
HETATM   49  C   UNK N   1      35.710  12.888  12.412  0.00  0.00     0.197 C 
HETATM   50  C   UNK N   1      35.914  13.450  13.792  0.00  0.00     0.199 C 
HETATM   51  C   UNK N   1      36.094  12.140  14.564  0.00  0.00     0.262 C 
HETATM   52  O   UNK N   1      35.247  11.180  13.950  0.00  0.00    -0.353 OA
BRANCH  49  53
HETATM   53  O   UNK N   1      35.169  13.856  11.536  0.00  0.00    -0.286 OA
BRANCH  53  54
HETATM   54  P   UNK N   1      36.421  14.571  10.532  0.00  0.00     0.391 P 
HETATM   55  O   UNK N   1      37.720  13.764  10.790  0.00  0.00    -0.632 OA
BRANCH  54  56
HETATM   56  O   UNK N   1      36.786  16.230  10.895  0.00  0.00    -0.307 OA
HETATM   57  H   UNK N   1      36.903  16.973  11.509  0.00  0.00     0.222 HD
ENDBRANCH  54  56
BRANCH  54  58
HETATM   58  O   UNK N   1      36.069  14.377   8.844  0.00  0.00    -0.307 OA
HETATM   59  H   UNK N   1      35.196  14.063   8.563  0.00  0.00     0.222 HD
ENDBRANCH  54  58
ENDBRANCH  53  54
ENDBRANCH  49  53
BRANCH  50  60
HETATM   60  O   UNK N   1      37.023  14.297  13.872  0.00  0.00    -0.388 OA
HETATM   61  H   UNK N   1      37.254  14.912  14.585  0.00  0.00     0.210 HD
ENDBRANCH  50  60
BRANCH  51  62
HETATM   62  N   UNK N   1      35.745  12.253  15.981  0.00  0.00    -0.297 N 
HETATM   63  C   UNK N   1      35.237  13.366  16.578  0.00  0.00     0.188 A 
HETATM   64  N   UNK N   1      35.008  13.162  17.902  0.00  0.00    -0.346 N 
HETATM   65  C   UNK N   1      35.398  11.894  18.113  0.00  0.00     0.122 A 
ATOM     66  HN  UNK N   1      34.628  13.822  18.580  1.00  0.00     0.167 HD
HETATM   67  C   UNK N   1      35.412  11.159  19.283  0.00  0.00     0.131 A 
HETATM   68  C   UNK N   1      35.835  11.345  16.961  0.00  0.00     0.142 A 
HETATM   69  N   UNK N   1      35.887   9.879  19.229  0.00  0.00    -0.337 N 
HETATM   70  C   UNK N   1      36.331   9.340  18.045  0.00  0.00     0.183 A 
ATOM     71  HN  UNK N   1      35.913   9.317  20.079  1.00  0.00     0.168 HD
HETATM   72  N   UNK N   1      36.304  10.079  16.891  0.00  0.00    -0.336 N 
ATOM     73  HN  UNK N   1      36.627   9.685  16.007  1.00  0.00     0.168 HD
BRANCH  67  74
HETATM   74  N   UNK N   1      34.961  11.711  20.499  0.00  0.00    -0.383 N 
HETATM   75  H   UNK N   1      34.057  11.553  20.854  0.00  0.00     0.157 HD
HETATM   76  H   UNK N   1      35.577  12.280  21.015  0.00  0.00     0.157 HD
ENDBRANCH  67  74
ENDBRANCH  51  62
ENDBRANCH  47  48
ENDBRANCH  46  47
ENDBRANCH  42  46
ENDBRANCH  41  42
ENDBRANCH   2  41
TORSDOF 35
ENDMDL
MODEL 6
REMARK VINA RESULT:      -5.7      9.276     13.020
REMARK WARNING: 32 MAX_TORS EXCEEDED!!!
REMARK  35 active torsions:
REMARK  status: ('A' for Active; 'I' for Inactive)
REMARK    1  A    between atoms: C_10  and  C_7 
REMARK    2  A    between atoms: C_19  and  C_7 
REMARK    3  A    between atoms: C_23  and  C_10 
REMARK    4  A    between atoms: C_12  and  C_11 
REMARK    5  A    between atoms: C_22  and  C_11 
REMARK    6  A    between atoms: N_36  and  C_12 
REMARK    7  A    between atoms: C_14  and  C_13 
REMARK    8  A    between atoms: N_34  and  C_13 
REMARK    9  A    between atoms: S_66  and  C_14 
REMARK   10  A    between atoms: C_21  and  C_15 
REMARK   11  A    between atoms: O_58  and  C_15 
REMARK   12  A    between atoms: C_32  and  C_16 
REMARK   13  A    between atoms: O_59  and  C_16 
REMARK   14  A    between atoms: N_44  and  C_20 
REMARK   15  A    between atoms: N_34  and  C_22 
REMARK   16  A    between atoms: O_46  and  C_22 
REMARK   17  A    between atoms: S_66  and  C_23 
REMARK   18  A    between atoms: C_25  and  O_48 
REMARK   19  A    between atoms: C_26  and  O_61 
REMARK   20  A    between atoms: C_30  and  C_27 
REMARK   21  A    between atoms: C_32  and  C_27 
REMARK   22  A    between atoms: C_27  and  O_49 
REMARK   23  A    between atoms: N_33  and  C_28 
REMARK   24  A    between atoms: N_36  and  C_30 
REMARK   25  A    between atoms: O_50  and  C_30 
REMARK   26  A    between atoms: C_31  and  N_45 
REMARK   27  A    between atoms: P_63  and  O_51 
REMARK   28  A    between atoms: P_63  and  O_52 
REMARK   29  A    between atoms: P_64  and  O_54 
REMARK   30  A    between atoms: P_65  and  O_56 
REMARK   31  A    between atoms: P_64  and  O_58 
REMARK   32  A    between atoms: P_65  and  O_59 
REMARK   33  A    between atoms: P_63  and  O_61 
REMARK   34  A    between atoms: P_64  and  O_62 
REMARK   35  A    between atoms: P_65  and  O_62 
ROOT
HETATM    1  O   UNK N   1      34.828  16.579   7.351  0.00  0.00    -0.631 OA
HETATM    2  P   UNK N   1      35.294  15.095   7.258  0.00  0.00     0.401 P 
ENDROOT
BRANCH   2   3
HETATM    3  O   UNK N   1      34.395  13.637   7.458  0.00  0.00    -0.307 OA
HETATM    4  H   UNK N   1      34.778  12.758   7.605  0.00  0.00     0.222 HD
ENDBRANCH   2   3
BRANCH   2   5
HETATM    5  O   UNK N   1      34.206  14.926   5.837  0.00  0.00    -0.296 OA
BRANCH   5   6
HETATM    6  C   UNK N   1      33.663  16.164   5.393  0.00  0.00     0.192 C 
BRANCH   6   7
HETATM    7  C   UNK N   1      32.310  16.203   4.637  0.00  0.00     0.008 C 
HETATM    8  C   UNK N   1      32.201  17.273   3.571  0.00  0.00     0.020 C 
HETATM    9  C   UNK N   1      32.259  14.897   3.862  0.00  0.00     0.020 C 
BRANCH   7  10
HETATM   10  C   UNK N   1      31.084  16.307   5.578  0.00  0.00     0.202 C 
BRANCH  10  11
HETATM   11  C   UNK N   1      31.427  15.939   7.004  0.00  0.00     0.141 C 
BRANCH  11  12
HETATM   12  N   UNK N   1      31.531  16.862   7.899  0.00  0.00    -0.372 N 
ATOM     13  HN  UNK N   1      32.310  17.518   7.843  1.00  0.00     0.161 HD
BRANCH  12  14
HETATM   14  C   UNK N   1      30.582  16.995   8.973  0.00  0.00     0.129 C 
BRANCH  14  15
HETATM   15  C   UNK N   1      29.988  18.398   8.954  0.00  0.00     0.103 C 
BRANCH  15  16
HETATM   16  C   UNK N   1      28.542  18.390   8.536  0.00  0.00     0.112 C 
BRANCH  16  17
HETATM   17  N   UNK N   1      28.189  18.586   7.311  0.00  0.00    -0.374 N 
ATOM     18  HN  UNK N   1      28.196  17.794   6.669  1.00  0.00     0.161 HD
BRANCH  17  19
HETATM   19  C   UNK N   1      27.788  19.878   6.812  0.00  0.00     0.132 C 
BRANCH  19  20
HETATM   20  C   UNK N   1      26.736  19.742   5.724  0.00  0.00     0.102 C 
BRANCH  20  21
HETATM   21  S   UNK N   1      27.061  18.297   4.674  0.00  0.00    -0.086 SA
BRANCH  21  22
HETATM   22  C   UNK N   1      25.375  18.266   4.063  0.00  0.00     0.208 C 
HETATM   23  O   UNK N   1      24.736  19.307   4.045  0.00  0.00    -0.281 OA
BRANCH  22  24
HETATM   24  C   UNK N   1      24.757  16.992   3.618  0.00  0.00     0.063 C 
BRANCH  24  25
HETATM   25  C   UNK N   1      24.534  15.990   4.491  0.00  0.00     0.016 C 
BRANCH  25  26
HETATM   26  C   UNK N   1      23.464  16.006   5.513  0.00  0.00    -0.036 A 
HETATM   27  C   UNK N   1      23.474  15.010   6.496  0.00  0.00     0.013 A 
HETATM   28  C   UNK N   1      22.479  14.962   7.471  0.00  0.00     0.030 A 
HETATM   29  C   UNK N   1      21.454  15.918   7.491  0.00  0.00     0.029 A 
HETATM   30  C   UNK N   1      21.447  16.927   6.509  0.00  0.00     0.030 A 
HETATM   31  C   UNK N   1      22.441  16.968   5.523  0.00  0.00     0.013 A 
BRANCH  29  32
HETATM   32  N   UNK N   1      20.436  15.862   8.492  0.00  0.00    -0.390 N 
HETATM   33  C   UNK N   1      20.203  14.657   9.246  0.00  0.00     0.149 C 
HETATM   34  C   UNK N   1      19.618  17.016   8.777  0.00  0.00     0.149 C 
ENDBRANCH  29  32
ENDBRANCH  25  26
ENDBRANCH  24  25
ENDBRANCH  22  24
ENDBRANCH  21  22
ENDBRANCH  20  21
ENDBRANCH  19  20
ENDBRANCH  17  19
ENDBRANCH  16  17
BRANCH  16  35
HETATM   35  O   UNK N   1      27.596  18.140   9.459  0.00  0.00    -0.350 OA
HETATM   36  H   UNK N   1      27.314  17.328   9.832  0.00  0.00     0.219 HD
ENDBRANCH  16  35
ENDBRANCH  15  16
ENDBRANCH  14  15
ENDBRANCH  12  14
ENDBRANCH  11  12
BRANCH  11  37
HETATM   37  O   UNK N   1      31.588  14.640   7.339  0.00  0.00    -0.348 OA
HETATM   38  H   UNK N   1      31.682  13.994   8.011  0.00  0.00     0.219 HD
ENDBRANCH  11  37
ENDBRANCH  10  11
BRANCH  10  39
HETATM   39  O   UNK N   1      30.559  17.604   5.544  0.00  0.00    -0.387 OA
HETATM   40  H   UNK N   1      29.669  17.979   5.637  0.00  0.00     0.210 HD
ENDBRANCH  10  39
ENDBRANCH   7  10
ENDBRANCH   6   7
ENDBRANCH   5   6
ENDBRANCH   2   5
BRANCH   2  41
HETATM   41  O   UNK N   1      34.209  15.234   8.625  0.00  0.00    -0.195 OA
BRANCH  41  42
HETATM   42  P   UNK N   1      35.105  15.200  10.119  0.00  0.00     0.401 P 
HETATM   43  O   UNK N   1      36.454  15.965  10.168  0.00  0.00    -0.631 OA
BRANCH  42  44
HETATM   44  O   UNK N   1      34.307  16.701  10.444  0.00  0.00    -0.307 OA
HETATM   45  H   UNK N   1      33.656  17.383  10.670  0.00  0.00     0.222 HD
ENDBRANCH  42  44
BRANCH  42  46
HETATM   46  O   UNK N   1      34.403  14.683  11.618  0.00  0.00    -0.294 OA
BRANCH  46  47
HETATM   47  C   UNK N   1      35.486  14.567  12.484  0.00  0.00     0.215 C 
BRANCH  47  48
HETATM   48  C   UNK N   1      35.502  13.221  13.179  0.00  0.00     0.180 C 
HETATM   49  C   UNK N   1      34.918  12.056  12.386  0.00  0.00     0.197 C 
HETATM   50  C   UNK N   1      34.923  11.065  13.517  0.00  0.00     0.199 C 
HETATM   51  C   UNK N   1      34.313  11.943  14.614  0.00  0.00     0.262 C 
HETATM   52  O   UNK N   1      34.783  13.265  14.391  0.00  0.00    -0.353 OA
BRANCH  49  53
HETATM   53  O   UNK N   1      35.751  11.634  11.326  0.00  0.00    -0.286 OA
BRANCH  53  54
HETATM   54  P   UNK N   1      34.801  11.047   9.971  0.00  0.00     0.391 P 
HETATM   55  O   UNK N   1      35.680  11.205   8.702  0.00  0.00    -0.632 OA
BRANCH  54  56
HETATM   56  O   UNK N   1      33.335  11.930   9.673  0.00  0.00    -0.307 OA
HETATM   57  H   UNK N   1      32.368  12.009   9.636  0.00  0.00     0.222 HD
ENDBRANCH  54  56
BRANCH  54  58
HETATM   58  O   UNK N   1      34.473   9.349  10.112  0.00  0.00    -0.307 OA
HETATM   59  H   UNK N   1      33.720   8.959   9.642  0.00  0.00     0.222 HD
ENDBRANCH  54  58
ENDBRANCH  53  54
ENDBRANCH  49  53
BRANCH  50  60
HETATM   60  O   UNK N   1      34.167   9.923  13.237  0.00  0.00    -0.388 OA
HETATM   61  H   UNK N   1      33.513   9.799  12.532  0.00  0.00     0.210 HD
ENDBRANCH  50  60
BRANCH  51  62
HETATM   62  N   UNK N   1      34.687  11.520  15.965  0.00  0.00    -0.297 N 
HETATM   63  C   UNK N   1      34.850  10.231  16.367  0.00  0.00     0.188 A 
HETATM   64  N   UNK N   1      35.205  10.158  17.678  0.00  0.00    -0.346 N 
HETATM   65  C   UNK N   1      35.248  11.439  18.080  0.00  0.00     0.122 A 
ATOM     66  HN  UNK N   1      35.394   9.321  18.229  1.00  0.00     0.167 HD
HETATM   67  C   UNK N   1      35.531  11.962  19.326  0.00  0.00     0.131 A 
HETATM   68  C   UNK N   1      34.943  12.258  17.053  0.00  0.00     0.142 A 
HETATM   69  N   UNK N   1      35.483  13.320  19.477  0.00  0.00    -0.337 N 
HETATM   70  C   UNK N   1      35.167  14.137  18.417  0.00  0.00     0.183 A 
ATOM     71  HN  UNK N   1      35.684  13.731  20.388  1.00  0.00     0.168 HD
HETATM   72  N   UNK N   1      34.895  13.603  17.184  0.00  0.00    -0.336 N 
ATOM     73  HN  UNK N   1      34.664  14.202  16.392  1.00  0.00     0.168 HD
BRANCH  67  74
HETATM   74  N   UNK N   1      35.852  11.126  20.415  0.00  0.00    -0.383 N 
HETATM   75  H   UNK N   1      35.418  10.256  20.567  0.00  0.00     0.157 HD
HETATM   76  H   UNK N   1      36.542  11.426  21.051  0.00  0.00     0.157 HD
ENDBRANCH  67  74
ENDBRANCH  51  62
ENDBRANCH  47  48
ENDBRANCH  46  47
ENDBRANCH  42  46
ENDBRANCH  41  42
ENDBRANCH   2  41
TORSDOF 35
ENDMDL
MODEL 7
REMARK VINA RESULT:      -5.7      7.363     11.894
REMARK WARNING: 32 MAX_TORS EXCEEDED!!!
REMARK  35 active torsions:
REMARK  status: ('A' for Active; 'I' for Inactive)
REMARK    1  A    between atoms: C_10  and  C_7 
REMARK    2  A    between atoms: C_19  and  C_7 
REMARK    3  A    between atoms: C_23  and  C_10 
REMARK    4  A    between atoms: C_12  and  C_11 
REMARK    5  A    between atoms: C_22  and  C_11 
REMARK    6  A    between atoms: N_36  and  C_12 
REMARK    7  A    between atoms: C_14  and  C_13 
REMARK    8  A    between atoms: N_34  and  C_13 
REMARK    9  A    between atoms: S_66  and  C_14 
REMARK   10  A    between atoms: C_21  and  C_15 
REMARK   11  A    between atoms: O_58  and  C_15 
REMARK   12  A    between atoms: C_32  and  C_16 
REMARK   13  A    between atoms: O_59  and  C_16 
REMARK   14  A    between atoms: N_44  and  C_20 
REMARK   15  A    between atoms: N_34  and  C_22 
REMARK   16  A    between atoms: O_46  and  C_22 
REMARK   17  A    between atoms: S_66  and  C_23 
REMARK   18  A    between atoms: C_25  and  O_48 
REMARK   19  A    between atoms: C_26  and  O_61 
REMARK   20  A    between atoms: C_30  and  C_27 
REMARK   21  A    between atoms: C_32  and  C_27 
REMARK   22  A    between atoms: C_27  and  O_49 
REMARK   23  A    between atoms: N_33  and  C_28 
REMARK   24  A    between atoms: N_36  and  C_30 
REMARK   25  A    between atoms: O_50  and  C_30 
REMARK   26  A    between atoms: C_31  and  N_45 
REMARK   27  A    between atoms: P_63  and  O_51 
REMARK   28  A    between atoms: P_63  and  O_52 
REMARK   29  A    between atoms: P_64  and  O_54 
REMARK   30  A    between atoms: P_65  and  O_56 
REMARK   31  A    between atoms: P_64  and  O_58 
REMARK   32  A    between atoms: P_65  and  O_59 
REMARK   33  A    between atoms: P_63  and  O_61 
REMARK   34  A    between atoms: P_64  and  O_62 
REMARK   35  A    between atoms: P_65  and  O_62 
ROOT
HETATM    1  O   UNK N   1      29.546  14.468   5.508  0.00  0.00    -0.631 OA
HETATM    2  P   UNK N   1      28.612  14.859   4.324  0.00  0.00     0.401 P 
ENDROOT
BRANCH   2   3
HETATM    3  O   UNK N   1      27.974  16.398   3.879  0.00  0.00    -0.307 OA
HETATM    4  H   UNK N   1      27.227  16.543   3.277  0.00  0.00     0.222 HD
ENDBRANCH   2   3
BRANCH   2   5
HETATM    5  O   UNK N   1      29.969  15.849   3.686  0.00  0.00    -0.296 OA
BRANCH   5   6
HETATM    6  C   UNK N   1      31.251  15.338   4.033  0.00  0.00     0.192 C 
BRANCH   6   7
HETATM    7  C   UNK N   1      32.472  16.287   4.148  0.00  0.00     0.008 C 
HETATM    8  C   UNK N   1      33.812  15.596   4.287  0.00  0.00     0.020 C 
HETATM    9  C   UNK N   1      32.550  16.986   2.801  0.00  0.00     0.020 C 
BRANCH   7  10
HETATM   10  C   UNK N   1      32.330  17.336   5.279  0.00  0.00     0.202 C 
BRANCH  10  11
HETATM   11  C   UNK N   1      31.455  16.840   6.408  0.00  0.00     0.141 C 
BRANCH  11  12
HETATM   12  N   UNK N   1      31.901  15.945   7.222  0.00  0.00    -0.372 N 
ATOM     13  HN  UNK N   1      32.208  15.047   6.848  1.00  0.00     0.161 HD
BRANCH  12  14
HETATM   14  C   UNK N   1      31.981  16.174   8.642  0.00  0.00     0.129 C 
BRANCH  14  15
HETATM   15  C   UNK N   1      33.395  15.876   9.125  0.00  0.00     0.103 C 
BRANCH  15  16
HETATM   16  C   UNK N   1      34.191  17.135   9.343  0.00  0.00     0.112 C 
BRANCH  16  17
HETATM   17  N   UNK N   1      35.081  17.221  10.273  0.00  0.00    -0.374 N 
ATOM     18  HN  UNK N   1      35.667  18.054  10.311  1.00  0.00     0.161 HD
BRANCH  17  19
HETATM   19  C   UNK N   1      35.281  16.187  11.258  0.00  0.00     0.132 C 
BRANCH  19  20
HETATM   20  C   UNK N   1      36.526  15.371  10.950  0.00  0.00     0.102 C 
BRANCH  20  21
HETATM   21  S   UNK N   1      36.115  13.624  10.678  0.00  0.00    -0.086 SA
BRANCH  21  22
HETATM   22  C   UNK N   1      35.712  13.370  12.407  0.00  0.00     0.208 C 
HETATM   23  O   UNK N   1      34.550  13.152  12.715  0.00  0.00    -0.281 OA
BRANCH  22  24
HETATM   24  C   UNK N   1      36.766  13.455  13.448  0.00  0.00     0.063 C 
BRANCH  24  25
HETATM   25  C   UNK N   1      36.481  13.911  14.684  0.00  0.00     0.016 C 
BRANCH  25  26
HETATM   26  C   UNK N   1      36.093  13.042  15.817  0.00  0.00    -0.036 A 
HETATM   27  C   UNK N   1      36.365  11.672  15.723  0.00  0.00     0.013 A 
HETATM   28  C   UNK N   1      36.002  10.803  16.750  0.00  0.00     0.030 A 
HETATM   29  C   UNK N   1      35.367  11.286  17.902  0.00  0.00     0.029 A 
HETATM   30  C   UNK N   1      35.101  12.665  18.004  0.00  0.00     0.030 A 
HETATM   31  C   UNK N   1      35.456  13.537  16.966  0.00  0.00     0.013 A 
BRANCH  29  32
HETATM   32  N   UNK N   1      34.996  10.389  18.951  0.00  0.00    -0.390 N 
HETATM   33  C   UNK N   1      35.063  10.795  20.332  0.00  0.00     0.149 C 
HETATM   34  C   UNK N   1      34.541   9.054  18.652  0.00  0.00     0.149 C 
ENDBRANCH  29  32
ENDBRANCH  25  26
ENDBRANCH  24  25
ENDBRANCH  22  24
ENDBRANCH  21  22
ENDBRANCH  20  21
ENDBRANCH  19  20
ENDBRANCH  17  19
ENDBRANCH  16  17
BRANCH  16  35
HETATM   35  O   UNK N   1      33.990  18.185   8.527  0.00  0.00    -0.350 OA
HETATM   36  H   UNK N   1      33.888  18.216   7.597  0.00  0.00     0.219 HD
ENDBRANCH  16  35
ENDBRANCH  15  16
ENDBRANCH  14  15
ENDBRANCH  12  14
ENDBRANCH  11  12
BRANCH  11  37
HETATM   37  O   UNK N   1      30.222  17.365   6.578  0.00  0.00    -0.348 OA
HETATM   38  H   UNK N   1      29.469  17.477   7.125  0.00  0.00     0.219 HD
ENDBRANCH  11  37
ENDBRANCH  10  11
BRANCH  10  39
HETATM   39  O   UNK N   1      33.591  17.677   5.781  0.00  0.00    -0.387 OA
HETATM   40  H   UNK N   1      34.492  17.349   5.637  0.00  0.00     0.210 HD
ENDBRANCH  10  39
ENDBRANCH   7  10
ENDBRANCH   6   7
ENDBRANCH   5   6
ENDBRANCH   2   5
BRANCH   2  41
HETATM   41  O   UNK N   1      28.071  15.725   5.746  0.00  0.00    -0.195 OA
BRANCH  41  42
HETATM   42  P   UNK N   1      26.389  15.393   6.058  0.00  0.00     0.401 P 
HETATM   43  O   UNK N   1      25.938  15.285   7.539  0.00  0.00    -0.631 OA
BRANCH  42  44
HETATM   44  O   UNK N   1      26.242  17.111   6.197  0.00  0.00    -0.307 OA
HETATM   45  H   UNK N   1      26.229  18.025   6.524  0.00  0.00     0.222 HD
ENDBRANCH  42  44
BRANCH  42  46
HETATM   46  O   UNK N   1      25.164  15.545   4.839  0.00  0.00    -0.294 OA
BRANCH  46  47
HETATM   47  C   UNK N   1      24.056  14.902   5.382  0.00  0.00     0.215 C 
BRANCH  47  48
HETATM   48  C   UNK N   1      22.774  15.650   5.078  0.00  0.00     0.180 C 
HETATM   49  C   UNK N   1      21.516  15.117   5.755  0.00  0.00     0.197 C 
HETATM   50  C   UNK N   1      20.540  15.968   4.990  0.00  0.00     0.199 C 
HETATM   51  C   UNK N   1      21.089  15.758   3.576  0.00  0.00     0.262 C 
HETATM   52  O   UNK N   1      22.500  15.649   3.694  0.00  0.00    -0.353 OA
BRANCH  49  53
HETATM   53  O   UNK N   1      21.470  15.396   7.139  0.00  0.00    -0.286 OA
BRANCH  53  54
HETATM   54  P   UNK N   1      21.048  13.962   8.060  0.00  0.00     0.391 P 
HETATM   55  O   UNK N   1      22.284  13.601   8.925  0.00  0.00    -0.632 OA
BRANCH  54  56
HETATM   56  O   UNK N   1      20.687  12.560   7.099  0.00  0.00    -0.307 OA
HETATM   57  H   UNK N   1      20.222  12.104   6.380  0.00  0.00     0.222 HD
ENDBRANCH  54  56
BRANCH  54  58
HETATM   58  O   UNK N   1      19.762  14.281   9.180  0.00  0.00    -0.307 OA
HETATM   59  H   UNK N   1      18.863  14.447   8.854  0.00  0.00     0.222 HD
ENDBRANCH  54  58
ENDBRANCH  53  54
ENDBRANCH  49  53
BRANCH  50  60
HETATM   60  O   UNK N   1      19.218  15.542   5.141  0.00  0.00    -0.388 OA
HETATM   61  H   UNK N   1      18.622  15.701   5.889  0.00  0.00     0.210 HD
ENDBRANCH  50  60
BRANCH  51  62
HETATM   62  N   UNK N   1      20.766  16.856   2.664  0.00  0.00    -0.297 N 
HETATM   63  C   UNK N   1      19.948  16.763   1.581  0.00  0.00     0.188 A 
HETATM   64  N   UNK N   1      19.838  17.953   0.933  0.00  0.00    -0.346 N 
HETATM   65  C   UNK N   1      20.621  18.786   1.638  0.00  0.00     0.122 A 
ATOM     66  HN  UNK N   1      19.288  18.164   0.101  1.00  0.00     0.167 HD
HETATM   67  C   UNK N   1      20.907  20.120   1.424  0.00  0.00     0.131 A 
HETATM   68  C   UNK N   1      21.174  18.132   2.680  0.00  0.00     0.142 A 
HETATM   69  N   UNK N   1      21.766  20.737   2.289  0.00  0.00    -0.337 N 
HETATM   70  C   UNK N   1      22.322  20.051   3.343  0.00  0.00     0.183 A 
ATOM     71  HN  UNK N   1      21.998  21.721   2.150  1.00  0.00     0.168 HD
HETATM   72  N   UNK N   1      22.022  18.730   3.547  0.00  0.00    -0.336 N 
ATOM     73  HN  UNK N   1      22.426  18.214   4.329  1.00  0.00     0.168 HD
BRANCH  67  74
HETATM   74  N   UNK N   1      20.341  20.824   0.342  0.00  0.00    -0.383 N 
HETATM   75  H   UNK N   1      19.462  21.264   0.392  0.00  0.00     0.157 HD
HETATM   76  H   UNK N   1      20.847  20.879  -0.501  0.00  0.00     0.157 HD
ENDBRANCH  67  74
ENDBRANCH  51  62
ENDBRANCH  47  48
ENDBRANCH  46  47
ENDBRANCH  42  46
ENDBRANCH  41  42
ENDBRANCH   2  41
TORSDOF 35
ENDMDL
MODEL 8
REMARK VINA RESULT:      -5.6      9.877     13.504
REMARK WARNING: 32 MAX_TORS EXCEEDED!!!
REMARK  35 active torsions:
REMARK  status: ('A' for Active; 'I' for Inactive)
REMARK    1  A    between atoms: C_10  and  C_7 
REMARK    2  A    between atoms: C_19  and  C_7 
REMARK    3  A    between atoms: C_23  and  C_10 
REMARK    4  A    between atoms: C_12  and  C_11 
REMARK    5  A    between atoms: C_22  and  C_11 
REMARK    6  A    between atoms: N_36  and  C_12 
REMARK    7  A    between atoms: C_14  and  C_13 
REMARK    8  A    between atoms: N_34  and  C_13 
REMARK    9  A    between atoms: S_66  and  C_14 
REMARK   10  A    between atoms: C_21  and  C_15 
REMARK   11  A    between atoms: O_58  and  C_15 
REMARK   12  A    between atoms: C_32  and  C_16 
REMARK   13  A    between atoms: O_59  and  C_16 
REMARK   14  A    between atoms: N_44  and  C_20 
REMARK   15  A    between atoms: N_34  and  C_22 
REMARK   16  A    between atoms: O_46  and  C_22 
REMARK   17  A    between atoms: S_66  and  C_23 
REMARK   18  A    between atoms: C_25  and  O_48 
REMARK   19  A    between atoms: C_26  and  O_61 
REMARK   20  A    between atoms: C_30  and  C_27 
REMARK   21  A    between atoms: C_32  and  C_27 
REMARK   22  A    between atoms: C_27  and  O_49 
REMARK   23  A    between atoms: N_33  and  C_28 
REMARK   24  A    between atoms: N_36  and  C_30 
REMARK   25  A    between atoms: O_50  and  C_30 
REMARK   26  A    between atoms: C_31  and  N_45 
REMARK   27  A    between atoms: P_63  and  O_51 
REMARK   28  A    between atoms: P_63  and  O_52 
REMARK   29  A    between atoms: P_64  and  O_54 
REMARK   30  A    between atoms: P_65  and  O_56 
REMARK   31  A    between atoms: P_64  and  O_58 
REMARK   32  A    between atoms: P_65  and  O_59 
REMARK   33  A    between atoms: P_63  and  O_61 
REMARK   34  A    between atoms: P_64  and  O_62 
REMARK   35  A    between atoms: P_65  and  O_62 
ROOT
HETATM    1  O   UNK N   1      37.575  12.705   4.366  0.00  0.00    -0.631 OA
HETATM    2  P   UNK N   1      36.367  12.403   5.302  0.00  0.00     0.401 P 
ENDROOT
BRANCH   2   3
HETATM    3  O   UNK N   1      35.650  13.373   6.535  0.00  0.00    -0.307 OA
HETATM    4  H   UNK N   1      35.596  13.138   7.474  0.00  0.00     0.222 HD
ENDBRANCH   2   3
BRANCH   2   5
HETATM    5  O   UNK N   1      35.505  13.758   4.497  0.00  0.00    -0.296 OA
BRANCH   5   6
HETATM    6  C   UNK N   1      34.128  13.489   4.261  0.00  0.00     0.192 C 
BRANCH   6   7
HETATM    7  C   UNK N   1      33.102  14.649   4.184  0.00  0.00     0.008 C 
HETATM    8  C   UNK N   1      33.452  15.753   3.209  0.00  0.00     0.020 C 
HETATM    9  C   UNK N   1      31.847  14.020   3.601  0.00  0.00     0.020 C 
BRANCH   7  10
HETATM   10  C   UNK N   1      32.784  15.280   5.562  0.00  0.00     0.202 C 
BRANCH  10  11
HETATM   11  C   UNK N   1      33.779  16.355   5.939  0.00  0.00     0.141 C 
BRANCH  11  12
HETATM   12  N   UNK N   1      33.361  17.517   6.309  0.00  0.00    -0.372 N 
ATOM     13  HN  UNK N   1      32.757  18.048   5.681  1.00  0.00     0.161 HD
BRANCH  12  14
HETATM   14  C   UNK N   1      33.717  18.088   7.582  0.00  0.00     0.129 C 
BRANCH  14  15
HETATM   15  C   UNK N   1      32.455  18.338   8.398  0.00  0.00     0.103 C 
BRANCH  15  16
HETATM   16  C   UNK N   1      31.690  17.067   8.653  0.00  0.00     0.112 C 
BRANCH  16  17
HETATM   17  N   UNK N   1      30.428  16.974   8.405  0.00  0.00    -0.374 N 
ATOM     18  HN  UNK N   1      30.124  16.373   7.639  1.00  0.00     0.161 HD
BRANCH  17  19
HETATM   19  C   UNK N   1      29.430  17.684   9.166  0.00  0.00     0.132 C 
BRANCH  19  20
HETATM   20  C   UNK N   1      28.466  18.421   8.251  0.00  0.00     0.102 C 
BRANCH  20  21
HETATM   21  S   UNK N   1      27.845  17.332   6.938  0.00  0.00    -0.086 SA
BRANCH  21  22
HETATM   22  C   UNK N   1      28.691  18.263   5.659  0.00  0.00     0.208 C 
HETATM   23  O   UNK N   1      29.831  17.945   5.355  0.00  0.00    -0.281 OA
BRANCH  22  24
HETATM   24  C   UNK N   1      28.029  19.420   5.005  0.00  0.00     0.063 C 
BRANCH  24  25
HETATM   25  C   UNK N   1      27.365  19.268   3.843  0.00  0.00     0.016 C 
BRANCH  25  26
HETATM   26  C   UNK N   1      25.890  19.319   3.720  0.00  0.00    -0.036 A 
HETATM   27  C   UNK N   1      25.323  20.386   3.014  0.00  0.00     0.013 A 
HETATM   28  C   UNK N   1      23.939  20.498   2.885  0.00  0.00     0.030 A 
HETATM   29  C   UNK N   1      23.091  19.536   3.451  0.00  0.00     0.029 A 
HETATM   30  C   UNK N   1      23.660  18.457   4.154  0.00  0.00     0.030 A 
HETATM   31  C   UNK N   1      25.050  18.352   4.293  0.00  0.00     0.013 A 
BRANCH  29  32
HETATM   32  N   UNK N   1      21.673  19.658   3.317  0.00  0.00    -0.390 N 
HETATM   33  C   UNK N   1      21.086  20.805   2.672  0.00  0.00     0.149 C 
HETATM   34  C   UNK N   1      20.794  18.631   3.819  0.00  0.00     0.149 C 
ENDBRANCH  29  32
ENDBRANCH  25  26
ENDBRANCH  24  25
ENDBRANCH  22  24
ENDBRANCH  21  22
ENDBRANCH  20  21
ENDBRANCH  19  20
ENDBRANCH  17  19
ENDBRANCH  16  17
BRANCH  16  35
HETATM   35  O   UNK N   1      32.348  15.991   9.121  0.00  0.00    -0.350 OA
HETATM   36  H   UNK N   1      32.290  15.090   8.871  0.00  0.00     0.219 HD
ENDBRANCH  16  35
ENDBRANCH  15  16
ENDBRANCH  14  15
ENDBRANCH  12  14
ENDBRANCH  11  12
BRANCH  11  37
HETATM   37  O   UNK N   1      35.102  16.079   5.919  0.00  0.00    -0.348 OA
HETATM   38  H   UNK N   1      35.816  15.617   5.526  0.00  0.00     0.219 HD
ENDBRANCH  11  37
ENDBRANCH  10  11
BRANCH  10  39
HETATM   39  O   UNK N   1      31.493  15.819   5.560  0.00  0.00    -0.387 OA
HETATM   40  H   UNK N   1      31.063  16.554   6.025  0.00  0.00     0.210 HD
ENDBRANCH  10  39
ENDBRANCH   7  10
ENDBRANCH   6   7
ENDBRANCH   5   6
ENDBRANCH   2   5
BRANCH   2  41
HETATM   41  O   UNK N   1      37.609  13.182   6.259  0.00  0.00    -0.195 OA
BRANCH  41  42
HETATM   42  P   UNK N   1      37.929  12.265   7.706  0.00  0.00     0.401 P 
HETATM   43  O   UNK N   1      39.407  11.928   8.034  0.00  0.00    -0.631 OA
BRANCH  42  44
HETATM   44  O   UNK N   1      38.179  13.813   8.438  0.00  0.00    -0.307 OA
HETATM   45  H   UNK N   1      38.369  14.533   9.060  0.00  0.00     0.222 HD
ENDBRANCH  42  44
BRANCH  42  46
HETATM   46  O   UNK N   1      36.743  12.042   8.952  0.00  0.00    -0.294 OA
BRANCH  46  47
HETATM   47  C   UNK N   1      37.485  11.996  10.129  0.00  0.00     0.215 C 
BRANCH  47  48
HETATM   48  C   UNK N   1      36.590  11.963  11.350  0.00  0.00     0.180 C 
HETATM   49  C   UNK N   1      36.098  13.316  11.852  0.00  0.00     0.197 C 
HETATM   50  C   UNK N   1      35.503  12.812  13.139  0.00  0.00     0.199 C 
HETATM   51  C   UNK N   1      36.658  11.923  13.609  0.00  0.00     0.262 C 
HETATM   52  O   UNK N   1      37.242  11.357  12.445  0.00  0.00    -0.353 OA
BRANCH  49  53
HETATM   53  O   UNK N   1      35.112  13.892  11.019  0.00  0.00    -0.286 OA
BRANCH  53  54
HETATM   54  P   UNK N   1      35.670  15.412  10.339  0.00  0.00     0.391 P 
HETATM   55  O   UNK N   1      35.477  15.317   8.803  0.00  0.00    -0.632 OA
BRANCH  54  56
HETATM   56  O   UNK N   1      37.351  15.758  10.609  0.00  0.00    -0.307 OA
HETATM   57  H   UNK N   1      38.235  15.532  10.937  0.00  0.00     0.222 HD
ENDBRANCH  54  56
BRANCH  54  58
HETATM   58  O   UNK N   1      34.682  16.741  10.859  0.00  0.00    -0.307 OA
HETATM   59  H   UNK N   1      34.383  17.404  10.218  0.00  0.00     0.222 HD
ENDBRANCH  54  58
ENDBRANCH  53  54
ENDBRANCH  49  53
BRANCH  50  60
HETATM   60  O   UNK N   1      35.198  13.842  14.032  0.00  0.00    -0.388 OA
HETATM   61  H   UNK N   1      35.591  14.728  14.078  0.00  0.00     0.210 HD
ENDBRANCH  50  60
BRANCH  51  62
HETATM   62  N   UNK N   1      36.228  10.846  14.503  0.00  0.00    -0.297 N 
HETATM   63  C   UNK N   1      36.135   9.533  14.162  0.00  0.00     0.188 A 
HETATM   64  N   UNK N   1      35.714   8.774  15.208  0.00  0.00    -0.346 N 
HETATM   65  C   UNK N   1      35.538   9.655  16.206  0.00  0.00     0.122 A 
ATOM     66  HN  UNK N   1      35.565   7.765  15.230  1.00  0.00     0.167 HD
HETATM   67  C   UNK N   1      35.096   9.448  17.498  0.00  0.00     0.131 A 
HETATM   68  C   UNK N   1      35.851  10.898  15.787  0.00  0.00     0.142 A 
HETATM   69  N   UNK N   1      34.982  10.535  18.318  0.00  0.00    -0.337 N 
HETATM   70  C   UNK N   1      35.303  11.795  17.870  0.00  0.00     0.183 A 
ATOM     71  HN  UNK N   1      34.653  10.409  19.275  1.00  0.00     0.168 HD
HETATM   72  N   UNK N   1      35.748  11.983  16.588  0.00  0.00    -0.336 N 
ATOM     73  HN  UNK N   1      35.993  12.914  16.248  1.00  0.00     0.168 HD
BRANCH  67  74
HETATM   74  N   UNK N   1      34.763   8.158  17.959  0.00  0.00    -0.383 N 
HETATM   75  H   UNK N   1      35.151   7.764  18.773  0.00  0.00     0.157 HD
HETATM   76  H   UNK N   1      34.112   7.628  17.443  0.00  0.00     0.157 HD
ENDBRANCH  67  74
ENDBRANCH  51  62
ENDBRANCH  47  48
ENDBRANCH  46  47
ENDBRANCH  42  46
ENDBRANCH  41  42
ENDBRANCH   2  41
TORSDOF 35
ENDMDL
MODEL 9
REMARK VINA RESULT:      -5.6      3.624      9.021
REMARK WARNING: 32 MAX_TORS EXCEEDED!!!
REMARK  35 active torsions:
REMARK  status: ('A' for Active; 'I' for Inactive)
REMARK    1  A    between atoms: C_10  and  C_7 
REMARK    2  A    between atoms: C_19  and  C_7 
REMARK    3  A    between atoms: C_23  and  C_10 
REMARK    4  A    between atoms: C_12  and  C_11 
REMARK    5  A    between atoms: C_22  and  C_11 
REMARK    6  A    between atoms: N_36  and  C_12 
REMARK    7  A    between atoms: C_14  and  C_13 
REMARK    8  A    between atoms: N_34  and  C_13 
REMARK    9  A    between atoms: S_66  and  C_14 
REMARK   10  A    between atoms: C_21  and  C_15 
REMARK   11  A    between atoms: O_58  and  C_15 
REMARK   12  A    between atoms: C_32  and  C_16 
REMARK   13  A    between atoms: O_59  and  C_16 
REMARK   14  A    between atoms: N_44  and  C_20 
REMARK   15  A    between atoms: N_34  and  C_22 
REMARK   16  A    between atoms: O_46  and  C_22 
REMARK   17  A    between atoms: S_66  and  C_23 
REMARK   18  A    between atoms: C_25  and  O_48 
REMARK   19  A    between atoms: C_26  and  O_61 
REMARK   20  A    between atoms: C_30  and  C_27 
REMARK   21  A    between atoms: C_32  and  C_27 
REMARK   22  A    between atoms: C_27  and  O_49 
REMARK   23  A    between atoms: N_33  and  C_28 
REMARK   24  A    between atoms: N_36  and  C_30 
REMARK   25  A    between atoms: O_50  and  C_30 
REMARK   26  A    between atoms: C_31  and  N_45 
REMARK   27  A    between atoms: P_63  and  O_51 
REMARK   28  A    between atoms: P_63  and  O_52 
REMARK   29  A    between atoms: P_64  and  O_54 
REMARK   30  A    between atoms: P_65  and  O_56 
REMARK   31  A    between atoms: P_64  and  O_58 
REMARK   32  A    between atoms: P_65  and  O_59 
REMARK   33  A    between atoms: P_63  and  O_61 
REMARK   34  A    between atoms: P_64  and  O_62 
REMARK   35  A    between atoms: P_65  and  O_62 
ROOT
HETATM    1  O   UNK N   1      28.443  18.586   5.343  0.00  0.00    -0.631 OA
HETATM    2  P   UNK N   1      27.636  19.884   5.643  0.00  0.00     0.401 P 
ENDROOT
BRANCH   2   3
HETATM    3  O   UNK N   1      26.149  20.093   6.491  0.00  0.00    -0.307 OA
HETATM    4  H   UNK N   1      26.060  20.456   7.385  0.00  0.00     0.222 HD
ENDBRANCH   2   3
BRANCH   2   5
HETATM    5  O   UNK N   1      27.954  19.583   7.386  0.00  0.00    -0.296 OA
BRANCH   5   6
HETATM    6  C   UNK N   1      29.219  18.978   7.632  0.00  0.00     0.192 C 
BRANCH   6   7
HETATM    7  C   UNK N   1      29.407  18.003   8.823  0.00  0.00     0.008 C 
HETATM    8  C   UNK N   1      29.721  18.662  10.149  0.00  0.00     0.020 C 
HETATM    9  C   UNK N   1      28.039  17.376   9.033  0.00  0.00     0.020 C 
BRANCH   7  10
HETATM   10  C   UNK N   1      30.458  16.898   8.552  0.00  0.00     0.202 C 
BRANCH  10  11
HETATM   11  C   UNK N   1      30.540  16.538   7.085  0.00  0.00     0.141 C 
BRANCH  11  12
HETATM   12  N   UNK N   1      31.653  16.682   6.449  0.00  0.00    -0.372 N 
ATOM     13  HN  UNK N   1      32.187  17.542   6.577  1.00  0.00     0.161 HD
BRANCH  12  14
HETATM   14  C   UNK N   1      32.165  15.667   5.566  0.00  0.00     0.129 C 
BRANCH  14  15
HETATM   15  C   UNK N   1      32.499  16.291   4.216  0.00  0.00     0.103 C 
BRANCH  15  16
HETATM   16  C   UNK N   1      31.322  17.024   3.630  0.00  0.00     0.112 C 
BRANCH  16  17
HETATM   17  N   UNK N   1      30.539  16.470   2.769  0.00  0.00    -0.374 N 
ATOM     18  HN  UNK N   1      30.950  16.042   1.940  1.00  0.00     0.161 HD
BRANCH  17  19
HETATM   19  C   UNK N   1      29.106  16.431   2.931  0.00  0.00     0.132 C 
BRANCH  19  20
HETATM   20  C   UNK N   1      28.632  15.027   3.268  0.00  0.00     0.102 C 
BRANCH  20  21
HETATM   21  S   UNK N   1      27.149  14.589   2.316  0.00  0.00    -0.086 SA
BRANCH  21  22
HETATM   22  C   UNK N   1      26.239  14.141   3.795  0.00  0.00     0.208 C 
HETATM   23  O   UNK N   1      25.645  13.072   3.819  0.00  0.00    -0.281 OA
BRANCH  22  24
HETATM   24  C   UNK N   1      26.181  15.064   4.955  0.00  0.00     0.063 C 
BRANCH  24  25
HETATM   25  C   UNK N   1      26.248  14.593   6.216  0.00  0.00     0.016 C 
BRANCH  25  26
HETATM   26  C   UNK N   1      25.064  14.299   7.054  0.00  0.00    -0.036 A 
HETATM   27  C   UNK N   1      23.836  14.856   6.681  0.00  0.00     0.013 A 
HETATM   28  C   UNK N   1      22.691  14.632   7.445  0.00  0.00     0.030 A 
HETATM   29  C   UNK N   1      22.748  13.834   8.596  0.00  0.00     0.029 A 
HETATM   30  C   UNK N   1      23.981  13.264   8.968  0.00  0.00     0.030 A 
HETATM   31  C   UNK N   1      25.133  13.500   8.206  0.00  0.00     0.013 A 
BRANCH  29  32
HETATM   32  N   UNK N   1      21.572  13.609   9.376  0.00  0.00    -0.390 N 
HETATM   33  C   UNK N   1      20.443  14.499   9.286  0.00  0.00     0.149 C 
HETATM   34  C   UNK N   1      21.484  12.480  10.269  0.00  0.00     0.149 C 
ENDBRANCH  29  32
ENDBRANCH  25  26
ENDBRANCH  24  25
ENDBRANCH  22  24
ENDBRANCH  21  22
ENDBRANCH  20  21
ENDBRANCH  19  20
ENDBRANCH  17  19
ENDBRANCH  16  17
BRANCH  16  35
HETATM   35  O   UNK N   1      31.064  18.279   4.040  0.00  0.00    -0.350 OA
HETATM   36  H   UNK N   1      30.490  18.926   3.681  0.00  0.00     0.219 HD
ENDBRANCH  16  35
ENDBRANCH  15  16
ENDBRANCH  14  15
ENDBRANCH  12  14
ENDBRANCH  11  12
BRANCH  11  37
HETATM   37  O   UNK N   1      29.455  16.035   6.458  0.00  0.00    -0.348 OA
HETATM   38  H   UNK N   1      28.756  16.159   5.846  0.00  0.00     0.219 HD
ENDBRANCH  11  37
ENDBRANCH  10  11
BRANCH  10  39
HETATM   39  O   UNK N   1      31.717  17.309   9.003  0.00  0.00    -0.387 OA
HETATM   40  H   UNK N   1      32.168  17.299   9.862  0.00  0.00     0.210 HD
ENDBRANCH  10  39
ENDBRANCH   7  10
ENDBRANCH   6   7
ENDBRANCH   5   6
ENDBRANCH   2   5
BRANCH   2  41
HETATM   41  O   UNK N   1      26.497  18.636   5.185  0.00  0.00    -0.195 OA
BRANCH  41  42
HETATM   42  P   UNK N   1      25.098  19.340   4.422  0.00  0.00     0.401 P 
HETATM   43  O   UNK N   1      25.337  20.413   3.327  0.00  0.00    -0.631 OA
BRANCH  42  44
HETATM   44  O   UNK N   1      25.350  18.130   3.211  0.00  0.00    -0.307 OA
HETATM   45  H   UNK N   1      25.743  17.498   2.589  0.00  0.00     0.222 HD
ENDBRANCH  42  44
BRANCH  42  46
HETATM   46  O   UNK N   1      23.512  18.650   4.558  0.00  0.00    -0.294 OA
BRANCH  46  47
HETATM   47  C   UNK N   1      23.586  17.470   3.824  0.00  0.00     0.215 C 
BRANCH  47  48
HETATM   48  C   UNK N   1      22.218  17.022   3.352  0.00  0.00     0.180 C 
HETATM   49  C   UNK N   1      21.174  18.123   3.197  0.00  0.00     0.197 C 
HETATM   50  C   UNK N   1      19.999  17.211   2.976  0.00  0.00     0.199 C 
HETATM   51  C   UNK N   1      20.249  16.212   4.110  0.00  0.00     0.262 C 
HETATM   52  O   UNK N   1      21.657  16.078   4.238  0.00  0.00    -0.353 OA
BRANCH  49  53
HETATM   53  O   UNK N   1      21.403  18.950   2.075  0.00  0.00    -0.286 OA
BRANCH  53  54
HETATM   54  P   UNK N   1      21.218  20.646   2.492  0.00  0.00     0.391 P 
HETATM   55  O   UNK N   1      20.281  20.707   3.727  0.00  0.00    -0.632 OA
BRANCH  54  56
HETATM   56  O   UNK N   1      20.480  21.623   1.259  0.00  0.00    -0.307 OA
HETATM   57  H   UNK N   1      20.019  22.420   0.952  0.00  0.00     0.222 HD
ENDBRANCH  54  56
BRANCH  54  58
HETATM   58  O   UNK N   1      22.723  21.342   3.004  0.00  0.00    -0.307 OA
HETATM   59  H   UNK N   1      22.739  22.228   3.399  0.00  0.00     0.222 HD
ENDBRANCH  54  58
ENDBRANCH  53  54
ENDBRANCH  49  53
BRANCH  50  60
HETATM   60  O   UNK N   1      18.773  17.873   3.081  0.00  0.00    -0.388 OA
HETATM   61  H   UNK N   1      18.018  17.831   2.474  0.00  0.00     0.210 HD
ENDBRANCH  50  60
BRANCH  51  62
HETATM   62  N   UNK N   1      19.661  14.895   3.858  0.00  0.00    -0.297 N 
HETATM   63  C   UNK N   1      18.808  14.244   4.693  0.00  0.00     0.188 A 
HETATM   64  N   UNK N   1      18.428  13.042   4.182  0.00  0.00    -0.346 N 
HETATM   65  C   UNK N   1      19.079  12.962   3.010  0.00  0.00     0.122 A 
ATOM     66  HN  UNK N   1      17.794  12.358   4.595  1.00  0.00     0.167 HD
HETATM   67  C   UNK N   1      19.087  11.946   2.074  0.00  0.00     0.131 A 
HETATM   68  C   UNK N   1      19.815  14.075   2.811  0.00  0.00     0.142 A 
HETATM   69  N   UNK N   1      19.865  12.107   0.962  0.00  0.00    -0.337 N 
HETATM   70  C   UNK N   1      20.611  13.247   0.780  0.00  0.00     0.183 A 
ATOM     71  HN  UNK N   1      19.893  11.369   0.258  1.00  0.00     0.168 HD
HETATM   72  N   UNK N   1      20.586  14.250   1.714  0.00  0.00    -0.336 N 
ATOM     73  HN  UNK N   1      21.132  15.102   1.585  1.00  0.00     0.168 HD
BRANCH  67  74
HETATM   74  N   UNK N   1      18.327  10.774   2.260  0.00  0.00    -0.383 N 
HETATM   75  H   UNK N   1      17.555  10.542   1.695  0.00  0.00     0.157 HD
HETATM   76  H   UNK N   1      18.578  10.160   2.988  0.00  0.00     0.157 HD
ENDBRANCH  67  74
ENDBRANCH  51  62
ENDBRANCH  47  48
ENDBRANCH  46  47
ENDBRANCH  42  46
ENDBRANCH  41  42
ENDBRANCH   2  41
TORSDOF 35
ENDMDL
