REMARK  15 active torsions:
REMARK  status: ('A' for Active; 'I' for Inactive)
REMARK    1  A    between atoms: C_3  and  C_2 
REMARK    2  A    between atoms: C_4  and  C_2 
REMARK    3  A    between atoms: C_5  and  C_3 
REMARK    4  A    between atoms: C_12  and  C_4 
REMARK    5  A    between atoms: N_16  and  C_5 
REMARK    6  A    between atoms: C_11  and  C_7 
REMARK    7  A    between atoms: C_10  and  C_8 
REMARK    8  A    between atoms: O_26  and  C_8 
REMARK    9  A    between atoms: C_14  and  C_12 
REMARK   10  A    between atoms: C_12  and  N_15 
REMARK   11  A    between atoms: O_20  and  C_13 
REMARK   12  A    between atoms: O_22  and  C_14 
REMARK   13  A    between atoms: P_27  and  O_23 
REMARK   14  A    between atoms: P_27  and  O_24 
REMARK   15  A    between atoms: P_27  and  O_26 
ROOT
HETATM    1  C   UNK N   1      -4.452  -1.154   0.669  0.00  0.00     0.071 C 
HETATM    2  C   UNK N   1      -1.888  -3.793   0.140  0.00  0.00     0.098 A 
HETATM    3  C   UNK N   1      -3.148  -1.802   0.357  0.00  0.00     0.039 A 
HETATM    4  C   UNK N   1      -0.744  -3.079  -0.225  0.00  0.00    -0.004 A 
HETATM    5  C   UNK N   1      -0.803  -1.657  -0.291  0.00  0.00     0.024 A 
HETATM    6  C   UNK N   1      -2.038  -1.032  -0.014  0.00  0.00     0.100 A 
HETATM    7  N   UNK N   1      -3.045  -3.152   0.434  0.00  0.00    -0.367 N 
ATOM      8  HN  UNK N   1      -3.857  -3.698   0.721  1.00  0.00     0.165 HD
ENDROOT
BRANCH   5   9
HETATM    9  C   UNK N   1       0.342  -0.773  -0.697  0.00  0.00     0.097 C 
HETATM   10  N   UNK N   1       1.573  -0.912  -0.328  0.00  0.00    -0.398 N 
ATOM     11  HN  UNK N   1       2.253  -0.254  -0.708  1.00  0.00     0.158 HD
BRANCH  10  12
HETATM   12  C   UNK N   1       2.060  -1.918   0.576  0.00  0.00     0.119 C 
BRANCH  12  13
HETATM   13  C   UNK N   1       3.233  -2.642  -0.047  0.00  0.00     0.020 C 
BRANCH  13  14
HETATM   14  C   UNK N   1       4.006  -3.321   1.065  0.00  0.00     0.004 C 
BRANCH  14  15
HETATM   15  C   UNK N   1       5.439  -3.675   0.668  0.00  0.00     0.035 C 
BRANCH  15  16
HETATM   16  C   UNK N   1       6.195  -2.570  -0.087  0.00  0.00     0.173 C 
BRANCH  16  17
HETATM   17  C   UNK N   1       7.676  -2.821  -0.068  0.00  0.00     0.163 C 
HETATM   18  O   UNK N   1       8.427  -2.052  -0.647  0.00  0.00    -0.648 OA
BRANCH  17  19
HETATM   19  O   UNK N   1       8.191  -3.874   0.599  0.00  0.00    -0.775 OA
HETATM   20  H   UNK N   1       7.735  -4.549   1.063  0.00  0.00     0.167 HD
ENDBRANCH  17  19
ENDBRANCH  16  17
BRANCH  16  21
HETATM   21  N   UNK N   1       5.934  -1.270   0.515  0.00  0.00    -0.418 N 
HETATM   22  H   UNK N   1       6.632  -0.657   0.937  0.00  0.00     0.150 HD
HETATM   23  H   UNK N   1       4.968  -0.943   0.515  0.00  0.00     0.150 HD
ENDBRANCH  16  21
ENDBRANCH  15  16
ENDBRANCH  14  15
ENDBRANCH  13  14
ENDBRANCH  12  13
ENDBRANCH  10  12
ENDBRANCH   5   9
BRANCH   4  24
HETATM   24  C   UNK N   1       0.447  -3.873  -0.659  0.00  0.00     0.221 C 
BRANCH  24  25
HETATM   25  O   UNK N   1       0.870  -4.741   0.354  0.00  0.00    -0.292 OA
BRANCH  25  26
HETATM   26  P   UNK N   1       0.563  -6.342  -0.257  0.00  0.00     0.391 P 
HETATM   27  O   UNK N   1       1.555  -7.296   0.460  0.00  0.00    -0.632 OA
BRANCH  26  28
HETATM   28  O   UNK N   1       0.891  -6.478  -1.958  0.00  0.00    -0.307 OA
HETATM   29  H   UNK N   1       0.916  -6.675  -2.907  0.00  0.00     0.222 HD
ENDBRANCH  26  28
BRANCH  26  30
HETATM   30  O   UNK N   1      -1.036  -6.890   0.136  0.00  0.00    -0.307 OA
HETATM   31  H   UNK N   1      -1.748  -6.269   0.356  0.00  0.00     0.222 HD
ENDBRANCH  26  30
ENDBRANCH  25  26
ENDBRANCH  24  25
ENDBRANCH   4  24
BRANCH   6  32
HETATM   32  O   UNK N   1      -2.154   0.309  -0.088  0.00  0.00    -0.358 OA
HETATM   33  H   UNK N   1      -1.387   0.845  -0.139  0.00  0.00     0.217 HD
ENDBRANCH   6  32
TORSDOF 15
