MODEL 1
REMARK VINA RESULT:      -6.4      0.000      0.000
REMARK  5 active torsions:
REMARK  status: ('A' for Active; 'I' for Inactive)
REMARK    1  A    between atoms: C_3  and  C_1 
REMARK    2  A    between atoms: O_17  and  C_1 
REMARK    3  A    between atoms: C_9  and  C_5 
REMARK    4  A    between atoms: C_7  and  O_18 
REMARK    5  A    between atoms: C_8  and  O_19 
ROOT
HETATM    1  C   UNK N   1      34.242  14.731   6.742  0.00  0.00     0.184 A 
HETATM    2  C   UNK N   1      34.702  15.473   8.910  0.00  0.00     0.094 A 
HETATM    3  C   UNK N   1      34.992  15.492  10.252  0.00  0.00     0.086 A 
HETATM    4  C   UNK N   1      34.610  16.763   8.530  0.00  0.00     0.145 A 
HETATM    5  C   UNK N   1      34.317  17.077   7.212  0.00  0.00     0.276 A 
HETATM    6  N   UNK N   1      34.524  14.442   8.050  0.00  0.00    -0.349 N 
ATOM      7  HN  UNK N   1      34.597  13.476   8.368  1.00  0.00     0.167 HD
HETATM    8  N   UNK N   1      34.137  16.035   6.326  0.00  0.00    -0.318 N 
HETATM    9  N   UNK N   1      35.077  16.789  10.643  0.00  0.00    -0.299 N 
HETATM   10  N   UNK N   1      34.838  17.567   9.586  0.00  0.00    -0.293 N 
ATOM     11  HN  UNK N   1      34.830  18.587   9.578  1.00  0.00     0.187 HD
HETATM   12  O   UNK N   1      34.219  18.232   6.841  0.00  0.00    -0.266 OA
HETATM   13  H   UNK N   1      33.930  16.230   5.384  0.00  0.00     0.169 HD
HETATM   14  H   UNK N   1      35.280  17.102  11.554  0.00  0.00     0.186 HD
ENDROOT
BRANCH   3  15
HETATM   15  C   UNK N   1      35.164  14.301  11.158  0.00  0.00     0.207 C 
HETATM   16  C   UNK N   1      36.488  13.559  10.911  0.00  0.00     0.184 C 
HETATM   17  C   UNK N   1      36.671  12.956  12.274  0.00  0.00     0.180 C 
HETATM   18  C   UNK N   1      36.299  14.165  13.118  0.00  0.00     0.177 C 
HETATM   19  O   UNK N   1      35.137  14.703  12.525  0.00  0.00    -0.367 OA
BRANCH  16  20
HETATM   20  O   UNK N   1      37.528  14.465  10.652  0.00  0.00    -0.390 OA
HETATM   21  H   UNK N   1      38.089  15.245  10.784  0.00  0.00     0.210 HD
ENDBRANCH  16  20
BRANCH  17  22
HETATM   22  O   UNK N   1      37.972  12.505  12.507  0.00  0.00    -0.390 OA
HETATM   23  H   UNK N   1      38.443  11.833  13.024  0.00  0.00     0.210 HD
ENDBRANCH  17  22
BRANCH  18  24
HETATM   24  C   UNK N   1      36.082  13.837  14.590  0.00  0.00     0.198 C 
BRANCH  24  25
HETATM   25  O   UNK N   1      37.298  13.653  15.249  0.00  0.00    -0.398 OA
HETATM   26  H   UNK N   1      38.251  13.618  15.421  0.00  0.00     0.209 HD
ENDBRANCH  24  25
ENDBRANCH  18  24
ENDBRANCH   3  15
TORSDOF 5
ENDMDL
MODEL 2
REMARK VINA RESULT:      -6.3      2.579      6.078
REMARK  5 active torsions:
REMARK  status: ('A' for Active; 'I' for Inactive)
REMARK    1  A    between atoms: C_3  and  C_1 
REMARK    2  A    between atoms: O_17  and  C_1 
REMARK    3  A    between atoms: C_9  and  C_5 
REMARK    4  A    between atoms: C_7  and  O_18 
REMARK    5  A    between atoms: C_8  and  O_19 
ROOT
HETATM    1  C   UNK N   1      34.620  11.568  12.701  0.00  0.00     0.184 A 
HETATM    2  C   UNK N   1      35.411  13.686  12.108  0.00  0.00     0.094 A 
HETATM    3  C   UNK N   1      35.665  14.838  11.405  0.00  0.00     0.086 A 
HETATM    4  C   UNK N   1      36.028  13.831  13.298  0.00  0.00     0.145 A 
HETATM    5  C   UNK N   1      35.961  12.817  14.241  0.00  0.00     0.276 A 
HETATM    6  N   UNK N   1      34.706  12.577  11.780  0.00  0.00    -0.349 N 
ATOM      7  HN  UNK N   1      34.252  12.494  10.871  1.00  0.00     0.167 HD
HETATM    8  N   UNK N   1      35.242  11.685  13.920  0.00  0.00    -0.318 N 
HETATM    9  N   UNK N   1      36.419  15.648  12.190  0.00  0.00    -0.299 N 
HETATM   10  N   UNK N   1      36.644  15.028  13.349  0.00  0.00    -0.293 N 
ATOM     11  HN  UNK N   1      37.185  15.393  14.133  1.00  0.00     0.187 HD
HETATM   12  O   UNK N   1      36.516  12.916  15.320  0.00  0.00    -0.266 OA
HETATM   13  H   UNK N   1      35.176  10.951  14.572  0.00  0.00     0.169 HD
HETATM   14  H   UNK N   1      36.744  16.545  11.944  0.00  0.00     0.186 HD
ENDROOT
BRANCH   3  15
HETATM   15  C   UNK N   1      35.222  15.158  10.002  0.00  0.00     0.207 C 
HETATM   16  C   UNK N   1      33.734  14.845   9.768  0.00  0.00     0.184 C 
HETATM   17  C   UNK N   1      33.465  15.825   8.663  0.00  0.00     0.180 C 
HETATM   18  C   UNK N   1      34.196  17.030   9.233  0.00  0.00     0.177 C 
HETATM   19  O   UNK N   1      35.429  16.537   9.713  0.00  0.00    -0.367 OA
BRANCH  16  20
HETATM   20  O   UNK N   1      32.970  15.182  10.895  0.00  0.00    -0.390 OA
HETATM   21  H   UNK N   1      32.496  15.758  11.516  0.00  0.00     0.210 HD
ENDBRANCH  16  20
BRANCH  17  22
HETATM   22  O   UNK N   1      32.103  16.060   8.455  0.00  0.00    -0.390 OA
HETATM   23  H   UNK N   1      31.457  16.781   8.516  0.00  0.00     0.210 HD
ENDBRANCH  17  22
BRANCH  18  24
HETATM   24  C   UNK N   1      34.392  18.157   8.227  0.00  0.00     0.198 C 
BRANCH  24  25
HETATM   25  O   UNK N   1      35.368  19.055   8.660  0.00  0.00    -0.398 OA
HETATM   26  H   UNK N   1      36.180  19.584   8.686  0.00  0.00     0.209 HD
ENDBRANCH  24  25
ENDBRANCH  18  24
ENDBRANCH   3  15
TORSDOF 5
ENDMDL
MODEL 3
REMARK VINA RESULT:      -6.3     16.536     18.956
REMARK  5 active torsions:
REMARK  status: ('A' for Active; 'I' for Inactive)
REMARK    1  A    between atoms: C_3  and  C_1 
REMARK    2  A    between atoms: O_17  and  C_1 
REMARK    3  A    between atoms: C_9  and  C_5 
REMARK    4  A    between atoms: C_7  and  O_18 
REMARK    5  A    between atoms: C_8  and  O_19 
ROOT
HETATM    1  C   UNK N   1      27.557  21.218  -8.312  0.00  0.00     0.184 A 
HETATM    2  C   UNK N   1      27.443  22.749  -6.549  0.00  0.00     0.094 A 
HETATM    3  C   UNK N   1      27.783  23.542  -5.481  0.00  0.00     0.086 A 
HETATM    4  C   UNK N   1      26.138  22.988  -6.791  0.00  0.00     0.145 A 
HETATM    5  C   UNK N   1      25.491  22.323  -7.821  0.00  0.00     0.276 A 
HETATM    6  N   UNK N   1      28.174  21.877  -7.284  0.00  0.00    -0.349 N 
ATOM      7  HN  UNK N   1      29.160  21.715  -7.076  1.00  0.00     0.167 HD
HETATM    8  N   UNK N   1      26.227  21.436  -8.578  0.00  0.00    -0.318 N 
HETATM    9  N   UNK N   1      26.681  24.242  -5.113  0.00  0.00    -0.299 N 
HETATM   10  N   UNK N   1      25.672  23.898  -5.914  0.00  0.00    -0.293 N 
ATOM     11  HN  UNK N   1      24.718  24.259  -5.871  1.00  0.00     0.187 HD
HETATM   12  O   UNK N   1      24.312  22.512  -8.056  0.00  0.00    -0.266 OA
HETATM   13  H   UNK N   1      25.794  20.953  -9.317  0.00  0.00     0.169 HD
HETATM   14  H   UNK N   1      26.635  24.895  -4.377  0.00  0.00     0.186 HD
ENDROOT
BRANCH   3  15
HETATM   15  C   UNK N   1      29.125  23.619  -4.803  0.00  0.00     0.207 C 
HETATM   16  C   UNK N   1      29.014  24.014  -3.321  0.00  0.00     0.184 C 
HETATM   17  C   UNK N   1      30.275  23.373  -2.817  0.00  0.00     0.180 C 
HETATM   18  C   UNK N   1      30.171  22.044  -3.548  0.00  0.00     0.177 C 
HETATM   19  O   UNK N   1      29.794  22.363  -4.870  0.00  0.00    -0.367 OA
BRANCH  16  20
HETATM   20  O   UNK N   1      27.902  23.404  -2.722  0.00  0.00    -0.390 OA
HETATM   21  H   UNK N   1      27.227  23.240  -2.045  0.00  0.00     0.210 HD
ENDBRANCH  16  20
BRANCH  17  22
HETATM   22  O   UNK N   1      30.304  23.232  -1.427  0.00  0.00    -0.390 OA
HETATM   23  H   UNK N   1      30.288  22.535  -0.752  0.00  0.00     0.210 HD
ENDBRANCH  17  22
BRANCH  18  24
HETATM   24  C   UNK N   1      31.454  21.223  -3.508  0.00  0.00     0.198 C 
BRANCH  24  25
HETATM   25  O   UNK N   1      32.106  21.366  -2.283  0.00  0.00    -0.398 OA
HETATM   26  H   UNK N   1      32.769  21.613  -1.621  0.00  0.00     0.209 HD
ENDBRANCH  24  25
ENDBRANCH  18  24
ENDBRANCH   3  15
TORSDOF 5
ENDMDL
MODEL 4
REMARK VINA RESULT:      -6.3      2.692      5.903
REMARK  5 active torsions:
REMARK  status: ('A' for Active; 'I' for Inactive)
REMARK    1  A    between atoms: C_3  and  C_1 
REMARK    2  A    between atoms: O_17  and  C_1 
REMARK    3  A    between atoms: C_9  and  C_5 
REMARK    4  A    between atoms: C_7  and  O_18 
REMARK    5  A    between atoms: C_8  and  O_19 
ROOT
HETATM    1  C   UNK N   1      38.506  14.013   9.950  0.00  0.00     0.184 A 
HETATM    2  C   UNK N   1      36.206  13.609  10.055  0.00  0.00     0.094 A 
HETATM    3  C   UNK N   1      34.855  13.669   9.816  0.00  0.00     0.086 A 
HETATM    4  C   UNK N   1      36.375  12.674  11.012  0.00  0.00     0.145 A 
HETATM    5  C   UNK N   1      37.647  12.384  11.480  0.00  0.00     0.276 A 
HETATM    6  N   UNK N   1      37.241  14.291   9.509  0.00  0.00    -0.349 N 
ATOM      7  HN  UNK N   1      37.082  14.995   8.787  1.00  0.00     0.167 HD
HETATM    8  N   UNK N   1      38.709  13.070  10.928  0.00  0.00    -0.318 N 
HETATM    9  N   UNK N   1      34.248  12.765  10.626  0.00  0.00    -0.299 N 
HETATM   10  N   UNK N   1      35.180  12.160  11.362  0.00  0.00    -0.293 N 
ATOM     11  HN  UNK N   1      35.019  11.437  12.064  1.00  0.00     0.187 HD
HETATM   12  O   UNK N   1      37.829  11.552  12.350  0.00  0.00    -0.266 OA
HETATM   13  H   UNK N   1      39.623  12.882  11.240  0.00  0.00     0.169 HD
HETATM   14  H   UNK N   1      33.280  12.588  10.663  0.00  0.00     0.186 HD
ENDROOT
BRANCH   3  15
HETATM   15  C   UNK N   1      34.147  14.583   8.852  0.00  0.00     0.207 C 
HETATM   16  C   UNK N   1      32.747  14.988   9.346  0.00  0.00     0.184 C 
HETATM   17  C   UNK N   1      32.620  16.299   8.624  0.00  0.00     0.180 C 
HETATM   18  C   UNK N   1      34.014  16.848   8.886  0.00  0.00     0.177 C 
HETATM   19  O   UNK N   1      34.899  15.775   8.646  0.00  0.00    -0.367 OA
BRANCH  16  20
HETATM   20  O   UNK N   1      32.751  15.211  10.732  0.00  0.00    -0.390 OA
HETATM   21  H   UNK N   1      32.416  15.512  11.591  0.00  0.00     0.210 HD
ENDBRANCH  16  20
BRANCH  17  22
HETATM   22  O   UNK N   1      31.607  17.114   9.135  0.00  0.00    -0.390 OA
HETATM   23  H   UNK N   1      30.744  17.037   9.573  0.00  0.00     0.210 HD
ENDBRANCH  17  22
BRANCH  18  24
HETATM   24  C   UNK N   1      34.359  18.066   8.037  0.00  0.00     0.198 C 
BRANCH  24  25
HETATM   25  O   UNK N   1      35.235  18.917   8.712  0.00  0.00    -0.398 OA
HETATM   26  H   UNK N   1      36.030  19.425   8.934  0.00  0.00     0.209 HD
ENDBRANCH  24  25
ENDBRANCH  18  24
ENDBRANCH   3  15
TORSDOF 5
ENDMDL
MODEL 5
REMARK VINA RESULT:      -6.2      3.116      5.946
REMARK  5 active torsions:
REMARK  status: ('A' for Active; 'I' for Inactive)
REMARK    1  A    between atoms: C_3  and  C_1 
REMARK    2  A    between atoms: O_17  and  C_1 
REMARK    3  A    between atoms: C_9  and  C_5 
REMARK    4  A    between atoms: C_7  and  O_18 
REMARK    5  A    between atoms: C_8  and  O_19 
ROOT
HETATM    1  C   UNK N   1      34.333  10.384  11.331  0.00  0.00     0.184 A 
HETATM    2  C   UNK N   1      35.526  12.317  11.884  0.00  0.00     0.094 A 
HETATM    3  C   UNK N   1      35.871  13.633  12.068  0.00  0.00     0.086 A 
HETATM    4  C   UNK N   1      36.581  11.591  12.305  0.00  0.00     0.145 A 
HETATM    5  C   UNK N   1      36.540  10.207  12.239  0.00  0.00     0.276 A 
HETATM    6  N   UNK N   1      34.397  11.750  11.395  0.00  0.00    -0.349 N 
ATOM      7  HN  UNK N   1      33.615  12.325  11.082  1.00  0.00     0.167 HD
HETATM    8  N   UNK N   1      35.394   9.618  11.747  0.00  0.00    -0.318 N 
HETATM    9  N   UNK N   1      37.118  13.666  12.602  0.00  0.00    -0.299 N 
HETATM   10  N   UNK N   1      37.554  12.413  12.742  0.00  0.00    -0.293 N 
ATOM     11  HN  UNK N   1      38.460  12.128  13.114  1.00  0.00     0.187 HD
HETATM   12  O   UNK N   1      37.481   9.526  12.603  0.00  0.00    -0.266 OA
HETATM   13  H   UNK N   1      35.337   8.638  11.692  0.00  0.00     0.169 HD
HETATM   14  H   UNK N   1      37.617  14.479  12.845  0.00  0.00     0.186 HD
ENDROOT
BRANCH   3  15
HETATM   15  C   UNK N   1      35.044  14.843  11.723  0.00  0.00     0.207 C 
HETATM   16  C   UNK N   1      35.906  16.084  11.441  0.00  0.00     0.184 C 
HETATM   17  C   UNK N   1      34.960  16.820  10.536  0.00  0.00     0.180 C 
HETATM   18  C   UNK N   1      34.506  15.652   9.674  0.00  0.00     0.177 C 
HETATM   19  O   UNK N   1      34.247  14.593  10.569  0.00  0.00    -0.367 OA
BRANCH  16  20
HETATM   20  O   UNK N   1      37.066  15.737  10.731  0.00  0.00    -0.390 OA
HETATM   21  H   UNK N   1      37.949  15.854  10.348  0.00  0.00     0.210 HD
ENDBRANCH  16  20
BRANCH  17  22
HETATM   22  O   UNK N   1      35.578  17.835   9.801  0.00  0.00    -0.390 OA
HETATM   23  H   UNK N   1      36.457  18.085   9.476  0.00  0.00     0.210 HD
ENDBRANCH  17  22
BRANCH  18  24
HETATM   24  C   UNK N   1      33.292  15.970   8.808  0.00  0.00     0.198 C 
BRANCH  24  25
HETATM   25  O   UNK N   1      32.778  17.232   9.105  0.00  0.00    -0.398 OA
HETATM   26  H   UNK N   1      32.180  17.929   9.416  0.00  0.00     0.209 HD
ENDBRANCH  24  25
ENDBRANCH  18  24
ENDBRANCH   3  15
TORSDOF 5
ENDMDL
MODEL 6
REMARK VINA RESULT:      -6.1      1.436      2.276
REMARK  5 active torsions:
REMARK  status: ('A' for Active; 'I' for Inactive)
REMARK    1  A    between atoms: C_3  and  C_1 
REMARK    2  A    between atoms: O_17  and  C_1 
REMARK    3  A    between atoms: C_9  and  C_5 
REMARK    4  A    between atoms: C_7  and  O_18 
REMARK    5  A    between atoms: C_8  and  O_19 
ROOT
HETATM    1  C   UNK N   1      35.342  14.845   6.038  0.00  0.00     0.184 A 
HETATM    2  C   UNK N   1      34.919  16.000   8.026  0.00  0.00     0.094 A 
HETATM    3  C   UNK N   1      34.940  16.389   9.342  0.00  0.00     0.086 A 
HETATM    4  C   UNK N   1      34.085  16.853   7.398  0.00  0.00     0.145 A 
HETATM    5  C   UNK N   1      33.847  16.714   6.039  0.00  0.00     0.276 A 
HETATM    6  N   UNK N   1      35.557  14.994   7.381  0.00  0.00    -0.349 N 
ATOM      7  HN  UNK N   1      36.180  14.362   7.884  1.00  0.00     0.167 HD
HETATM    8  N   UNK N   1      34.494  15.696   5.372  0.00  0.00    -0.318 N 
HETATM    9  N   UNK N   1      34.129  17.469   9.472  0.00  0.00    -0.299 N 
HETATM   10  N   UNK N   1      33.601  17.749   8.279  0.00  0.00    -0.293 N 
ATOM     11  HN  UNK N   1      32.950  18.506   8.071  1.00  0.00     0.187 HD
HETATM   12  O   UNK N   1      33.092  17.464   5.448  0.00  0.00    -0.266 OA
HETATM   13  H   UNK N   1      34.345  15.576   4.407  0.00  0.00     0.169 HD
HETATM   14  H   UNK N   1      33.958  17.961  10.307  0.00  0.00     0.186 HD
ENDROOT
BRANCH   3  15
HETATM   15  C   UNK N   1      35.699  15.736  10.467  0.00  0.00     0.207 C 
HETATM   16  C   UNK N   1      34.795  15.388  11.662  0.00  0.00     0.184 C 
HETATM   17  C   UNK N   1      35.592  14.246  12.227  0.00  0.00     0.180 C 
HETATM   18  C   UNK N   1      35.922  13.526  10.929  0.00  0.00     0.177 C 
HETATM   19  O   UNK N   1      36.317  14.532  10.023  0.00  0.00    -0.367 OA
BRANCH  16  20
HETATM   20  O   UNK N   1      33.546  14.922  11.226  0.00  0.00    -0.390 OA
HETATM   21  H   UNK N   1      32.919  14.385  10.716  0.00  0.00     0.210 HD
ENDBRANCH  16  20
BRANCH  17  22
HETATM   22  O   UNK N   1      34.865  13.457  13.121  0.00  0.00    -0.390 OA
HETATM   23  H   UNK N   1      33.954  13.336  13.432  0.00  0.00     0.210 HD
ENDBRANCH  17  22
BRANCH  18  24
HETATM   24  C   UNK N   1      36.992  12.451  11.083  0.00  0.00     0.198 C 
BRANCH  24  25
HETATM   25  O   UNK N   1      37.699  12.612  12.275  0.00  0.00    -0.398 OA
HETATM   26  H   UNK N   1      38.414  12.577  12.928  0.00  0.00     0.209 HD
ENDBRANCH  24  25
ENDBRANCH  18  24
ENDBRANCH   3  15
TORSDOF 5
ENDMDL
MODEL 7
REMARK VINA RESULT:      -5.8      3.170      6.157
REMARK  5 active torsions:
REMARK  status: ('A' for Active; 'I' for Inactive)
REMARK    1  A    between atoms: C_3  and  C_1 
REMARK    2  A    between atoms: O_17  and  C_1 
REMARK    3  A    between atoms: C_9  and  C_5 
REMARK    4  A    between atoms: C_7  and  O_18 
REMARK    5  A    between atoms: C_8  and  O_19 
ROOT
HETATM    1  C   UNK N   1      34.404  11.020  13.192  0.00  0.00     0.184 A 
HETATM    2  C   UNK N   1      35.483  13.094  13.245  0.00  0.00     0.094 A 
HETATM    3  C   UNK N   1      35.873  14.373  12.936  0.00  0.00     0.086 A 
HETATM    4  C   UNK N   1      36.183  12.745  14.343  0.00  0.00     0.145 A 
HETATM    5  C   UNK N   1      36.011  11.488  14.903  0.00  0.00     0.276 A 
HETATM    6  N   UNK N   1      34.595  12.262  12.649  0.00  0.00    -0.349 N 
ATOM      7  HN  UNK N   1      34.081  12.553  11.817  1.00  0.00     0.167 HD
HETATM    8  N   UNK N   1      35.107  10.635  14.307  0.00  0.00    -0.318 N 
HETATM    9  N   UNK N   1      36.788  14.765  13.858  0.00  0.00    -0.299 N 
HETATM   10  N   UNK N   1      36.980  13.763  14.718  0.00  0.00    -0.293 N 
ATOM     11  HN  UNK N   1      37.616  13.767  15.516  1.00  0.00     0.187 HD
HETATM   12  O   UNK N   1      36.636  11.142  15.889  0.00  0.00    -0.266 OA
HETATM   13  H   UNK N   1      34.964   9.738  14.685  0.00  0.00     0.169 HD
HETATM   14  H   UNK N   1      37.235  15.642  13.887  0.00  0.00     0.186 HD
ENDROOT
BRANCH   3  15
HETATM   15  C   UNK N   1      35.405  15.206  11.772  0.00  0.00     0.207 C 
HETATM   16  C   UNK N   1      36.253  14.980  10.508  0.00  0.00     0.184 C 
HETATM   17  C   UNK N   1      35.224  15.342   9.475  0.00  0.00     0.180 C 
HETATM   18  C   UNK N   1      34.029  14.613  10.069  0.00  0.00     0.177 C 
HETATM   19  O   UNK N   1      34.052  14.902  11.450  0.00  0.00    -0.367 OA
BRANCH  16  20
HETATM   20  O   UNK N   1      36.601  13.628  10.375  0.00  0.00    -0.390 OA
HETATM   21  H   UNK N   1      37.002  12.842   9.971  0.00  0.00     0.210 HD
ENDBRANCH  16  20
BRANCH  17  22
HETATM   22  O   UNK N   1      35.553  14.898   8.192  0.00  0.00    -0.390 OA
HETATM   23  H   UNK N   1      36.336  14.717   7.648  0.00  0.00     0.210 HD
ENDBRANCH  17  22
BRANCH  18  24
HETATM   24  C   UNK N   1      32.700  15.001   9.432  0.00  0.00     0.198 C 
BRANCH  24  25
HETATM   25  O   UNK N   1      31.710  15.177  10.399  0.00  0.00    -0.398 OA
HETATM   26  H   UNK N   1      30.926  15.021  10.947  0.00  0.00     0.209 HD
ENDBRANCH  24  25
ENDBRANCH  18  24
ENDBRANCH   3  15
TORSDOF 5
ENDMDL
MODEL 8
REMARK VINA RESULT:      -5.8     15.982     18.009
REMARK  5 active torsions:
REMARK  status: ('A' for Active; 'I' for Inactive)
REMARK    1  A    between atoms: C_3  and  C_1 
REMARK    2  A    between atoms: O_17  and  C_1 
REMARK    3  A    between atoms: C_9  and  C_5 
REMARK    4  A    between atoms: C_7  and  O_18 
REMARK    5  A    between atoms: C_8  and  O_19 
ROOT
HETATM    1  C   UNK N   1      29.038  27.902  -4.511  0.00  0.00     0.184 A 
HETATM    2  C   UNK N   1      28.775  25.648  -3.949  0.00  0.00     0.094 A 
HETATM    3  C   UNK N   1      29.028  24.316  -3.734  0.00  0.00     0.086 A 
HETATM    4  C   UNK N   1      27.484  25.843  -3.612  0.00  0.00     0.145 A 
HETATM    5  C   UNK N   1      26.921  27.104  -3.728  0.00  0.00     0.276 A 
HETATM    6  N   UNK N   1      29.572  26.647  -4.399  0.00  0.00    -0.349 N 
ATOM      7  HN  UNK N   1      30.545  26.469  -4.648  1.00  0.00     0.167 HD
HETATM    8  N   UNK N   1      27.724  28.130  -4.181  0.00  0.00    -0.318 N 
HETATM    9  N   UNK N   1      27.889  23.746  -3.266  0.00  0.00    -0.299 N 
HETATM   10  N   UNK N   1      26.942  24.682  -3.196  0.00  0.00    -0.293 N 
ATOM     11  HN  UNK N   1      25.981  24.545  -2.884  1.00  0.00     0.187 HD
HETATM   12  O   UNK N   1      25.756  27.308  -3.440  0.00  0.00    -0.266 OA
HETATM   13  H   UNK N   1      27.351  29.036  -4.270  0.00  0.00     0.169 HD
HETATM   14  H   UNK N   1      27.781  22.798  -3.019  0.00  0.00     0.186 HD
ENDROOT
BRANCH   3  15
HETATM   15  C   UNK N   1      30.321  23.587  -3.988  0.00  0.00     0.207 C 
HETATM   16  C   UNK N   1      31.106  23.311  -2.695  0.00  0.00     0.184 C 
HETATM   17  C   UNK N   1      31.868  22.098  -3.145  0.00  0.00     0.180 C 
HETATM   18  C   UNK N   1      30.742  21.362  -3.854  0.00  0.00     0.177 C 
HETATM   19  O   UNK N   1      30.075  22.337  -4.625  0.00  0.00    -0.367 OA
BRANCH  16  20
HETATM   20  O   UNK N   1      30.238  22.963  -1.648  0.00  0.00    -0.390 OA
HETATM   21  H   UNK N   1      29.849  22.994  -0.761  0.00  0.00     0.210 HD
ENDBRANCH  16  20
BRANCH  17  22
HETATM   22  O   UNK N   1      32.417  21.368  -2.087  0.00  0.00    -0.390 OA
HETATM   23  H   UNK N   1      33.280  21.071  -1.760  0.00  0.00     0.210 HD
ENDBRANCH  17  22
BRANCH  18  24
HETATM   24  C   UNK N   1      31.220  20.195  -4.710  0.00  0.00     0.198 C 
BRANCH  24  25
HETATM   25  O   UNK N   1      32.265  19.510  -4.089  0.00  0.00    -0.398 OA
HETATM   26  H   UNK N   1      33.128  19.320  -3.691  0.00  0.00     0.209 HD
ENDBRANCH  24  25
ENDBRANCH  18  24
ENDBRANCH   3  15
TORSDOF 5
ENDMDL
MODEL 9
REMARK VINA RESULT:      -5.5      3.580      6.802
REMARK  5 active torsions:
REMARK  status: ('A' for Active; 'I' for Inactive)
REMARK    1  A    between atoms: C_3  and  C_1 
REMARK    2  A    between atoms: O_17  and  C_1 
REMARK    3  A    between atoms: C_9  and  C_5 
REMARK    4  A    between atoms: C_7  and  O_18 
REMARK    5  A    between atoms: C_8  and  O_19 
ROOT
HETATM    1  C   UNK N   1      33.987  15.121  10.595  0.00  0.00     0.184 A 
HETATM    2  C   UNK N   1      33.575  16.028   8.480  0.00  0.00     0.094 A 
HETATM    3  C   UNK N   1      33.012  16.738   7.449  0.00  0.00     0.086 A 
HETATM    4  C   UNK N   1      34.645  15.394   7.958  0.00  0.00     0.145 A 
HETATM    5  C   UNK N   1      35.428  14.580   8.762  0.00  0.00     0.276 A 
HETATM    6  N   UNK N   1      33.221  15.913   9.783  0.00  0.00    -0.349 N 
ATOM      7  HN  UNK N   1      32.405  16.403  10.149  1.00  0.00     0.167 HD
HETATM    8  N   UNK N   1      35.079  14.459  10.090  0.00  0.00    -0.318 N 
HETATM    9  N   UNK N   1      33.760  16.522   6.337  0.00  0.00    -0.299 N 
HETATM   10  N   UNK N   1      34.758  15.695   6.650  0.00  0.00    -0.293 N 
ATOM     11  HN  UNK N   1      35.478  15.351   6.014  1.00  0.00     0.187 HD
HETATM   12  O   UNK N   1      36.393  13.989   8.315  0.00  0.00    -0.266 OA
HETATM   13  H   UNK N   1      35.619  13.889  10.684  0.00  0.00     0.169 HD
HETATM   14  H   UNK N   1      33.593  16.912   5.448  0.00  0.00     0.186 HD
ENDROOT
BRANCH   3  15
HETATM   15  C   UNK N   1      31.772  17.590   7.507  0.00  0.00     0.207 C 
HETATM   16  C   UNK N   1      30.672  17.095   6.553  0.00  0.00     0.184 C 
HETATM   17  C   UNK N   1      29.475  17.632   7.283  0.00  0.00     0.180 C 
HETATM   18  C   UNK N   1      29.873  17.248   8.700  0.00  0.00     0.177 C 
HETATM   19  O   UNK N   1      31.233  17.602   8.825  0.00  0.00    -0.367 OA
BRANCH  16  20
HETATM   20  O   UNK N   1      30.623  15.693   6.531  0.00  0.00    -0.390 OA
HETATM   21  H   UNK N   1      30.354  14.811   6.230  0.00  0.00     0.210 HD
ENDBRANCH  16  20
BRANCH  17  22
HETATM   22  O   UNK N   1      28.273  17.049   6.875  0.00  0.00    -0.390 OA
HETATM   23  H   UNK N   1      27.934  16.201   6.550  0.00  0.00     0.210 HD
ENDBRANCH  17  22
BRANCH  18  24
HETATM   24  C   UNK N   1      29.016  17.906   9.774  0.00  0.00     0.198 C 
BRANCH  24  25
HETATM   25  O   UNK N   1      27.680  17.976   9.379  0.00  0.00    -0.398 OA
HETATM   26  H   UNK N   1      26.770  18.294   9.276  0.00  0.00     0.209 HD
ENDBRANCH  24  25
ENDBRANCH  18  24
ENDBRANCH   3  15
TORSDOF 5
ENDMDL
