MODEL 1
REMARK VINA RESULT:      -5.9      0.000      0.000
REMARK  8 active torsions:
REMARK  status: ('A' for Active; 'I' for Inactive)
REMARK    1  A    between atoms: C_2  and  C_1 
REMARK    2  A    between atoms: O_12  and  C_1 
REMARK    3  A    between atoms: C_3  and  O_6 
REMARK    4  A    between atoms: C_4  and  O_7 
REMARK    5  A    between atoms: C_5  and  O_8 
REMARK    6  A    between atoms: P_14  and  O_9 
REMARK    7  A    between atoms: P_14  and  O_10 
REMARK    8  A    between atoms: P_14  and  O_12 
ROOT
HETATM    1  C   UNK N   1      34.790  15.543  11.032  0.00  0.00     0.180 C 
HETATM    2  C   UNK N   1      36.224  15.049  10.896  0.00  0.00     0.182 C 
HETATM    3  C   UNK N   1      36.283  14.265  12.170  0.00  0.00     0.204 C 
HETATM    4  C   UNK N   1      34.955  13.529  12.046  0.00  0.00     0.288 C 
HETATM    5  O   UNK N   1      34.022  14.437  11.476  0.00  0.00    -0.349 OA
ENDROOT
BRANCH   1   6
HETATM    6  C   UNK N   1      34.226  16.189   9.768  0.00  0.00     0.215 C 
BRANCH   6   7
HETATM    7  O   UNK N   1      34.780  17.446   9.500  0.00  0.00    -0.294 OA
BRANCH   7   8
HETATM    8  P   UNK N   1      33.853  18.020   8.142  0.00  0.00     0.390 P 
HETATM    9  O   UNK N   1      34.967  19.098   8.229  0.00  0.00    -0.632 OA
BRANCH   8  10
HETATM   10  O   UNK N   1      34.492  18.025   6.528  0.00  0.00    -0.307 OA
HETATM   11  H   UNK N   1      34.108  18.095   5.641  0.00  0.00     0.222 HD
ENDBRANCH   8  10
BRANCH   8  12
HETATM   12  O   UNK N   1      34.576  16.489   7.756  0.00  0.00    -0.307 OA
HETATM   13  H   UNK N   1      34.505  15.651   8.240  0.00  0.00     0.222 HD
ENDBRANCH   8  12
ENDBRANCH   7   8
ENDBRANCH   6   7
ENDBRANCH   1   6
BRANCH   2  14
HETATM   14  O   UNK N   1      37.158  16.086  10.852  0.00  0.00    -0.390 OA
HETATM   15  H   UNK N   1      37.724  16.296  11.611  0.00  0.00     0.210 HD
ENDBRANCH   2  14
BRANCH   3  16
HETATM   16  O   UNK N   1      37.381  13.406  12.246  0.00  0.00    -0.388 OA
HETATM   17  H   UNK N   1      38.024  12.990  12.841  0.00  0.00     0.210 HD
ENDBRANCH   3  16
BRANCH   4  18
HETATM   18  O   UNK N   1      34.520  13.089  13.297  0.00  0.00    -0.369 OA
HETATM   19  H   UNK N   1      34.614  12.176  13.611  0.00  0.00     0.212 HD
ENDBRANCH   4  18
TORSDOF 8
ENDMDL
MODEL 2
REMARK VINA RESULT:      -5.6     16.133     17.659
REMARK  8 active torsions:
REMARK  status: ('A' for Active; 'I' for Inactive)
REMARK    1  A    between atoms: C_2  and  C_1 
REMARK    2  A    between atoms: O_12  and  C_1 
REMARK    3  A    between atoms: C_3  and  O_6 
REMARK    4  A    between atoms: C_4  and  O_7 
REMARK    5  A    between atoms: C_5  and  O_8 
REMARK    6  A    between atoms: P_14  and  O_9 
REMARK    7  A    between atoms: P_14  and  O_10 
REMARK    8  A    between atoms: P_14  and  O_12 
ROOT
HETATM    1  C   UNK N   1      20.315  18.854   3.533  0.00  0.00     0.180 C 
HETATM    2  C   UNK N   1      20.241  18.658   2.024  0.00  0.00     0.182 C 
HETATM    3  C   UNK N   1      20.597  20.056   1.628  0.00  0.00     0.204 C 
HETATM    4  C   UNK N   1      21.791  20.258   2.552  0.00  0.00     0.288 C 
HETATM    5  O   UNK N   1      21.482  19.619   3.783  0.00  0.00    -0.349 OA
ENDROOT
BRANCH   1   6
HETATM    6  C   UNK N   1      20.272  17.556   4.337  0.00  0.00     0.215 C 
BRANCH   6   7
HETATM    7  O   UNK N   1      19.040  16.899   4.253  0.00  0.00    -0.294 OA
BRANCH   7   8
HETATM    8  P   UNK N   1      19.329  15.382   5.059  0.00  0.00     0.390 P 
HETATM    9  O   UNK N   1      18.012  15.843   5.739  0.00  0.00    -0.632 OA
BRANCH   8  10
HETATM   10  O   UNK N   1      18.293  14.008   4.834  0.00  0.00    -0.307 OA
HETATM   11  H   UNK N   1      17.802  13.637   4.085  0.00  0.00     0.222 HD
ENDBRANCH   8  10
BRANCH   8  12
HETATM   12  O   UNK N   1      19.028  15.103   3.373  0.00  0.00    -0.307 OA
HETATM   13  H   UNK N   1      19.133  14.281   2.870  0.00  0.00     0.222 HD
ENDBRANCH   8  12
ENDBRANCH   7   8
ENDBRANCH   6   7
ENDBRANCH   1   6
BRANCH   2  14
HETATM   14  O   UNK N   1      18.972  18.275   1.585  0.00  0.00    -0.390 OA
HETATM   15  H   UNK N   1      18.851  17.694   0.818  0.00  0.00     0.210 HD
ENDBRANCH   2  14
BRANCH   3  16
HETATM   16  O   UNK N   1      20.922  20.187   0.276  0.00  0.00    -0.388 OA
HETATM   17  H   UNK N   1      20.740  19.863  -0.619  0.00  0.00     0.210 HD
ENDBRANCH   3  16
BRANCH   4  18
HETATM   18  O   UNK N   1      22.037  21.619   2.746  0.00  0.00    -0.369 OA
HETATM   19  H   UNK N   1      21.762  22.109   3.537  0.00  0.00     0.212 HD
ENDBRANCH   4  18
TORSDOF 8
ENDMDL
MODEL 3
REMARK VINA RESULT:      -5.5     14.861     16.728
REMARK  8 active torsions:
REMARK  status: ('A' for Active; 'I' for Inactive)
REMARK    1  A    between atoms: C_2  and  C_1 
REMARK    2  A    between atoms: O_12  and  C_1 
REMARK    3  A    between atoms: C_3  and  O_6 
REMARK    4  A    between atoms: C_4  and  O_7 
REMARK    5  A    between atoms: C_5  and  O_8 
REMARK    6  A    between atoms: P_14  and  O_9 
REMARK    7  A    between atoms: P_14  and  O_10 
REMARK    8  A    between atoms: P_14  and  O_12 
ROOT
HETATM    1  C   UNK N   1      20.672  18.889   3.641  0.00  0.00     0.180 C 
HETATM    2  C   UNK N   1      20.475  18.620   2.155  0.00  0.00     0.182 C 
HETATM    3  C   UNK N   1      20.583  20.037   1.684  0.00  0.00     0.204 C 
HETATM    4  C   UNK N   1      21.822  20.445   2.471  0.00  0.00     0.288 C 
HETATM    5  O   UNK N   1      21.735  19.821   3.745  0.00  0.00    -0.349 OA
ENDROOT
BRANCH   1   6
HETATM    6  C   UNK N   1      20.899  17.633   4.480  0.00  0.00     0.215 C 
BRANCH   6   7
HETATM    7  O   UNK N   1      21.503  17.898   5.713  0.00  0.00    -0.294 OA
BRANCH   7   8
HETATM    8  P   UNK N   1      20.477  17.076   6.856  0.00  0.00     0.390 P 
HETATM    9  O   UNK N   1      21.799  16.274   7.000  0.00  0.00    -0.632 OA
BRANCH   8  10
HETATM   10  O   UNK N   1      20.768  17.141   8.567  0.00  0.00    -0.307 OA
HETATM   11  H   UNK N   1      20.256  17.433   9.336  0.00  0.00     0.222 HD
ENDBRANCH   8  10
BRANCH   8  12
HETATM   12  O   UNK N   1      20.748  18.710   7.377  0.00  0.00    -0.307 OA
HETATM   13  H   UNK N   1      20.407  19.153   8.170  0.00  0.00     0.222 HD
ENDBRANCH   8  12
ENDBRANCH   7   8
ENDBRANCH   6   7
ENDBRANCH   1   6
BRANCH   2  14
HETATM   14  O   UNK N   1      19.237  18.043   1.864  0.00  0.00    -0.390 OA
HETATM   15  H   UNK N   1      18.897  17.284   2.363  0.00  0.00     0.210 HD
ENDBRANCH   2  14
BRANCH   3  16
HETATM   16  O   UNK N   1      20.747  20.155   0.302  0.00  0.00    -0.388 OA
HETATM   17  H   UNK N   1      20.294  20.315  -0.540  0.00  0.00     0.210 HD
ENDBRANCH   3  16
BRANCH   4  18
HETATM   18  O   UNK N   1      21.886  21.833   2.601  0.00  0.00    -0.369 OA
HETATM   19  H   UNK N   1      21.184  22.371   3.000  0.00  0.00     0.212 HD
ENDBRANCH   4  18
TORSDOF 8
ENDMDL
MODEL 4
REMARK VINA RESULT:      -5.2     16.017     17.606
REMARK  8 active torsions:
REMARK  status: ('A' for Active; 'I' for Inactive)
REMARK    1  A    between atoms: C_2  and  C_1 
REMARK    2  A    between atoms: O_12  and  C_1 
REMARK    3  A    between atoms: C_3  and  O_6 
REMARK    4  A    between atoms: C_4  and  O_7 
REMARK    5  A    between atoms: C_5  and  O_8 
REMARK    6  A    between atoms: P_14  and  O_9 
REMARK    7  A    between atoms: P_14  and  O_10 
REMARK    8  A    between atoms: P_14  and  O_12 
ROOT
HETATM    1  C   UNK N   1      20.729  17.785   2.630  0.00  0.00     0.180 C 
HETATM    2  C   UNK N   1      20.614  18.970   3.580  0.00  0.00     0.182 C 
HETATM    3  C   UNK N   1      21.118  20.023   2.643  0.00  0.00     0.204 C 
HETATM    4  C   UNK N   1      20.301  19.643   1.414  0.00  0.00     0.288 C 
HETATM    5  O   UNK N   1      20.234  18.224   1.376  0.00  0.00    -0.349 OA
ENDROOT
BRANCH   1   6
HETATM    6  C   UNK N   1      20.045  16.514   3.127  0.00  0.00     0.215 C 
BRANCH   6   7
HETATM    7  O   UNK N   1      19.163  16.744   4.188  0.00  0.00    -0.294 OA
BRANCH   7   8
HETATM    8  P   UNK N   1      19.220  15.258   5.097  0.00  0.00     0.390 P 
HETATM    9  O   UNK N   1      17.945  15.925   5.680  0.00  0.00    -0.632 OA
BRANCH   8  10
HETATM   10  O   UNK N   1      18.026  14.013   4.900  0.00  0.00    -0.307 OA
HETATM   11  H   UNK N   1      17.834  13.174   5.344  0.00  0.00     0.222 HD
ENDBRANCH   8  10
BRANCH   8  12
HETATM   12  O   UNK N   1      18.958  14.911   3.416  0.00  0.00    -0.307 OA
HETATM   13  H   UNK N   1      19.343  15.352   2.643  0.00  0.00     0.222 HD
ENDBRANCH   8  12
ENDBRANCH   7   8
ENDBRANCH   6   7
ENDBRANCH   1   6
BRANCH   2  14
HETATM   14  O   UNK N   1      21.407  18.834   4.722  0.00  0.00    -0.390 OA
HETATM   15  H   UNK N   1      21.786  17.980   4.981  0.00  0.00     0.210 HD
ENDBRANCH   2  14
BRANCH   3  16
HETATM   16  O   UNK N   1      20.873  21.325   3.083  0.00  0.00    -0.388 OA
HETATM   17  H   UNK N   1      20.821  22.256   2.817  0.00  0.00     0.210 HD
ENDBRANCH   3  16
BRANCH   4  18
HETATM   18  O   UNK N   1      20.898  20.143   0.255  0.00  0.00    -0.369 OA
HETATM   19  H   UNK N   1      21.547  19.652  -0.273  0.00  0.00     0.212 HD
ENDBRANCH   4  18
TORSDOF 8
ENDMDL
MODEL 5
REMARK VINA RESULT:      -5.1      1.106      2.374
REMARK  8 active torsions:
REMARK  status: ('A' for Active; 'I' for Inactive)
REMARK    1  A    between atoms: C_2  and  C_1 
REMARK    2  A    between atoms: O_12  and  C_1 
REMARK    3  A    between atoms: C_3  and  O_6 
REMARK    4  A    between atoms: C_4  and  O_7 
REMARK    5  A    between atoms: C_5  and  O_8 
REMARK    6  A    between atoms: P_14  and  O_9 
REMARK    7  A    between atoms: P_14  and  O_10 
REMARK    8  A    between atoms: P_14  and  O_12 
ROOT
HETATM    1  C   UNK N   1      35.196  15.760  10.119  0.00  0.00     0.180 C 
HETATM    2  C   UNK N   1      34.234  15.252  11.185  0.00  0.00     0.182 C 
HETATM    3  C   UNK N   1      35.025  14.052  11.606  0.00  0.00     0.204 C 
HETATM    4  C   UNK N   1      36.392  14.712  11.726  0.00  0.00     0.288 C 
HETATM    5  O   UNK N   1      36.499  15.655  10.668  0.00  0.00    -0.349 OA
ENDROOT
BRANCH   1   6
HETATM    6  C   UNK N   1      34.878  17.163   9.605  0.00  0.00     0.215 C 
BRANCH   6   7
HETATM    7  O   UNK N   1      33.694  17.221   8.863  0.00  0.00    -0.294 OA
BRANCH   7   8
HETATM    8  P   UNK N   1      34.199  16.785   7.254  0.00  0.00     0.390 P 
HETATM    9  O   UNK N   1      32.656  16.841   7.086  0.00  0.00    -0.632 OA
BRANCH   8  10
HETATM   10  O   UNK N   1      34.010  17.864   5.907  0.00  0.00    -0.307 OA
HETATM   11  H   UNK N   1      33.783  17.755   4.971  0.00  0.00     0.222 HD
ENDBRANCH   8  10
BRANCH   8  12
HETATM   12  O   UNK N   1      34.783  18.373   7.644  0.00  0.00    -0.307 OA
HETATM   13  H   UNK N   1      35.562  18.616   8.168  0.00  0.00     0.222 HD
ENDBRANCH   8  12
ENDBRANCH   7   8
ENDBRANCH   6   7
ENDBRANCH   1   6
BRANCH   2  14
HETATM   14  O   UNK N   1      32.977  14.922  10.674  0.00  0.00    -0.390 OA
HETATM   15  H   UNK N   1      32.876  14.411   9.856  0.00  0.00     0.210 HD
ENDBRANCH   2  14
BRANCH   3  16
HETATM   16  O   UNK N   1      34.583  13.485  12.803  0.00  0.00    -0.388 OA
HETATM   17  H   UNK N   1      34.002  12.816  13.198  0.00  0.00     0.210 HD
ENDBRANCH   3  16
BRANCH   4  18
HETATM   18  O   UNK N   1      37.407  13.757  11.644  0.00  0.00    -0.369 OA
HETATM   19  H   UNK N   1      37.387  12.999  11.039  0.00  0.00     0.212 HD
ENDBRANCH   4  18
TORSDOF 8
ENDMDL
MODEL 6
REMARK VINA RESULT:      -5.0      4.689      6.812
REMARK  8 active torsions:
REMARK  status: ('A' for Active; 'I' for Inactive)
REMARK    1  A    between atoms: C_2  and  C_1 
REMARK    2  A    between atoms: O_12  and  C_1 
REMARK    3  A    between atoms: C_3  and  O_6 
REMARK    4  A    between atoms: C_4  and  O_7 
REMARK    5  A    between atoms: C_5  and  O_8 
REMARK    6  A    between atoms: P_14  and  O_9 
REMARK    7  A    between atoms: P_14  and  O_10 
REMARK    8  A    between atoms: P_14  and  O_12 
ROOT
HETATM    1  C   UNK N   1      30.329  17.669   7.485  0.00  0.00     0.180 C 
HETATM    2  C   UNK N   1      29.740  17.745   8.888  0.00  0.00     0.182 C 
HETATM    3  C   UNK N   1      28.330  18.052   8.491  0.00  0.00     0.204 C 
HETATM    4  C   UNK N   1      28.169  17.008   7.393  0.00  0.00     0.288 C 
HETATM    5  O   UNK N   1      29.407  16.934   6.699  0.00  0.00    -0.349 OA
ENDROOT
BRANCH   1   6
HETATM    6  C   UNK N   1      31.745  17.099   7.430  0.00  0.00     0.215 C 
BRANCH   6   7
HETATM    7  O   UNK N   1      32.736  18.070   7.607  0.00  0.00    -0.294 OA
BRANCH   7   8
HETATM    8  P   UNK N   1      34.140  17.144   8.062  0.00  0.00     0.390 P 
HETATM    9  O   UNK N   1      34.793  18.451   7.537  0.00  0.00    -0.632 OA
BRANCH   8  10
HETATM   10  O   UNK N   1      35.159  17.610   9.388  0.00  0.00    -0.307 OA
HETATM   11  H   UNK N   1      35.202  17.383  10.330  0.00  0.00     0.222 HD
ENDBRANCH   8  10
BRANCH   8  12
HETATM   12  O   UNK N   1      33.194  17.511   9.471  0.00  0.00    -0.307 OA
HETATM   13  H   UNK N   1      33.503  17.788  10.348  0.00  0.00     0.222 HD
ENDBRANCH   8  12
ENDBRANCH   7   8
ENDBRANCH   6   7
ENDBRANCH   1   6
BRANCH   2  14
HETATM   14  O   UNK N   1      30.316  18.749   9.669  0.00  0.00    -0.390 OA
HETATM   15  H   UNK N   1      30.627  18.579  10.572  0.00  0.00     0.210 HD
ENDBRANCH   2  14
BRANCH   3  16
HETATM   16  O   UNK N   1      27.411  17.900   9.532  0.00  0.00    -0.388 OA
HETATM   17  H   UNK N   1      27.229  17.448  10.370  0.00  0.00     0.210 HD
ENDBRANCH   3  16
BRANCH   4  18
HETATM   18  O   UNK N   1      27.134  17.362   6.527  0.00  0.00    -0.369 OA
HETATM   19  H   UNK N   1      26.232  17.009   6.590  0.00  0.00     0.212 HD
ENDBRANCH   4  18
TORSDOF 8
ENDMDL
MODEL 7
REMARK VINA RESULT:      -4.9      2.565      5.957
REMARK  8 active torsions:
REMARK  status: ('A' for Active; 'I' for Inactive)
REMARK    1  A    between atoms: C_2  and  C_1 
REMARK    2  A    between atoms: O_12  and  C_1 
REMARK    3  A    between atoms: C_3  and  O_6 
REMARK    4  A    between atoms: C_4  and  O_7 
REMARK    5  A    between atoms: C_5  and  O_8 
REMARK    6  A    between atoms: P_14  and  O_9 
REMARK    7  A    between atoms: P_14  and  O_10 
REMARK    8  A    between atoms: P_14  and  O_12 
ROOT
HETATM    1  C   UNK N   1      34.032  17.422   8.152  0.00  0.00     0.180 C 
HETATM    2  C   UNK N   1      32.711  16.674   8.023  0.00  0.00     0.182 C 
HETATM    3  C   UNK N   1      32.246  17.315   6.753  0.00  0.00     0.204 C 
HETATM    4  C   UNK N   1      33.539  17.205   5.956  0.00  0.00     0.288 C 
HETATM    5  O   UNK N   1      34.611  17.443   6.858  0.00  0.00    -0.349 OA
ENDROOT
BRANCH   1   6
HETATM    6  C   UNK N   1      34.972  16.856   9.215  0.00  0.00     0.215 C 
BRANCH   6   7
HETATM    7  O   UNK N   1      34.316  16.520  10.404  0.00  0.00    -0.294 OA
BRANCH   7   8
HETATM    8  P   UNK N   1      34.825  14.880  10.702  0.00  0.00     0.390 P 
HETATM    9  O   UNK N   1      35.643  15.653  11.772  0.00  0.00    -0.632 OA
BRANCH   8  10
HETATM   10  O   UNK N   1      34.413  14.040  12.163  0.00  0.00    -0.307 OA
HETATM   11  H   UNK N   1      33.645  14.033  12.755  0.00  0.00     0.222 HD
ENDBRANCH   8  10
BRANCH   8  12
HETATM   12  O   UNK N   1      33.133  15.045  11.055  0.00  0.00    -0.307 OA
HETATM   13  H   UNK N   1      32.718  15.404  11.854  0.00  0.00     0.222 HD
ENDBRANCH   8  12
ENDBRANCH   7   8
ENDBRANCH   6   7
ENDBRANCH   1   6
BRANCH   2  14
HETATM   14  O   UNK N   1      31.847  16.903   9.096  0.00  0.00    -0.390 OA
HETATM   15  H   UNK N   1      32.164  16.916  10.013  0.00  0.00     0.210 HD
ENDBRANCH   2  14
BRANCH   3  16
HETATM   16  O   UNK N   1      31.174  16.652   6.153  0.00  0.00    -0.388 OA
HETATM   17  H   UNK N   1      30.216  16.502   6.183  0.00  0.00     0.210 HD
ENDBRANCH   3  16
BRANCH   4  18
HETATM   18  O   UNK N   1      33.553  18.133   4.913  0.00  0.00    -0.369 OA
HETATM   19  H   UNK N   1      32.757  18.433   4.447  0.00  0.00     0.212 HD
ENDBRANCH   4  18
TORSDOF 8
ENDMDL
MODEL 8
REMARK VINA RESULT:      -4.9      3.348      5.246
REMARK  8 active torsions:
REMARK  status: ('A' for Active; 'I' for Inactive)
REMARK    1  A    between atoms: C_2  and  C_1 
REMARK    2  A    between atoms: O_12  and  C_1 
REMARK    3  A    between atoms: C_3  and  O_6 
REMARK    4  A    between atoms: C_4  and  O_7 
REMARK    5  A    between atoms: C_5  and  O_8 
REMARK    6  A    between atoms: P_14  and  O_9 
REMARK    7  A    between atoms: P_14  and  O_10 
REMARK    8  A    between atoms: P_14  and  O_12 
ROOT
HETATM    1  C   UNK N   1      34.349  16.691   6.716  0.00  0.00     0.180 C 
HETATM    2  C   UNK N   1      33.885  16.143   8.060  0.00  0.00     0.182 C 
HETATM    3  C   UNK N   1      34.712  17.036   8.931  0.00  0.00     0.204 C 
HETATM    4  C   UNK N   1      34.422  18.361   8.239  0.00  0.00     0.288 C 
HETATM    5  O   UNK N   1      34.368  18.103   6.843  0.00  0.00    -0.349 OA
ENDROOT
BRANCH   1   6
HETATM    6  C   UNK N   1      33.522  16.212   5.525  0.00  0.00     0.215 C 
BRANCH   6   7
HETATM    7  O   UNK N   1      32.824  17.245   4.890  0.00  0.00    -0.294 OA
BRANCH   7   8
HETATM    8  P   UNK N   1      31.331  16.489   4.403  0.00  0.00     0.390 P 
HETATM    9  O   UNK N   1      30.862  17.339   5.615  0.00  0.00    -0.632 OA
BRANCH   8  10
HETATM   10  O   UNK N   1      30.015  17.401   3.732  0.00  0.00    -0.307 OA
HETATM   11  H   UNK N   1      29.881  17.911   2.919  0.00  0.00     0.222 HD
ENDBRANCH   8  10
BRANCH   8  12
HETATM   12  O   UNK N   1      31.890  17.553   3.149  0.00  0.00    -0.307 OA
HETATM   13  H   UNK N   1      32.556  17.380   2.466  0.00  0.00     0.222 HD
ENDBRANCH   8  12
ENDBRANCH   7   8
ENDBRANCH   6   7
ENDBRANCH   1   6
BRANCH   2  14
HETATM   14  O   UNK N   1      34.183  14.789   8.229  0.00  0.00    -0.390 OA
HETATM   15  H   UNK N   1      33.601  14.196   8.730  0.00  0.00     0.210 HD
ENDBRANCH   2  14
BRANCH   3  16
HETATM   16  O   UNK N   1      34.323  17.021  10.273  0.00  0.00    -0.388 OA
HETATM   17  H   UNK N   1      34.497  17.388  11.154  0.00  0.00     0.210 HD
ENDBRANCH   3  16
BRANCH   4  18
HETATM   18  O   UNK N   1      35.417  19.296   8.534  0.00  0.00    -0.369 OA
HETATM   19  H   UNK N   1      35.244  20.238   8.685  0.00  0.00     0.212 HD
ENDBRANCH   4  18
TORSDOF 8
ENDMDL
MODEL 9
REMARK VINA RESULT:      -4.9     13.919     16.254
REMARK  8 active torsions:
REMARK  status: ('A' for Active; 'I' for Inactive)
REMARK    1  A    between atoms: C_2  and  C_1 
REMARK    2  A    between atoms: O_12  and  C_1 
REMARK    3  A    between atoms: C_3  and  O_6 
REMARK    4  A    between atoms: C_4  and  O_7 
REMARK    5  A    between atoms: C_5  and  O_8 
REMARK    6  A    between atoms: P_14  and  O_9 
REMARK    7  A    between atoms: P_14  and  O_10 
REMARK    8  A    between atoms: P_14  and  O_12 
ROOT
HETATM    1  C   UNK N   1      20.577  18.932   3.654  0.00  0.00     0.180 C 
HETATM    2  C   UNK N   1      20.449  18.589   2.175  0.00  0.00     0.182 C 
HETATM    3  C   UNK N   1      20.538  19.985   1.642  0.00  0.00     0.204 C 
HETATM    4  C   UNK N   1      21.731  20.466   2.458  0.00  0.00     0.288 C 
HETATM    5  O   UNK N   1      21.607  19.900   3.756  0.00  0.00    -0.349 OA
ENDROOT
BRANCH   1   6
HETATM    6  C   UNK N   1      20.803  17.724   4.560  0.00  0.00     0.215 C 
BRANCH   6   7
HETATM    7  O   UNK N   1      21.847  17.910   5.472  0.00  0.00    -0.294 OA
BRANCH   7   8
HETATM    8  P   UNK N   1      22.968  16.636   5.075  0.00  0.00     0.390 P 
HETATM    9  O   UNK N   1      23.910  17.869   5.124  0.00  0.00    -0.632 OA
BRANCH   8  10
HETATM   10  O   UNK N   1      24.201  16.118   6.181  0.00  0.00    -0.307 OA
HETATM   11  H   UNK N   1      25.164  16.019   6.134  0.00  0.00     0.222 HD
ENDBRANCH   8  10
BRANCH   8  12
HETATM   12  O   UNK N   1      22.307  16.367   6.658  0.00  0.00    -0.307 OA
HETATM   13  H   UNK N   1      22.242  15.533   7.149  0.00  0.00     0.222 HD
ENDBRANCH   8  12
ENDBRANCH   7   8
ENDBRANCH   6   7
ENDBRANCH   1   6
BRANCH   2  14
HETATM   14  O   UNK N   1      19.241  17.962   1.861  0.00  0.00    -0.390 OA
HETATM   15  H   UNK N   1      19.124  17.004   1.954  0.00  0.00     0.210 HD
ENDBRANCH   2  14
BRANCH   3  16
HETATM   16  O   UNK N   1      20.757  20.044   0.264  0.00  0.00    -0.388 OA
HETATM   17  H   UNK N   1      20.735  19.542  -0.565  0.00  0.00     0.210 HD
ENDBRANCH   3  16
BRANCH   4  18
HETATM   18  O   UNK N   1      21.750  21.860   2.524  0.00  0.00    -0.369 OA
HETATM   19  H   UNK N   1      21.008  22.396   2.843  0.00  0.00     0.212 HD
ENDBRANCH   4  18
TORSDOF 8
ENDMDL
