MODEL 1
REMARK VINA RESULT:      -5.8      0.000      0.000
REMARK  5 active torsions:
REMARK  status: ('A' for Active; 'I' for Inactive)
REMARK    1  A    between atoms: C_6  and  C_4 
REMARK    2  A    between atoms: C_8  and  C_4 
REMARK    3  A    between atoms: C_10  and  C_8 
REMARK    4  A    between atoms: C_8  and  N_11 
REMARK    5  A    between atoms: O_16  and  C_10 
ROOT
HETATM    1  C   UNK N   1      28.962  16.395   5.861  0.00  0.00     0.018 A 
HETATM    2  C   UNK N   1      30.008  17.029   6.561  0.00  0.00     0.017 A 
HETATM    3  C   UNK N   1      27.668  16.338   6.430  0.00  0.00     0.089 A 
HETATM    4  C   UNK N   1      29.596  18.589   9.772  0.00  0.00     0.097 A 
HETATM    5  C   UNK N   1      30.460  18.269   8.726  0.00  0.00    -0.026 A 
HETATM    6  C   UNK N   1      29.707  17.575   7.803  0.00  0.00     0.016 A 
HETATM    7  C   UNK N   1      28.446  17.497   8.317  0.00  0.00     0.115 A 
HETATM    8  N   UNK N   1      27.425  16.892   7.656  0.00  0.00    -0.352 N 
ATOM      9  HN  UNK N   1      26.493  16.852   8.067  1.00  0.00     0.166 HD
HETATM   10  N   UNK N   1      28.356  18.100   9.511  0.00  0.00    -0.351 N 
HETATM   11  H   UNK N   1      27.556  18.173  10.081  0.00  0.00     0.166 HD
ENDROOT
BRANCH   5  12
HETATM   12  C   UNK N   1      31.907  18.679   8.617  0.00  0.00     0.076 C 
BRANCH  12  13
HETATM   13  C   UNK N   1      32.861  17.531   8.253  0.00  0.00     0.177 C 
BRANCH  13  14
HETATM   14  C   UNK N   1      34.127  18.088   7.649  0.00  0.00     0.163 C 
HETATM   15  O   UNK N   1      34.500  17.728   6.541  0.00  0.00    -0.648 OA
BRANCH  14  16
HETATM   16  O   UNK N   1      34.850  19.000   8.325  0.00  0.00    -0.775 OA
HETATM   17  H   UNK N   1      34.431  19.749   8.699  0.00  0.00     0.167 HD
ENDBRANCH  14  16
ENDBRANCH  13  14
BRANCH  13  18
HETATM   18  N   UNK N   1      33.184  16.753   9.441  0.00  0.00    -0.417 N 
HETATM   19  H   UNK N   1      32.534  16.727  10.226  0.00  0.00     0.150 HD
HETATM   20  H   UNK N   1      34.061  16.234   9.488  0.00  0.00     0.150 HD
ENDBRANCH  13  18
ENDBRANCH  12  13
ENDBRANCH   5  12
TORSDOF 5
ENDMDL
MODEL 2
REMARK VINA RESULT:      -5.8     10.516     11.957
REMARK  5 active torsions:
REMARK  status: ('A' for Active; 'I' for Inactive)
REMARK    1  A    between atoms: C_6  and  C_4 
REMARK    2  A    between atoms: C_8  and  C_4 
REMARK    3  A    between atoms: C_10  and  C_8 
REMARK    4  A    between atoms: C_8  and  N_11 
REMARK    5  A    between atoms: O_16  and  C_10 
ROOT
HETATM    1  C   UNK N   1      35.471   9.714  18.783  0.00  0.00     0.018 A 
HETATM    2  C   UNK N   1      35.349  10.605  17.698  0.00  0.00     0.017 A 
HETATM    3  C   UNK N   1      35.526  10.217  20.104  0.00  0.00     0.089 A 
HETATM    4  C   UNK N   1      35.124  14.173  18.069  0.00  0.00     0.097 A 
HETATM    5  C   UNK N   1      35.150  13.083  17.199  0.00  0.00    -0.026 A 
HETATM    6  C   UNK N   1      35.290  11.963  17.990  0.00  0.00     0.016 A 
HETATM    7  C   UNK N   1      35.348  12.407  19.279  0.00  0.00     0.115 A 
HETATM    8  N   UNK N   1      35.463  11.563  20.336  0.00  0.00    -0.352 N 
ATOM      9  HN  UNK N   1      35.503  11.926  21.288  1.00  0.00     0.166 HD
HETATM   10  N   UNK N   1      35.254  13.742  19.350  0.00  0.00    -0.351 N 
HETATM   11  H   UNK N   1      35.276  14.297  20.164  0.00  0.00     0.166 HD
ENDROOT
BRANCH   5  12
HETATM   12  C   UNK N   1      34.982  13.142  15.702  0.00  0.00     0.076 C 
BRANCH  12  13
HETATM   13  C   UNK N   1      36.304  13.191  14.921  0.00  0.00     0.177 C 
BRANCH  13  14
HETATM   14  C   UNK N   1      36.034  13.525  13.474  0.00  0.00     0.163 C 
HETATM   15  O   UNK N   1      34.889  13.554  13.045  0.00  0.00    -0.648 OA
BRANCH  14  16
HETATM   16  O   UNK N   1      37.057  13.808  12.647  0.00  0.00    -0.775 OA
HETATM   17  H   UNK N   1      37.503  14.629  12.715  0.00  0.00     0.167 HD
ENDBRANCH  14  16
ENDBRANCH  13  14
BRANCH  13  18
HETATM   18  N   UNK N   1      37.190  14.193  15.499  0.00  0.00    -0.417 N 
HETATM   19  H   UNK N   1      37.997  14.525  14.971  0.00  0.00     0.150 HD
HETATM   20  H   UNK N   1      37.003  14.563  16.431  0.00  0.00     0.150 HD
ENDBRANCH  13  18
ENDBRANCH  12  13
ENDBRANCH   5  12
TORSDOF 5
ENDMDL
MODEL 3
REMARK VINA RESULT:      -5.7      7.088      8.907
REMARK  5 active torsions:
REMARK  status: ('A' for Active; 'I' for Inactive)
REMARK    1  A    between atoms: C_6  and  C_4 
REMARK    2  A    between atoms: C_8  and  C_4 
REMARK    3  A    between atoms: C_10  and  C_8 
REMARK    4  A    between atoms: C_8  and  N_11 
REMARK    5  A    between atoms: O_16  and  C_10 
ROOT
HETATM    1  C   UNK N   1      34.115  10.486  14.595  0.00  0.00     0.018 A 
HETATM    2  C   UNK N   1      34.438  11.414  13.585  0.00  0.00     0.017 A 
HETATM    3  C   UNK N   1      34.622  10.665  15.904  0.00  0.00     0.089 A 
HETATM    4  C   UNK N   1      36.495  14.311  14.129  0.00  0.00     0.097 A 
HETATM    5  C   UNK N   1      35.744  13.558  13.227  0.00  0.00    -0.026 A 
HETATM    6  C   UNK N   1      35.260  12.479  13.936  0.00  0.00     0.016 A 
HETATM    7  C   UNK N   1      35.729  12.614  15.209  0.00  0.00     0.115 A 
HETATM    8  N   UNK N   1      35.427  11.731  16.195  0.00  0.00    -0.352 N 
ATOM      9  HN  UNK N   1      35.793  11.860  17.138  1.00  0.00     0.166 HD
HETATM   10  N   UNK N   1      36.484  13.713  15.348  0.00  0.00    -0.351 N 
HETATM   11  H   UNK N   1      36.937  14.024  16.166  0.00  0.00     0.166 HD
ENDROOT
BRANCH   5  12
HETATM   12  C   UNK N   1      35.473  13.915  11.788  0.00  0.00     0.076 C 
BRANCH  12  13
HETATM   13  C   UNK N   1      34.830  15.296  11.591  0.00  0.00     0.177 C 
BRANCH  13  14
HETATM   14  C   UNK N   1      35.810  16.228  10.919  0.00  0.00     0.163 C 
HETATM   15  O   UNK N   1      35.442  17.308  10.481  0.00  0.00    -0.648 OA
BRANCH  14  16
HETATM   16  O   UNK N   1      37.105  15.878  10.812  0.00  0.00    -0.775 OA
HETATM   17  H   UNK N   1      37.739  16.505  10.523  0.00  0.00     0.167 HD
ENDBRANCH  14  16
ENDBRANCH  13  14
BRANCH  13  18
HETATM   18  N   UNK N   1      33.628  15.178  10.776  0.00  0.00    -0.417 N 
HETATM   19  H   UNK N   1      33.004  14.381  10.902  0.00  0.00     0.150 HD
HETATM   20  H   UNK N   1      33.411  15.892  10.081  0.00  0.00     0.150 HD
ENDBRANCH  13  18
ENDBRANCH  12  13
ENDBRANCH   5  12
TORSDOF 5
ENDMDL
MODEL 4
REMARK VINA RESULT:      -5.7      8.393     10.849
REMARK  5 active torsions:
REMARK  status: ('A' for Active; 'I' for Inactive)
REMARK    1  A    between atoms: C_6  and  C_4 
REMARK    2  A    between atoms: C_8  and  C_4 
REMARK    3  A    between atoms: C_10  and  C_8 
REMARK    4  A    between atoms: C_8  and  N_11 
REMARK    5  A    between atoms: O_16  and  C_10 
ROOT
HETATM    1  C   UNK N   1      25.163  20.422   3.285  0.00  0.00     0.018 A 
HETATM    2  C   UNK N   1      23.926  19.860   2.911  0.00  0.00     0.017 A 
HETATM    3  C   UNK N   1      25.749  20.072   4.524  0.00  0.00     0.089 A 
HETATM    4  C   UNK N   1      22.120  17.501   4.934  0.00  0.00     0.097 A 
HETATM    5  C   UNK N   1      22.167  18.238   3.752  0.00  0.00    -0.026 A 
HETATM    6  C   UNK N   1      23.332  18.973   3.802  0.00  0.00     0.016 A 
HETATM    7  C   UNK N   1      23.931  18.664   4.988  0.00  0.00     0.115 A 
HETATM    8  N   UNK N   1      25.123  19.194   5.364  0.00  0.00    -0.352 N 
ATOM      9  HN  UNK N   1      25.544  18.942   6.257  1.00  0.00     0.166 HD
HETATM   10  N   UNK N   1      23.212  17.778   5.692  0.00  0.00    -0.351 N 
HETATM   11  H   UNK N   1      23.430  17.405   6.578  0.00  0.00     0.166 HD
ENDROOT
BRANCH   5  12
HETATM   12  C   UNK N   1      21.165  18.170   2.627  0.00  0.00     0.076 C 
BRANCH  12  13
HETATM   13  C   UNK N   1      20.228  19.384   2.543  0.00  0.00     0.177 C 
BRANCH  13  14
HETATM   14  C   UNK N   1      20.622  20.259   1.378  0.00  0.00     0.163 C 
HETATM   15  O   UNK N   1      21.023  21.399   1.562  0.00  0.00    -0.648 OA
BRANCH  14  16
HETATM   16  O   UNK N   1      20.547  19.780   0.122  0.00  0.00    -0.775 OA
HETATM   17  H   UNK N   1      20.684  20.352  -0.608  0.00  0.00     0.167 HD
ENDBRANCH  14  16
ENDBRANCH  13  14
BRANCH  13  18
HETATM   18  N   UNK N   1      18.849  18.942   2.380  0.00  0.00    -0.417 N 
HETATM   19  H   UNK N   1      18.637  18.146   1.778  0.00  0.00     0.150 HD
HETATM   20  H   UNK N   1      18.096  19.427   2.868  0.00  0.00     0.150 HD
ENDBRANCH  13  18
ENDBRANCH  12  13
ENDBRANCH   5  12
TORSDOF 5
ENDMDL
MODEL 5
REMARK VINA RESULT:      -5.5      4.415      7.240
REMARK  5 active torsions:
REMARK  status: ('A' for Active; 'I' for Inactive)
REMARK    1  A    between atoms: C_6  and  C_4 
REMARK    2  A    between atoms: C_8  and  C_4 
REMARK    3  A    between atoms: C_10  and  C_8 
REMARK    4  A    between atoms: C_8  and  N_11 
REMARK    5  A    between atoms: O_16  and  C_10 
ROOT
HETATM    1  C   UNK N   1      37.511  12.259   8.595  0.00  0.00     0.018 A 
HETATM    2  C   UNK N   1      36.587  13.306   8.413  0.00  0.00     0.017 A 
HETATM    3  C   UNK N   1      38.230  12.157   9.810  0.00  0.00     0.089 A 
HETATM    4  C   UNK N   1      35.879  15.791  10.912  0.00  0.00     0.097 A 
HETATM    5  C   UNK N   1      35.614  15.307   9.632  0.00  0.00    -0.026 A 
HETATM    6  C   UNK N   1      36.427  14.207   9.461  0.00  0.00     0.016 A 
HETATM    7  C   UNK N   1      37.141  14.073  10.616  0.00  0.00     0.115 A 
HETATM    8  N   UNK N   1      38.035  13.070  10.809  0.00  0.00    -0.352 N 
ATOM      9  HN  UNK N   1      38.552  12.997  11.684  1.00  0.00     0.166 HD
HETATM   10  N   UNK N   1      36.829  15.025  11.506  0.00  0.00    -0.351 N 
HETATM   11  H   UNK N   1      37.210  15.145  12.407  0.00  0.00     0.166 HD
ENDROOT
BRANCH   5  12
HETATM   12  C   UNK N   1      34.585  15.853   8.674  0.00  0.00     0.076 C 
BRANCH  12  13
HETATM   13  C   UNK N   1      34.055  17.246   9.044  0.00  0.00     0.177 C 
BRANCH  13  14
HETATM   14  C   UNK N   1      34.619  18.278   8.098  0.00  0.00     0.163 C 
HETATM   15  O   UNK N   1      35.259  19.230   8.523  0.00  0.00    -0.648 OA
BRANCH  14  16
HETATM   16  O   UNK N   1      34.430  18.149   6.772  0.00  0.00    -0.775 OA
HETATM   17  H   UNK N   1      35.084  18.450   6.172  0.00  0.00     0.167 HD
ENDBRANCH  14  16
ENDBRANCH  13  14
BRANCH  13  18
HETATM   18  N   UNK N   1      32.600  17.262   8.978  0.00  0.00    -0.417 N 
HETATM   19  H   UNK N   1      32.093  18.136   9.120  0.00  0.00     0.150 HD
HETATM   20  H   UNK N   1      32.088  16.400   8.790  0.00  0.00     0.150 HD
ENDBRANCH  13  18
ENDBRANCH  12  13
ENDBRANCH   5  12
TORSDOF 5
ENDMDL
MODEL 6
REMARK VINA RESULT:      -5.4      9.808     11.273
REMARK  5 active torsions:
REMARK  status: ('A' for Active; 'I' for Inactive)
REMARK    1  A    between atoms: C_6  and  C_4 
REMARK    2  A    between atoms: C_8  and  C_4 
REMARK    3  A    between atoms: C_10  and  C_8 
REMARK    4  A    between atoms: C_8  and  N_11 
REMARK    5  A    between atoms: O_16  and  C_10 
ROOT
HETATM    1  C   UNK N   1      24.086  12.474   9.723  0.00  0.00     0.018 A 
HETATM    2  C   UNK N   1      23.310  13.551   9.253  0.00  0.00     0.017 A 
HETATM    3  C   UNK N   1      23.507  11.509  10.579  0.00  0.00     0.089 A 
HETATM    4  C   UNK N   1      19.842  14.012  10.079  0.00  0.00     0.097 A 
HETATM    5  C   UNK N   1      20.958  14.490   9.392  0.00  0.00    -0.026 A 
HETATM    6  C   UNK N   1      21.984  13.612   9.669  0.00  0.00     0.016 A 
HETATM    7  C   UNK N   1      21.465  12.661  10.497  0.00  0.00     0.115 A 
HETATM    8  N   UNK N   1      22.198  11.616  10.958  0.00  0.00    -0.352 N 
ATOM      9  HN  UNK N   1      21.779  10.921  11.576  1.00  0.00     0.166 HD
HETATM   10  N   UNK N   1      20.170  12.886  10.763  0.00  0.00    -0.351 N 
HETATM   11  H   UNK N   1      19.578  12.347  11.337  0.00  0.00     0.166 HD
ENDROOT
BRANCH   5  12
HETATM   12  C   UNK N   1      20.988  15.688   8.478  0.00  0.00     0.076 C 
BRANCH  12  13
HETATM   13  C   UNK N   1      19.604  16.274   8.159  0.00  0.00     0.177 C 
BRANCH  13  14
HETATM   14  C   UNK N   1      19.525  17.699   8.646  0.00  0.00     0.163 C 
HETATM   15  O   UNK N   1      20.392  18.509   8.350  0.00  0.00    -0.648 OA
BRANCH  14  16
HETATM   16  O   UNK N   1      18.484  18.095   9.403  0.00  0.00    -0.775 OA
HETATM   17  H   UNK N   1      17.680  17.614   9.385  0.00  0.00     0.167 HD
ENDBRANCH  14  16
ENDBRANCH  13  14
BRANCH  13  18
HETATM   18  N   UNK N   1      19.361  16.231   6.723  0.00  0.00    -0.417 N 
HETATM   19  H   UNK N   1      19.236  17.099   6.202  0.00  0.00     0.150 HD
HETATM   20  H   UNK N   1      19.317  15.334   6.239  0.00  0.00     0.150 HD
ENDBRANCH  13  18
ENDBRANCH  12  13
ENDBRANCH   5  12
TORSDOF 5
ENDMDL
MODEL 7
REMARK VINA RESULT:      -5.4     16.192     17.266
REMARK  5 active torsions:
REMARK  status: ('A' for Active; 'I' for Inactive)
REMARK    1  A    between atoms: C_6  and  C_4 
REMARK    2  A    between atoms: C_8  and  C_4 
REMARK    3  A    between atoms: C_10  and  C_8 
REMARK    4  A    between atoms: C_8  and  N_11 
REMARK    5  A    between atoms: O_16  and  C_10 
ROOT
HETATM    1  C   UNK N   1      28.422  29.138  -7.049  0.00  0.00     0.018 A 
HETATM    2  C   UNK N   1      27.460  28.135  -6.821  0.00  0.00     0.017 A 
HETATM    3  C   UNK N   1      28.596  30.176  -6.104  0.00  0.00     0.089 A 
HETATM    4  C   UNK N   1      25.378  28.005  -3.894  0.00  0.00     0.097 A 
HETATM    5  C   UNK N   1      25.730  27.421  -5.110  0.00  0.00    -0.026 A 
HETATM    6  C   UNK N   1      26.713  28.221  -5.651  0.00  0.00     0.016 A 
HETATM    7  C   UNK N   1      26.911  29.239  -4.766  0.00  0.00     0.115 A 
HETATM    8  N   UNK N   1      27.834  30.214  -4.969  0.00  0.00    -0.352 N 
ATOM      9  HN  UNK N   1      27.958  30.961  -4.288  1.00  0.00     0.166 HD
HETATM   10  N   UNK N   1      26.110  29.132  -3.696  0.00  0.00    -0.351 N 
HETATM   11  H   UNK N   1      26.061  29.744  -2.926  0.00  0.00     0.166 HD
ENDROOT
BRANCH   5  12
HETATM   12  C   UNK N   1      25.181  26.130  -5.663  0.00  0.00     0.076 C 
BRANCH  12  13
HETATM   13  C   UNK N   1      26.192  24.974  -5.689  0.00  0.00     0.177 C 
BRANCH  13  14
HETATM   14  C   UNK N   1      26.787  24.780  -4.316  0.00  0.00     0.163 C 
HETATM   15  O   UNK N   1      26.125  24.285  -3.414  0.00  0.00    -0.648 OA
BRANCH  14  16
HETATM   16  O   UNK N   1      28.062  25.140  -4.077  0.00  0.00    -0.775 OA
HETATM   17  H   UNK N   1      28.254  25.778  -3.418  0.00  0.00     0.167 HD
ENDBRANCH  14  16
ENDBRANCH  13  14
BRANCH  13  18
HETATM   18  N   UNK N   1      25.538  23.746  -6.119  0.00  0.00    -0.417 N 
HETATM   19  H   UNK N   1      26.053  23.060  -6.671  0.00  0.00     0.150 HD
HETATM   20  H   UNK N   1      24.564  23.571  -5.868  0.00  0.00     0.150 HD
ENDBRANCH  13  18
ENDBRANCH  12  13
ENDBRANCH   5  12
TORSDOF 5
ENDMDL
MODEL 8
REMARK VINA RESULT:      -5.3      3.430      5.008
REMARK  5 active torsions:
REMARK  status: ('A' for Active; 'I' for Inactive)
REMARK    1  A    between atoms: C_6  and  C_4 
REMARK    2  A    between atoms: C_8  and  C_4 
REMARK    3  A    between atoms: C_10  and  C_8 
REMARK    4  A    between atoms: C_8  and  N_11 
REMARK    5  A    between atoms: O_16  and  C_10 
ROOT
HETATM    1  C   UNK N   1      31.967  16.411   6.662  0.00  0.00     0.018 A 
HETATM    2  C   UNK N   1      30.715  17.039   6.515  0.00  0.00     0.017 A 
HETATM    3  C   UNK N   1      32.582  16.356   7.935  0.00  0.00     0.089 A 
HETATM    4  C   UNK N   1      28.901  18.524   9.239  0.00  0.00     0.097 A 
HETATM    5  C   UNK N   1      28.940  18.235   7.876  0.00  0.00    -0.026 A 
HETATM    6  C   UNK N   1      30.136  17.587   7.654  0.00  0.00     0.016 A 
HETATM    7  C   UNK N   1      30.763  17.513   8.864  0.00  0.00     0.115 A 
HETATM    8  N   UNK N   1      31.969  16.911   9.024  0.00  0.00    -0.352 N 
ATOM      9  HN  UNK N   1      32.411  16.872   9.942  1.00  0.00     0.166 HD
HETATM   10  N   UNK N   1      30.035  18.079   9.837  0.00  0.00    -0.351 N 
HETATM   11  H   UNK N   1      30.275  18.156  10.790  0.00  0.00     0.166 HD
ENDROOT
BRANCH   5  12
HETATM   12  C   UNK N   1      27.846  18.522   6.878  0.00  0.00     0.076 C 
BRANCH  12  13
HETATM   13  C   UNK N   1      27.670  20.011   6.546  0.00  0.00     0.177 C 
BRANCH  13  14
HETATM   14  C   UNK N   1      27.622  20.202   5.050  0.00  0.00     0.163 C 
HETATM   15  O   UNK N   1      26.732  20.863   4.534  0.00  0.00    -0.648 OA
BRANCH  14  16
HETATM   16  O   UNK N   1      28.572  19.652   4.271  0.00  0.00    -0.775 OA
HETATM   17  H   UNK N   1      29.390  20.092   4.145  0.00  0.00     0.167 HD
ENDBRANCH  14  16
ENDBRANCH  13  14
BRANCH  13  18
HETATM   18  N   UNK N   1      26.442  20.516   7.145  0.00  0.00    -0.417 N 
HETATM   19  H   UNK N   1      25.683  19.872   7.369  0.00  0.00     0.150 HD
HETATM   20  H   UNK N   1      26.341  21.512   7.340  0.00  0.00     0.150 HD
ENDBRANCH  13  18
ENDBRANCH  12  13
ENDBRANCH   5  12
TORSDOF 5
ENDMDL
MODEL 9
REMARK VINA RESULT:      -5.3      8.643     10.539
REMARK  5 active torsions:
REMARK  status: ('A' for Active; 'I' for Inactive)
REMARK    1  A    between atoms: C_6  and  C_4 
REMARK    2  A    between atoms: C_8  and  C_4 
REMARK    3  A    between atoms: C_10  and  C_8 
REMARK    4  A    between atoms: C_8  and  N_11 
REMARK    5  A    between atoms: O_16  and  C_10 
ROOT
HETATM    1  C   UNK N   1      35.125  13.218  18.268  0.00  0.00     0.018 A 
HETATM    2  C   UNK N   1      35.377  13.687  16.964  0.00  0.00     0.017 A 
HETATM    3  C   UNK N   1      35.360  11.860  18.586  0.00  0.00     0.089 A 
HETATM    4  C   UNK N   1      36.649  11.616  14.316  0.00  0.00     0.097 A 
HETATM    5  C   UNK N   1      36.219  12.882  14.711  0.00  0.00    -0.026 A 
HETATM    6  C   UNK N   1      35.852  12.768  16.035  0.00  0.00     0.016 A 
HETATM    7  C   UNK N   1      36.064  11.466  16.382  0.00  0.00     0.115 A 
HETATM    8  N   UNK N   1      35.828  10.997  17.634  0.00  0.00    -0.352 N 
ATOM      9  HN  UNK N   1      35.997  10.018  17.861  1.00  0.00     0.166 HD
HETATM   10  N   UNK N   1      36.541  10.749  15.355  0.00  0.00    -0.351 N 
HETATM   11  H   UNK N   1      36.767   9.790  15.354  0.00  0.00     0.166 HD
ENDROOT
BRANCH   5  12
HETATM   12  C   UNK N   1      36.233  14.127  13.861  0.00  0.00     0.076 C 
BRANCH  12  13
HETATM   13  C   UNK N   1      36.039  13.867  12.359  0.00  0.00     0.177 C 
BRANCH  13  14
HETATM   14  C   UNK N   1      35.174  14.947  11.758  0.00  0.00     0.163 C 
HETATM   15  O   UNK N   1      35.659  16.018  11.419  0.00  0.00    -0.648 OA
BRANCH  14  16
HETATM   16  O   UNK N   1      33.858  14.732  11.577  0.00  0.00    -0.775 OA
HETATM   17  H   UNK N   1      33.258  14.867  12.285  0.00  0.00     0.167 HD
ENDBRANCH  14  16
ENDBRANCH  13  14
BRANCH  13  18
HETATM   18  N   UNK N   1      37.331  13.841  11.685  0.00  0.00    -0.417 N 
HETATM   19  H   UNK N   1      37.679  12.969  11.286  0.00  0.00     0.150 HD
HETATM   20  H   UNK N   1      37.886  14.693  11.612  0.00  0.00     0.150 HD
ENDBRANCH  13  18
ENDBRANCH  12  13
ENDBRANCH   5  12
TORSDOF 5
ENDMDL
