REMARK  14 active torsions:
REMARK  status: ('A' for Active; 'I' for Inactive)
REMARK    1  A    between atoms: C_11  and  C_10 
REMARK    2  A    between atoms: C_29  and  C_10 
REMARK    3  A    between atoms: N_33  and  C_11 
REMARK    4  A    between atoms: C_23  and  C_17 
REMARK    5  A    between atoms: C_28  and  C_17 
REMARK    6  A    between atoms: C_25  and  C_20 
REMARK    7  A    between atoms: C_26  and  C_21 
REMARK    8  A    between atoms: C_27  and  C_22 
REMARK    9  A    between atoms: C_31  and  C_24 
REMARK   10  A    between atoms: C_32  and  C_28 
REMARK   11  A    between atoms: C_28  and  N_37 
REMARK       I    between atoms: N_38  and  C_29 
REMARK   12  A    between atoms: S_44  and  C_30 
REMARK   13  A    between atoms: N_36  and  C_31 
REMARK       I    between atoms: N_39  and  C_32 
REMARK   14  A    between atoms: S_44  and  N_37 
ROOT
HETATM    1  C   UNK N   1       4.305   5.209   0.746  0.00  0.00     0.189 C 
ENDROOT
BRANCH   1   2
HETATM    2  C   UNK N   1       3.142   4.209   0.937  0.00  0.00     0.074 C 
BRANCH   2   3
HETATM    3  C   UNK N   1       3.119   2.842   0.323  0.00  0.00    -0.055 A 
HETATM    4  C   UNK N   1       2.008   2.023   0.558  0.00  0.00     0.007 A 
HETATM    5  C   UNK N   1       2.029   0.680   0.166  0.00  0.00     0.002 A 
HETATM    6  C   UNK N   1       3.185   0.139  -0.406  0.00  0.00     0.015 A 
HETATM    7  C   UNK N   1       4.297   0.958  -0.648  0.00  0.00     0.007 A 
HETATM    8  C   UNK N   1       4.238   2.307  -0.306  0.00  0.00     0.022 A 
BRANCH   7   9
HETATM    9  C   UNK N   1       5.569   0.395  -1.143  0.00  0.00     0.102 C 
HETATM   10  N   UNK N   1       6.580   1.162  -1.338  0.00  0.00    -0.385 N 
HETATM   11  H   UNK N   1       7.477   0.785  -1.489  0.00  0.00     0.157 HD
ATOM     12  HN  UNK N   1       6.452   2.174  -1.338  1.00  0.00     0.157 HD
BRANCH   9  13
HETATM   13  N   UNK N   1       5.737  -1.004  -1.229  0.00  0.00    -0.385 N 
HETATM   14  H   UNK N   1       4.951  -1.593  -1.289  0.00  0.00     0.157 HD
HETATM   15  H   UNK N   1       6.642  -1.391  -1.229  0.00  0.00     0.157 HD
ENDBRANCH   9  13
ENDBRANCH   7   9
ENDBRANCH   2   3
ENDBRANCH   1   2
BRANCH   1  16
HETATM   16  C   UNK N   1       5.742   4.693   0.956  0.00  0.00     0.243 C 
HETATM   17  N   UNK N   1       6.830   5.515   0.825  0.00  0.00    -0.347 N 
HETATM   18  C   UNK N   1       6.675   6.946   0.669  0.00  0.00     0.145 C 
HETATM   19  C   UNK N   1       8.180   4.987   0.868  0.00  0.00     0.145 C 
HETATM   20  C   UNK N   1       7.451   7.449  -0.529  0.00  0.00     0.145 C 
HETATM   21  N   UNK N   1       8.795   6.936  -0.432  0.00  0.00    -0.349 N 
HETATM   22  C   UNK N   1       8.961   5.496  -0.355  0.00  0.00     0.145 C 
HETATM   23  C   UNK N   1       9.865   7.774  -0.322  0.00  0.00     0.221 C 
HETATM   24  O   UNK N   1      10.994   7.314  -0.237  0.00  0.00    -0.273 OA
HETATM   25  O   UNK N   1       5.932   3.518   1.244  0.00  0.00    -0.271 OA
BRANCH  23  26
HETATM   26  C   UNK N   1       9.660   9.273  -0.270  0.00  0.00     0.122 C 
BRANCH  26  27
HETATM   27  C   UNK N   1      10.949  10.035   0.009  0.00  0.00     0.120 C 
BRANCH  27  28
HETATM   28  N   UNK N   1      10.669  11.457   0.087  0.00  0.00    -0.430 N 
HETATM   29  H   UNK N   1      11.436  12.127   0.142  0.00  0.00     0.149 HD
HETATM   30  H   UNK N   1       9.703  11.787   0.087  0.00  0.00     0.149 HD
ENDBRANCH  27  28
ENDBRANCH  26  27
ENDBRANCH  23  26
ENDBRANCH   1  16
BRANCH   1  31
HETATM   31  N   UNK N   1       4.030   6.267   1.716  0.00  0.00    -0.301 N 
HETATM   32  H   UNK N   1       3.989   6.112   2.723  0.00  0.00     0.173 HD
BRANCH  31  33
HETATM   33  S   UNK N   1       3.773   7.847   0.955  0.00  0.00     0.260 S 
HETATM   34  O   UNK N   1       4.827   8.799   1.542  0.00  0.00    -0.200 OA
HETATM   35  O   UNK N   1       2.999   8.108   2.258  0.00  0.00    -0.200 OA
BRANCH  33  36
HETATM   36  C   UNK N   1       2.272   8.635   0.319  0.00  0.00     0.092 A 
HETATM   37  C   UNK N   1       2.288  10.021   0.039  0.00  0.00    -0.030 A 
HETATM   38  C   UNK N   1       1.103  10.671  -0.318  0.00  0.00     0.016 A 
HETATM   39  C   UNK N   1      -0.099   9.969  -0.417  0.00  0.00    -0.054 A 
HETATM   40  C   UNK N   1      -0.095   8.580  -0.239  0.00  0.00     0.016 A 
HETATM   41  C   UNK N   1       1.079   7.903   0.120  0.00  0.00    -0.030 A 
BRANCH  37  42
HETATM   42  C   UNK N   1       3.567  10.808   0.110  0.00  0.00     0.012 C 
HETATM   43  C   UNK N   1       3.532  11.864   1.195  0.00  0.00     0.015 C 
HETATM   44  C   UNK N   1       3.903  11.435  -1.233  0.00  0.00     0.015 C 
ENDBRANCH  37  42
BRANCH  39  45
HETATM   45  C   UNK N   1      -1.370  10.735  -0.684  0.00  0.00     0.010 C 
HETATM   46  C   UNK N   1      -2.609   9.852  -0.715  0.00  0.00     0.015 C 
HETATM   47  C   UNK N   1      -1.573  11.794   0.388  0.00  0.00     0.015 C 
ENDBRANCH  39  45
BRANCH  41  48
HETATM   48  C   UNK N   1       1.053   6.410   0.272  0.00  0.00     0.012 C 
HETATM   49  C   UNK N   1       0.805   5.743  -1.071  0.00  0.00     0.015 C 
HETATM   50  C   UNK N   1       0.008   5.957   1.274  0.00  0.00     0.015 C 
ENDBRANCH  41  48
ENDBRANCH  33  36
ENDBRANCH  31  33
ENDBRANCH   1  31
TORSDOF 14
