MODEL 1
REMARK VINA RESULT:      -4.2      0.000      0.000
REMARK  6 active torsions:
REMARK  status: ('A' for Active; 'I' for Inactive)
REMARK    1  A    between atoms: S_2  and  C_3 
REMARK    2  A    between atoms: C_3  and  C_4 
REMARK    3  A    between atoms: C_4  and  C_5 
REMARK    4  A    between atoms: C_5  and  N_6 
REMARK    5  A    between atoms: C_5  and  P_7 
REMARK    6  A    between atoms: P_7  and  O_8 
ROOT
HETATM    1  C   UNK N   1      34.733  16.721   9.091  0.00  0.00     0.156 C 
ENDROOT
BRANCH   1   2
HETATM    2  C   UNK N   1      33.777  15.544   9.122  0.00  0.00     0.044 C 
BRANCH   2   3
HETATM    3  C   UNK N   1      33.781  14.863  10.479  0.00  0.00     0.076 C 
BRANCH   3   4
HETATM    4  S   UNK N   1      34.863  13.406  10.420  0.00  0.00    -0.173 SA
HETATM    5  C   UNK N   1      35.201  13.457  12.204  0.00  0.00     0.089 C 
ENDBRANCH   3   4
ENDBRANCH   2   3
ENDBRANCH   1   2
BRANCH   1   6
HETATM    6  N   UNK N   1      34.949  17.177  10.454  0.00  0.00    -0.419 N 
HETATM    7  H   UNK N   1      35.248  16.532  11.186  0.00  0.00     0.150 HD
HETATM    8  H   UNK N   1      34.800  18.159  10.683  0.00  0.00     0.150 HD
ENDBRANCH   1   6
BRANCH   1   9
HETATM    9  P   UNK N   1      33.995  18.114   8.095  0.00  0.00     0.111 P 
HETATM   10  O   UNK N   1      34.648  17.671   6.757  0.00  0.00    -0.674 OA
HETATM   11  H   UNK N   1      35.135  18.014   8.866  0.00  0.00     0.122 HD
BRANCH   9  12
HETATM   12  O   UNK N   1      35.256  19.240   8.488  0.00  0.00    -0.350 OA
HETATM   13  H   UNK N   1      36.136  19.100   8.871  0.00  0.00     0.217 HD
ENDBRANCH   9  12
ENDBRANCH   1   9
TORSDOF 6
ENDMDL
MODEL 2
REMARK VINA RESULT:      -4.1      1.873      2.459
REMARK  6 active torsions:
REMARK  status: ('A' for Active; 'I' for Inactive)
REMARK    1  A    between atoms: S_2  and  C_3 
REMARK    2  A    between atoms: C_3  and  C_4 
REMARK    3  A    between atoms: C_4  and  C_5 
REMARK    4  A    between atoms: C_5  and  N_6 
REMARK    5  A    between atoms: C_5  and  P_7 
REMARK    6  A    between atoms: P_7  and  O_8 
ROOT
HETATM    1  C   UNK N   1      34.697  16.701   9.071  0.00  0.00     0.156 C 
ENDROOT
BRANCH   1   2
HETATM    2  C   UNK N   1      33.708  15.551   9.078  0.00  0.00     0.044 C 
BRANCH   2   3
HETATM    3  C   UNK N   1      34.331  14.281   8.529  0.00  0.00     0.076 C 
BRANCH   3   4
HETATM    4  S   UNK N   1      33.598  13.899   6.911  0.00  0.00    -0.173 SA
HETATM    5  C   UNK N   1      32.055  14.781   7.288  0.00  0.00     0.089 C 
ENDBRANCH   3   4
ENDBRANCH   2   3
ENDBRANCH   1   2
BRANCH   1   6
HETATM    6  N   UNK N   1      34.927  17.122  10.442  0.00  0.00    -0.419 N 
HETATM    7  H   UNK N   1      34.690  16.516  11.228  0.00  0.00     0.150 HD
HETATM    8  H   UNK N   1      35.333  18.040  10.623  0.00  0.00     0.150 HD
ENDBRANCH   1   6
BRANCH   1   9
HETATM    9  P   UNK N   1      33.998  18.135   8.104  0.00  0.00     0.111 P 
HETATM   10  O   UNK N   1      34.627  17.695   6.755  0.00  0.00    -0.674 OA
HETATM   11  H   UNK N   1      35.139  17.985   8.866  0.00  0.00     0.122 HD
BRANCH   9  12
HETATM   12  O   UNK N   1      35.297  19.212   8.508  0.00  0.00    -0.350 OA
HETATM   13  H   UNK N   1      35.922  19.695   7.944  0.00  0.00     0.217 HD
ENDBRANCH   9  12
ENDBRANCH   1   9
TORSDOF 6
ENDMDL
MODEL 3
REMARK VINA RESULT:      -3.8     13.321     13.828
REMARK  6 active torsions:
REMARK  status: ('A' for Active; 'I' for Inactive)
REMARK    1  A    between atoms: S_2  and  C_3 
REMARK    2  A    between atoms: C_3  and  C_4 
REMARK    3  A    between atoms: C_4  and  C_5 
REMARK    4  A    between atoms: C_5  and  N_6 
REMARK    5  A    between atoms: C_5  and  P_7 
REMARK    6  A    between atoms: P_7  and  O_8 
ROOT
HETATM    1  C   UNK N   1      43.705  23.220   2.868  0.00  0.00     0.156 C 
ENDROOT
BRANCH   1   2
HETATM    2  C   UNK N   1      43.925  22.702   1.459  0.00  0.00     0.044 C 
BRANCH   2   3
HETATM    3  C   UNK N   1      42.795  23.118   0.534  0.00  0.00     0.076 C 
BRANCH   3   4
HETATM    4  S   UNK N   1      41.274  23.342   1.502  0.00  0.00    -0.173 SA
HETATM    5  C   UNK N   1      40.761  24.802   0.550  0.00  0.00     0.089 C 
ENDBRANCH   3   4
ENDBRANCH   2   3
ENDBRANCH   1   2
BRANCH   1   6
HETATM    6  N   UNK N   1      44.570  24.367   3.079  0.00  0.00    -0.419 N 
HETATM    7  H   UNK N   1      45.429  24.488   2.541  0.00  0.00     0.150 HD
HETATM    8  H   UNK N   1      44.315  25.066   3.778  0.00  0.00     0.150 HD
ENDBRANCH   1   6
BRANCH   1   9
HETATM    9  P   UNK N   1      44.140  21.895   4.107  0.00  0.00     0.111 P 
HETATM   10  O   UNK N   1      43.796  22.765   5.346  0.00  0.00    -0.674 OA
HETATM   11  H   UNK N   1      44.892  22.848   3.450  0.00  0.00     0.122 HD
BRANCH   9  12
HETATM   12  O   UNK N   1      45.829  22.291   4.136  0.00  0.00    -0.350 OA
HETATM   13  H   UNK N   1      46.283  23.147   4.089  0.00  0.00     0.217 HD
ENDBRANCH   9  12
ENDBRANCH   1   9
TORSDOF 6
ENDMDL
MODEL 4
REMARK VINA RESULT:      -3.7      3.226      3.971
REMARK  6 active torsions:
REMARK  status: ('A' for Active; 'I' for Inactive)
REMARK    1  A    between atoms: S_2  and  C_3 
REMARK    2  A    between atoms: C_3  and  C_4 
REMARK    3  A    between atoms: C_4  and  C_5 
REMARK    4  A    between atoms: C_5  and  N_6 
REMARK    5  A    between atoms: C_5  and  P_7 
REMARK    6  A    between atoms: P_7  and  O_8 
ROOT
HETATM    1  C   UNK N   1      35.266  15.394   9.121  0.00  0.00     0.156 C 
ENDROOT
BRANCH   1   2
HETATM    2  C   UNK N   1      33.848  15.451   8.585  0.00  0.00     0.044 C 
BRANCH   2   3
HETATM    3  C   UNK N   1      33.825  15.856   7.123  0.00  0.00     0.076 C 
BRANCH   3   4
HETATM    4  S   UNK N   1      33.540  17.646   6.997  0.00  0.00    -0.173 SA
HETATM    5  C   UNK N   1      32.390  17.666   8.403  0.00  0.00     0.089 C 
ENDBRANCH   3   4
ENDBRANCH   2   3
ENDBRANCH   1   2
BRANCH   1   6
HETATM    6  N   UNK N   1      35.626  14.002   9.328  0.00  0.00    -0.419 N 
HETATM    7  H   UNK N   1      35.663  13.344   8.550  0.00  0.00     0.150 HD
HETATM    8  H   UNK N   1      35.846  13.676  10.270  0.00  0.00     0.150 HD
ENDBRANCH   1   6
BRANCH   1   9
HETATM    9  P   UNK N   1      35.367  16.297  10.749  0.00  0.00     0.111 P 
HETATM   10  O   UNK N   1      35.560  17.696  10.105  0.00  0.00    -0.674 OA
HETATM   11  H   UNK N   1      36.306  15.640   9.982  0.00  0.00     0.122 HD
BRANCH   9  12
HETATM   12  O   UNK N   1      37.067  16.012  10.953  0.00  0.00    -0.350 OA
HETATM   13  H   UNK N   1      37.820  16.624  10.942  0.00  0.00     0.217 HD
ENDBRANCH   9  12
ENDBRANCH   1   9
TORSDOF 6
ENDMDL
MODEL 5
REMARK VINA RESULT:      -3.6     16.214     16.601
REMARK  6 active torsions:
REMARK  status: ('A' for Active; 'I' for Inactive)
REMARK    1  A    between atoms: S_2  and  C_3 
REMARK    2  A    between atoms: C_3  and  C_4 
REMARK    3  A    between atoms: C_4  and  C_5 
REMARK    4  A    between atoms: C_5  and  N_6 
REMARK    5  A    between atoms: C_5  and  P_7 
REMARK    6  A    between atoms: P_7  and  O_8 
ROOT
HETATM    1  C   UNK N   1      19.836  18.384   2.708  0.00  0.00     0.156 C 
ENDROOT
BRANCH   1   2
HETATM    2  C   UNK N   1      20.267  17.316   1.722  0.00  0.00     0.044 C 
BRANCH   2   3
HETATM    3  C   UNK N   1      20.211  15.933   2.344  0.00  0.00     0.076 C 
BRANCH   3   4
HETATM    4  S   UNK N   1      20.743  14.699   1.122  0.00  0.00    -0.173 SA
HETATM    5  C   UNK N   1      19.039  14.288   0.643  0.00  0.00     0.089 C 
ENDBRANCH   3   4
ENDBRANCH   2   3
ENDBRANCH   1   2
BRANCH   1   6
HETATM    6  N   UNK N   1      18.524  18.871   2.318  0.00  0.00    -0.419 N 
HETATM    7  H   UNK N   1      18.412  19.772   1.852  0.00  0.00     0.150 HD
HETATM    8  H   UNK N   1      17.700  18.303   2.514  0.00  0.00     0.150 HD
ENDBRANCH   1   6
BRANCH   1   9
HETATM    9  P   UNK N   1      21.045  19.804   2.677  0.00  0.00     0.111 P 
HETATM   10  O   UNK N   1      20.281  20.642   3.738  0.00  0.00    -0.674 OA
HETATM   11  H   UNK N   1      19.946  19.491   1.903  0.00  0.00     0.122 HD
BRANCH   9  12
HETATM   12  O   UNK N   1      20.292  20.589   1.325  0.00  0.00    -0.350 OA
HETATM   13  H   UNK N   1      19.536  20.325   0.777  0.00  0.00     0.217 HD
ENDBRANCH   9  12
ENDBRANCH   1   9
TORSDOF 6
ENDMDL
MODEL 6
REMARK VINA RESULT:      -3.5     15.247     15.818
REMARK  6 active torsions:
REMARK  status: ('A' for Active; 'I' for Inactive)
REMARK    1  A    between atoms: S_2  and  C_3 
REMARK    2  A    between atoms: C_3  and  C_4 
REMARK    3  A    between atoms: C_4  and  C_5 
REMARK    4  A    between atoms: C_5  and  N_6 
REMARK    5  A    between atoms: C_5  and  P_7 
REMARK    6  A    between atoms: P_7  and  O_8 
ROOT
HETATM    1  C   UNK N   1      19.844  18.358   2.848  0.00  0.00     0.156 C 
ENDROOT
BRANCH   1   2
HETATM    2  C   UNK N   1      20.350  17.196   2.016  0.00  0.00     0.044 C 
BRANCH   2   3
HETATM    3  C   UNK N   1      20.171  15.876   2.744  0.00  0.00     0.076 C 
BRANCH   3   4
HETATM    4  S   UNK N   1      21.132  15.901   4.285  0.00  0.00    -0.173 SA
HETATM    5  C   UNK N   1      22.724  15.976   3.412  0.00  0.00     0.089 C 
ENDBRANCH   3   4
ENDBRANCH   2   3
ENDBRANCH   1   2
BRANCH   1   6
HETATM    6  N   UNK N   1      18.562  18.785   2.314  0.00  0.00    -0.419 N 
HETATM    7  H   UNK N   1      17.779  19.006   2.930  0.00  0.00     0.150 HD
HETATM    8  H   UNK N   1      18.441  18.867   1.304  0.00  0.00     0.150 HD
ENDBRANCH   1   6
BRANCH   1   9
HETATM    9  P   UNK N   1      21.046  19.781   2.751  0.00  0.00     0.111 P 
HETATM   10  O   UNK N   1      20.272  20.668   3.762  0.00  0.00    -0.674 OA
HETATM   11  H   UNK N   1      19.953  19.423   1.988  0.00  0.00     0.122 HD
BRANCH   9  12
HETATM   12  O   UNK N   1      20.297  20.491   1.356  0.00  0.00    -0.350 OA
HETATM   13  H   UNK N   1      19.377  20.750   1.190  0.00  0.00     0.217 HD
ENDBRANCH   9  12
ENDBRANCH   1   9
TORSDOF 6
ENDMDL
MODEL 7
REMARK VINA RESULT:      -3.5      3.575      4.297
REMARK  6 active torsions:
REMARK  status: ('A' for Active; 'I' for Inactive)
REMARK    1  A    between atoms: S_2  and  C_3 
REMARK    2  A    between atoms: C_3  and  C_4 
REMARK    3  A    between atoms: C_4  and  C_5 
REMARK    4  A    between atoms: C_5  and  N_6 
REMARK    5  A    between atoms: C_5  and  P_7 
REMARK    6  A    between atoms: P_7  and  O_8 
ROOT
HETATM    1  C   UNK N   1      34.682  15.821  10.500  0.00  0.00     0.156 C 
ENDROOT
BRANCH   1   2
HETATM    2  C   UNK N   1      34.434  15.716   9.008  0.00  0.00     0.044 C 
BRANCH   2   3
HETATM    3  C   UNK N   1      32.950  15.757   8.689  0.00  0.00     0.076 C 
BRANCH   3   4
HETATM    4  S   UNK N   1      32.481  17.446   8.215  0.00  0.00    -0.173 SA
HETATM    5  C   UNK N   1      34.024  17.727   7.297  0.00  0.00     0.089 C 
ENDBRANCH   3   4
ENDBRANCH   2   3
ENDBRANCH   1   2
BRANCH   1   6
HETATM    6  N   UNK N   1      35.090  17.181  10.806  0.00  0.00    -0.419 N 
HETATM    7  H   UNK N   1      35.703  17.703  10.179  0.00  0.00     0.150 HD
HETATM    8  H   UNK N   1      34.758  17.623  11.664  0.00  0.00     0.150 HD
ENDBRANCH   1   6
BRANCH   1   9
HETATM    9  P   UNK N   1      36.044  14.650  11.003  0.00  0.00     0.111 P 
HETATM   10  O   UNK N   1      35.974  15.016  12.510  0.00  0.00    -0.674 OA
HETATM   11  H   UNK N   1      36.049  15.946  10.527  0.00  0.00     0.122 HD
BRANCH   9  12
HETATM   12  O   UNK N   1      37.319  15.776  10.656  0.00  0.00    -0.350 OA
HETATM   13  H   UNK N   1      37.935  15.829   9.908  0.00  0.00     0.217 HD
ENDBRANCH   9  12
ENDBRANCH   1   9
TORSDOF 6
ENDMDL
MODEL 8
REMARK VINA RESULT:      -3.5      2.414      2.860
REMARK  6 active torsions:
REMARK  status: ('A' for Active; 'I' for Inactive)
REMARK    1  A    between atoms: S_2  and  C_3 
REMARK    2  A    between atoms: C_3  and  C_4 
REMARK    3  A    between atoms: C_4  and  C_5 
REMARK    4  A    between atoms: C_5  and  N_6 
REMARK    5  A    between atoms: C_5  and  P_7 
REMARK    6  A    between atoms: P_7  and  O_8 
ROOT
HETATM    1  C   UNK N   1      34.416  15.470  11.002  0.00  0.00     0.156 C 
ENDROOT
BRANCH   1   2
HETATM    2  C   UNK N   1      35.455  14.406  11.303  0.00  0.00     0.044 C 
BRANCH   2   3
HETATM    3  C   UNK N   1      36.063  14.600  12.680  0.00  0.00     0.076 C 
BRANCH   3   4
HETATM    4  S   UNK N   1      36.434  12.979  13.410  0.00  0.00    -0.173 SA
HETATM    5  C   UNK N   1      34.990  12.188  12.642  0.00  0.00     0.089 C 
ENDBRANCH   3   4
ENDBRANCH   2   3
ENDBRANCH   1   2
BRANCH   1   6
HETATM    6  N   UNK N   1      33.136  14.818  10.786  0.00  0.00    -0.419 N 
HETATM    7  H   UNK N   1      32.770  14.138  11.452  0.00  0.00     0.150 HD
HETATM    8  H   UNK N   1      32.593  15.044   9.952  0.00  0.00     0.150 HD
ENDBRANCH   1   6
BRANCH   1   9
HETATM    9  P   UNK N   1      34.891  16.403   9.459  0.00  0.00     0.111 P 
HETATM   10  O   UNK N   1      35.549  17.583  10.224  0.00  0.00    -0.674 OA
HETATM   11  H   UNK N   1      33.733  16.357  10.208  0.00  0.00     0.122 HD
BRANCH   9  12
HETATM   12  O   UNK N   1      33.352  17.191   9.303  0.00  0.00    -0.350 OA
HETATM   13  H   UNK N   1      32.464  16.911   9.573  0.00  0.00     0.217 HD
ENDBRANCH   9  12
ENDBRANCH   1   9
TORSDOF 6
ENDMDL
MODEL 9
REMARK VINA RESULT:      -3.5     11.946     12.686
REMARK  6 active torsions:
REMARK  status: ('A' for Active; 'I' for Inactive)
REMARK    1  A    between atoms: S_2  and  C_3 
REMARK    2  A    between atoms: C_3  and  C_4 
REMARK    3  A    between atoms: C_4  and  C_5 
REMARK    4  A    between atoms: C_5  and  N_6 
REMARK    5  A    between atoms: C_5  and  P_7 
REMARK    6  A    between atoms: P_7  and  O_8 
ROOT
HETATM    1  C   UNK N   1      44.822  21.885   3.111  0.00  0.00     0.156 C 
ENDROOT
BRANCH   1   2
HETATM    2  C   UNK N   1      44.021  20.641   3.446  0.00  0.00     0.044 C 
BRANCH   2   3
HETATM    3  C   UNK N   1      44.792  19.379   3.103  0.00  0.00     0.076 C 
BRANCH   3   4
HETATM    4  S   UNK N   1      43.635  18.103   2.526  0.00  0.00    -0.173 SA
HETATM    5  C   UNK N   1      42.179  19.156   2.794  0.00  0.00     0.089 C 
ENDBRANCH   3   4
ENDBRANCH   2   3
ENDBRANCH   1   2
BRANCH   1   6
HETATM    6  N   UNK N   1      45.756  22.139   4.194  0.00  0.00    -0.419 N 
HETATM    7  H   UNK N   1      46.127  21.376   4.762  0.00  0.00     0.150 HD
HETATM    8  H   UNK N   1      46.047  23.096   4.392  0.00  0.00     0.150 HD
ENDBRANCH   1   6
BRANCH   1   9
HETATM    9  P   UNK N   1      43.679  23.349   2.940  0.00  0.00     0.111 P 
HETATM   10  O   UNK N   1      44.825  24.388   2.808  0.00  0.00    -0.674 OA
HETATM   11  H   UNK N   1      44.194  22.685   4.034  0.00  0.00     0.122 HD
BRANCH   9  12
HETATM   12  O   UNK N   1      43.496  23.575   4.651  0.00  0.00    -0.350 OA
HETATM   13  H   UNK N   1      43.527  22.939   5.383  0.00  0.00     0.217 HD
ENDBRANCH   9  12
ENDBRANCH   1   9
TORSDOF 6
ENDMDL
