MODEL 1
REMARK VINA RESULT:      -6.0      0.000      0.000
REMARK  6 active torsions:
REMARK  status: ('A' for Active; 'I' for Inactive)
REMARK    1  A    between atoms: C_10  and  C_7 
REMARK    2  A    between atoms: C_10  and  C_9 
REMARK    3  A    between atoms: C_11  and  C_9 
REMARK    4  A    between atoms: C_9  and  N_12 
REMARK    5  A    between atoms: C_10  and  O_14 
REMARK    6  A    between atoms: O_16  and  C_11 
ROOT
HETATM    1  C   UNK N   1      35.945  13.983  14.224  0.00  0.00     0.186 C 
ENDROOT
BRANCH   1   2
HETATM    2  C   UNK N   1      35.987  12.782  15.149  0.00  0.00     0.001 A 
HETATM    3  C   UNK N   1      36.355  11.504  14.730  0.00  0.00     0.099 A 
HETATM    4  N   UNK N   1      36.289  10.638  15.769  0.00  0.00    -0.365 N 
HETATM    5  C   UNK N   1      35.899  11.358  16.836  0.00  0.00     0.043 A 
HETATM    6  H   UNK N   1      36.489   9.674  15.748  0.00  0.00     0.165 HD
HETATM    7  C   UNK N   1      35.708  10.885  18.130  0.00  0.00     0.030 A 
HETATM    8  C   UNK N   1      35.708  12.670  16.501  0.00  0.00     0.001 A 
HETATM    9  C   UNK N   1      35.314  11.808  19.114  0.00  0.00     0.002 A 
HETATM   10  C   UNK N   1      35.123  13.166  18.782  0.00  0.00     0.001 A 
HETATM   11  C   UNK N   1      35.319  13.608  17.461  0.00  0.00     0.014 A 
ENDBRANCH   1   2
BRANCH   1  12
HETATM   12  C   UNK N   1      35.878  13.648  12.717  0.00  0.00     0.207 C 
BRANCH  12  13
HETATM   13  C   UNK N   1      35.120  14.680  11.918  0.00  0.00     0.165 C 
HETATM   14  O   UNK N   1      35.624  15.774  11.714  0.00  0.00    -0.648 OA
BRANCH  13  15
HETATM   15  O   UNK N   1      33.901  14.410  11.412  0.00  0.00    -0.775 OA
HETATM   16  H   UNK N   1      33.612  13.529  11.276  0.00  0.00     0.167 HD
ENDBRANCH  13  15
ENDBRANCH  12  13
BRANCH  12  17
HETATM   17  N   UNK N   1      37.229  13.543  12.180  0.00  0.00    -0.415 N 
HETATM   18  H   UNK N   1      38.000  13.093  11.686  0.00  0.00     0.150 HD
HETATM   19  H   UNK N   1      37.641  14.434  12.457  0.00  0.00     0.150 HD
ENDBRANCH  12  17
ENDBRANCH   1  12
BRANCH   1  20
HETATM   20  O   UNK N   1      37.077  14.769  14.465  0.00  0.00    -0.388 OA
HETATM   21  H   UNK N   1      37.306  15.693  14.653  0.00  0.00     0.210 HD
ENDBRANCH   1  20
TORSDOF 6
ENDMDL
MODEL 2
REMARK VINA RESULT:      -5.9     16.983     19.238
REMARK  6 active torsions:
REMARK  status: ('A' for Active; 'I' for Inactive)
REMARK    1  A    between atoms: C_10  and  C_7 
REMARK    2  A    between atoms: C_10  and  C_9 
REMARK    3  A    between atoms: C_11  and  C_9 
REMARK    4  A    between atoms: C_9  and  N_12 
REMARK    5  A    between atoms: C_10  and  O_14 
REMARK    6  A    between atoms: O_16  and  C_11 
ROOT
HETATM    1  C   UNK N   1      21.051  19.777   3.068  0.00  0.00     0.186 C 
ENDROOT
BRANCH   1   2
HETATM    2  C   UNK N   1      22.298  19.294   3.784  0.00  0.00     0.001 A 
HETATM    3  C   UNK N   1      22.275  18.355   4.814  0.00  0.00     0.099 A 
HETATM    4  N   UNK N   1      23.533  18.129   5.264  0.00  0.00    -0.365 N 
HETATM    5  C   UNK N   1      24.344  18.902   4.520  0.00  0.00     0.043 A 
HETATM    6  H   UNK N   1      23.801  17.519   5.989  0.00  0.00     0.165 HD
HETATM    7  C   UNK N   1      25.728  18.988   4.620  0.00  0.00     0.030 A 
HETATM    8  C   UNK N   1      23.630  19.626   3.604  0.00  0.00     0.001 A 
HETATM    9  C   UNK N   1      26.398  19.848   3.732  0.00  0.00     0.002 A 
HETATM   10  C   UNK N   1      25.673  20.591   2.777  0.00  0.00     0.001 A 
HETATM   11  C   UNK N   1      24.272  20.485   2.708  0.00  0.00     0.014 A 
ENDBRANCH   1   2
BRANCH   1  12
HETATM   12  C   UNK N   1      21.015  19.492   1.550  0.00  0.00     0.207 C 
BRANCH  12  13
HETATM   13  C   UNK N   1      20.319  18.196   1.211  0.00  0.00     0.165 C 
HETATM   14  O   UNK N   1      19.763  17.561   2.094  0.00  0.00    -0.648 OA
BRANCH  13  15
HETATM   15  O   UNK N   1      20.286  17.734  -0.055  0.00  0.00    -0.775 OA
HETATM   16  H   UNK N   1      19.858  18.211  -0.738  0.00  0.00     0.167 HD
ENDBRANCH  13  15
ENDBRANCH  12  13
BRANCH  12  17
HETATM   17  N   UNK N   1      20.331  20.581   0.864  0.00  0.00    -0.415 N 
HETATM   18  H   UNK N   1      19.734  20.999   0.150  0.00  0.00     0.150 HD
HETATM   19  H   UNK N   1      20.606  21.392   1.418  0.00  0.00     0.150 HD
ENDBRANCH  12  17
ENDBRANCH   1  12
BRANCH   1  20
HETATM   20  O   UNK N   1      20.926  21.155   3.275  0.00  0.00    -0.388 OA
HETATM   21  H   UNK N   1      20.985  21.800   3.997  0.00  0.00     0.210 HD
ENDBRANCH   1  20
TORSDOF 6
ENDMDL
MODEL 3
REMARK VINA RESULT:      -5.8      2.079      3.171
REMARK  6 active torsions:
REMARK  status: ('A' for Active; 'I' for Inactive)
REMARK    1  A    between atoms: C_10  and  C_7 
REMARK    2  A    between atoms: C_10  and  C_9 
REMARK    3  A    between atoms: C_11  and  C_9 
REMARK    4  A    between atoms: C_9  and  N_12 
REMARK    5  A    between atoms: C_10  and  O_14 
REMARK    6  A    between atoms: O_16  and  C_11 
ROOT
HETATM    1  C   UNK N   1      35.315  13.871  11.794  0.00  0.00     0.186 C 
ENDROOT
BRANCH   1   2
HETATM    2  C   UNK N   1      35.624  13.540  13.242  0.00  0.00     0.001 A 
HETATM    3  C   UNK N   1      36.471  14.308  14.039  0.00  0.00     0.099 A 
HETATM    4  N   UNK N   1      36.563  13.764  15.277  0.00  0.00    -0.365 N 
HETATM    5  C   UNK N   1      35.774  12.675  15.269  0.00  0.00     0.043 A 
HETATM    6  H   UNK N   1      37.098  14.100  16.031  0.00  0.00     0.165 HD
HETATM    7  C   UNK N   1      35.548  11.807  16.332  0.00  0.00     0.030 A 
HETATM    8  C   UNK N   1      35.181  12.505  14.048  0.00  0.00     0.001 A 
HETATM    9  C   UNK N   1      34.669  10.730  16.126  0.00  0.00     0.002 A 
HETATM   10  C   UNK N   1      34.044  10.551  14.873  0.00  0.00     0.001 A 
HETATM   11  C   UNK N   1      34.300  11.445  13.817  0.00  0.00     0.014 A 
ENDBRANCH   1   2
BRANCH   1  12
HETATM   12  C   UNK N   1      34.680  15.260  11.561  0.00  0.00     0.207 C 
BRANCH  12  13
HETATM   13  C   UNK N   1      35.627  16.237  10.908  0.00  0.00     0.165 C 
HETATM   14  O   UNK N   1      35.190  17.267  10.418  0.00  0.00    -0.648 OA
BRANCH  13  15
HETATM   15  O   UNK N   1      36.954  16.000  10.871  0.00  0.00    -0.775 OA
HETATM   16  H   UNK N   1      37.301  15.218  10.489  0.00  0.00     0.167 HD
ENDBRANCH  13  15
ENDBRANCH  12  13
BRANCH  12  17
HETATM   17  N   UNK N   1      33.499  15.123  10.717  0.00  0.00    -0.415 N 
HETATM   18  H   UNK N   1      32.606  14.723  10.428  0.00  0.00     0.150 HD
HETATM   19  H   UNK N   1      33.655  15.839  10.009  0.00  0.00     0.150 HD
ENDBRANCH  12  17
ENDBRANCH   1  12
BRANCH   1  20
HETATM   20  O   UNK N   1      34.456  12.889  11.288  0.00  0.00    -0.388 OA
HETATM   21  H   UNK N   1      33.539  12.588  11.391  0.00  0.00     0.210 HD
ENDBRANCH   1  20
TORSDOF 6
ENDMDL
MODEL 4
REMARK VINA RESULT:      -5.7      8.269     11.245
REMARK  6 active torsions:
REMARK  status: ('A' for Active; 'I' for Inactive)
REMARK    1  A    between atoms: C_10  and  C_7 
REMARK    2  A    between atoms: C_10  and  C_9 
REMARK    3  A    between atoms: C_11  and  C_9 
REMARK    4  A    between atoms: C_9  and  N_12 
REMARK    5  A    between atoms: C_10  and  O_14 
REMARK    6  A    between atoms: O_16  and  C_11 
ROOT
HETATM    1  C   UNK N   1      31.996  17.625   8.232  0.00  0.00     0.186 C 
ENDROOT
BRANCH   1   2
HETATM    2  C   UNK N   1      31.233  17.203   6.991  0.00  0.00     0.001 A 
HETATM    3  C   UNK N   1      29.898  16.802   7.011  0.00  0.00     0.099 A 
HETATM    4  N   UNK N   1      29.492  16.476   5.760  0.00  0.00    -0.365 N 
HETATM    5  C   UNK N   1      30.550  16.681   4.956  0.00  0.00     0.043 A 
HETATM    6  H   UNK N   1      28.601  16.156   5.493  0.00  0.00     0.165 HD
HETATM    7  C   UNK N   1      30.594  16.488   3.579  0.00  0.00     0.030 A 
HETATM    8  C   UNK N   1      31.631  17.127   5.667  0.00  0.00     0.001 A 
HETATM    9  C   UNK N   1      31.798  16.778   2.914  0.00  0.00     0.002 A 
HETATM   10  C   UNK N   1      32.915  17.248   3.636  0.00  0.00     0.001 A 
HETATM   11  C   UNK N   1      32.838  17.425   5.029  0.00  0.00     0.014 A 
ENDBRANCH   1   2
BRANCH   1  12
HETATM   12  C   UNK N   1      33.293  16.831   8.505  0.00  0.00     0.207 C 
BRANCH  12  13
HETATM   13  C   UNK N   1      34.505  17.718   8.653  0.00  0.00     0.165 C 
HETATM   14  O   UNK N   1      35.198  17.632   9.656  0.00  0.00    -0.648 OA
BRANCH  13  15
HETATM   15  O   UNK N   1      34.848  18.596   7.688  0.00  0.00    -0.775 OA
HETATM   16  H   UNK N   1      34.504  19.467   7.675  0.00  0.00     0.167 HD
ENDBRANCH  13  15
ENDBRANCH  12  13
BRANCH  12  17
HETATM   17  N   UNK N   1      33.139  16.047   9.724  0.00  0.00    -0.415 N 
HETATM   18  H   UNK N   1      33.121  15.194  10.284  0.00  0.00     0.150 HD
HETATM   19  H   UNK N   1      32.928  16.764  10.417  0.00  0.00     0.150 HD
ENDBRANCH  12  17
ENDBRANCH   1  12
BRANCH   1  20
HETATM   20  O   UNK N   1      31.148  17.503   9.338  0.00  0.00    -0.388 OA
HETATM   21  H   UNK N   1      31.176  17.605  10.303  0.00  0.00     0.210 HD
ENDBRANCH   1  20
TORSDOF 6
ENDMDL
MODEL 5
REMARK VINA RESULT:      -5.6      6.495     10.006
REMARK  6 active torsions:
REMARK  status: ('A' for Active; 'I' for Inactive)
REMARK    1  A    between atoms: C_10  and  C_7 
REMARK    2  A    between atoms: C_10  and  C_9 
REMARK    3  A    between atoms: C_11  and  C_9 
REMARK    4  A    between atoms: C_9  and  N_12 
REMARK    5  A    between atoms: C_10  and  O_14 
REMARK    6  A    between atoms: O_16  and  C_11 
ROOT
HETATM    1  C   UNK N   1      34.719  17.036   8.569  0.00  0.00     0.186 C 
ENDROOT
BRANCH   1   2
HETATM    2  C   UNK N   1      33.324  16.999   7.973  0.00  0.00     0.001 A 
HETATM    3  C   UNK N   1      32.175  16.766   8.727  0.00  0.00     0.099 A 
HETATM    4  N   UNK N   1      31.083  16.782   7.924  0.00  0.00    -0.365 N 
HETATM    5  C   UNK N   1      31.532  17.036   6.683  0.00  0.00     0.043 A 
HETATM    6  H   UNK N   1      30.148  16.638   8.197  0.00  0.00     0.165 HD
HETATM    7  C   UNK N   1      30.761  17.157   5.531  0.00  0.00     0.030 A 
HETATM    8  C   UNK N   1      32.892  17.179   6.670  0.00  0.00     0.001 A 
HETATM    9  C   UNK N   1      31.423  17.445   4.325  0.00  0.00     0.002 A 
HETATM   10  C   UNK N   1      32.824  17.604   4.302  0.00  0.00     0.001 A 
HETATM   11  C   UNK N   1      33.574  17.468   5.485  0.00  0.00     0.014 A 
ENDBRANCH   1   2
BRANCH   1  12
HETATM   12  C   UNK N   1      34.891  16.239   9.882  0.00  0.00     0.207 C 
BRANCH  12  13
HETATM   13  C   UNK N   1      36.120  15.362   9.880  0.00  0.00     0.165 C 
HETATM   14  O   UNK N   1      36.148  14.365   9.175  0.00  0.00    -0.648 OA
BRANCH  13  15
HETATM   15  O   UNK N   1      37.196  15.670  10.632  0.00  0.00    -0.775 OA
HETATM   16  H   UNK N   1      37.135  15.749  11.563  0.00  0.00     0.167 HD
ENDBRANCH  13  15
ENDBRANCH  12  13
BRANCH  12  17
HETATM   17  N   UNK N   1      34.981  17.163  11.005  0.00  0.00    -0.415 N 
HETATM   18  H   UNK N   1      34.661  17.621  11.859  0.00  0.00     0.150 HD
HETATM   19  H   UNK N   1      35.886  17.607  10.849  0.00  0.00     0.150 HD
ENDBRANCH  12  17
ENDBRANCH   1  12
BRANCH   1  20
HETATM   20  O   UNK N   1      35.069  18.371   8.798  0.00  0.00    -0.388 OA
HETATM   21  H   UNK N   1      34.841  19.100   9.397  0.00  0.00     0.210 HD
ENDBRANCH   1  20
TORSDOF 6
ENDMDL
MODEL 6
REMARK VINA RESULT:      -5.6      6.147      7.633
REMARK  6 active torsions:
REMARK  status: ('A' for Active; 'I' for Inactive)
REMARK    1  A    between atoms: C_10  and  C_7 
REMARK    2  A    between atoms: C_10  and  C_9 
REMARK    3  A    between atoms: C_11  and  C_9 
REMARK    4  A    between atoms: C_9  and  N_12 
REMARK    5  A    between atoms: C_10  and  O_14 
REMARK    6  A    between atoms: O_16  and  C_11 
ROOT
HETATM    1  C   UNK N   1      33.522  16.090   8.997  0.00  0.00     0.186 C 
ENDROOT
BRANCH   1   2
HETATM    2  C   UNK N   1      34.859  15.705   9.602  0.00  0.00     0.001 A 
HETATM    3  C   UNK N   1      35.310  16.183  10.832  0.00  0.00     0.099 A 
HETATM    4  N   UNK N   1      36.536  15.675  11.105  0.00  0.00    -0.365 N 
HETATM    5  C   UNK N   1      36.852  14.876  10.071  0.00  0.00     0.043 A 
HETATM    6  H   UNK N   1      37.085  15.854  11.902  0.00  0.00     0.165 HD
HETATM    7  C   UNK N   1      38.018  14.133   9.924  0.00  0.00     0.030 A 
HETATM    8  C   UNK N   1      35.855  14.864   9.134  0.00  0.00     0.001 A 
HETATM    9  C   UNK N   1      38.151  13.340   8.770  0.00  0.00     0.002 A 
HETATM   10  C   UNK N   1      37.124  13.313   7.803  0.00  0.00     0.001 A 
HETATM   11  C   UNK N   1      35.960  14.083   7.981  0.00  0.00     0.014 A 
ENDBRANCH   1   2
BRANCH   1  12
HETATM   12  C   UNK N   1      33.316  17.606   8.776  0.00  0.00     0.207 C 
BRANCH  12  13
HETATM   13  C   UNK N   1      34.412  18.234   7.951  0.00  0.00     0.165 C 
HETATM   14  O   UNK N   1      34.516  17.947   6.768  0.00  0.00    -0.648 OA
BRANCH  13  15
HETATM   15  O   UNK N   1      35.271  19.120   8.494  0.00  0.00    -0.775 OA
HETATM   16  H   UNK N   1      36.143  18.874   8.731  0.00  0.00     0.167 HD
ENDBRANCH  13  15
ENDBRANCH  12  13
BRANCH  12  17
HETATM   17  N   UNK N   1      32.041  17.832   8.107  0.00  0.00    -0.415 N 
HETATM   18  H   UNK N   1      31.024  17.838   8.023  0.00  0.00     0.150 HD
HETATM   19  H   UNK N   1      32.335  18.194   7.199  0.00  0.00     0.150 HD
ENDBRANCH  12  17
ENDBRANCH   1  12
BRANCH   1  20
HETATM   20  O   UNK N   1      32.504  15.609   9.828  0.00  0.00    -0.388 OA
HETATM   21  H   UNK N   1      31.626  15.874  10.146  0.00  0.00     0.210 HD
ENDBRANCH   1  20
TORSDOF 6
ENDMDL
MODEL 7
REMARK VINA RESULT:      -5.4      1.723      2.686
REMARK  6 active torsions:
REMARK  status: ('A' for Active; 'I' for Inactive)
REMARK    1  A    between atoms: C_10  and  C_7 
REMARK    2  A    between atoms: C_10  and  C_9 
REMARK    3  A    between atoms: C_11  and  C_9 
REMARK    4  A    between atoms: C_9  and  N_12 
REMARK    5  A    between atoms: C_10  and  O_14 
REMARK    6  A    between atoms: O_16  and  C_11 
ROOT
HETATM    1  C   UNK N   1      35.343  11.857  14.386  0.00  0.00     0.186 C 
ENDROOT
BRANCH   1   2
HETATM    2  C   UNK N   1      35.272  12.096  15.882  0.00  0.00     0.001 A 
HETATM    3  C   UNK N   1      34.720  13.245  16.449  0.00  0.00     0.099 A 
HETATM    4  N   UNK N   1      34.805  13.181  17.800  0.00  0.00    -0.365 N 
HETATM    5  C   UNK N   1      35.388  12.004  18.086  0.00  0.00     0.043 A 
HETATM    6  H   UNK N   1      34.499  13.861  18.443  0.00  0.00     0.165 HD
HETATM    7  C   UNK N   1      35.668  11.505  19.353  0.00  0.00     0.030 A 
HETATM    8  C   UNK N   1      35.685  11.311  16.945  0.00  0.00     0.001 A 
HETATM    9  C   UNK N   1      36.269  10.236  19.441  0.00  0.00     0.002 A 
HETATM   10  C   UNK N   1      36.570   9.509  18.271  0.00  0.00     0.001 A 
HETATM   11  C   UNK N   1      36.279  10.048  17.004  0.00  0.00     0.014 A 
ENDBRANCH   1   2
BRANCH   1  12
HETATM   12  C   UNK N   1      36.536  12.532  13.671  0.00  0.00     0.207 C 
BRANCH  12  13
HETATM   13  C   UNK N   1      36.314  14.003  13.419  0.00  0.00     0.165 C 
HETATM   14  O   UNK N   1      35.570  14.355  12.516  0.00  0.00    -0.648 OA
BRANCH  13  15
HETATM   15  O   UNK N   1      36.912  14.938  14.185  0.00  0.00    -0.775 OA
HETATM   16  H   UNK N   1      37.603  14.717  14.776  0.00  0.00     0.167 HD
ENDBRANCH  13  15
ENDBRANCH  12  13
BRANCH  12  17
HETATM   17  N   UNK N   1      37.741  12.374  14.477  0.00  0.00    -0.415 N 
HETATM   18  H   UNK N   1      38.584  11.902  14.803  0.00  0.00     0.150 HD
HETATM   19  H   UNK N   1      37.741  13.229  15.034  0.00  0.00     0.150 HD
ENDBRANCH  12  17
ENDBRANCH   1  12
BRANCH   1  20
HETATM   20  O   UNK N   1      34.152  12.308  13.806  0.00  0.00    -0.388 OA
HETATM   21  H   UNK N   1      33.634  13.125  13.729  0.00  0.00     0.210 HD
ENDBRANCH   1  20
TORSDOF 6
ENDMDL
MODEL 8
REMARK VINA RESULT:      -5.4     23.729     26.364
REMARK  6 active torsions:
REMARK  status: ('A' for Active; 'I' for Inactive)
REMARK    1  A    between atoms: C_10  and  C_7 
REMARK    2  A    between atoms: C_10  and  C_9 
REMARK    3  A    between atoms: C_11  and  C_9 
REMARK    4  A    between atoms: C_9  and  N_12 
REMARK    5  A    between atoms: C_10  and  O_14 
REMARK    6  A    between atoms: O_16  and  C_11 
ROOT
HETATM    1  C   UNK N   1      25.723  25.693  -5.093  0.00  0.00     0.186 C 
ENDROOT
BRANCH   1   2
HETATM    2  C   UNK N   1      26.061  27.110  -4.670  0.00  0.00     0.001 A 
HETATM    3  C   UNK N   1      25.573  27.699  -3.504  0.00  0.00     0.099 A 
HETATM    4  N   UNK N   1      26.035  28.968  -3.398  0.00  0.00    -0.365 N 
HETATM    5  C   UNK N   1      26.816  29.176  -4.473  0.00  0.00     0.043 A 
HETATM    6  H   UNK N   1      25.840  29.609  -2.677  0.00  0.00     0.165 HD
HETATM    7  C   UNK N   1      27.514  30.340  -4.777  0.00  0.00     0.030 A 
HETATM    8  C   UNK N   1      26.861  28.067  -5.272  0.00  0.00     0.001 A 
HETATM    9  C   UNK N   1      28.295  30.351  -5.946  0.00  0.00     0.002 A 
HETATM   10  C   UNK N   1      28.356  29.209  -6.772  0.00  0.00     0.001 A 
HETATM   11  C   UNK N   1      27.631  28.050  -6.437  0.00  0.00     0.014 A 
ENDBRANCH   1   2
BRANCH   1  12
HETATM   12  C   UNK N   1      26.918  24.712  -5.111  0.00  0.00     0.207 C 
BRANCH  12  13
HETATM   13  C   UNK N   1      27.372  24.314  -3.728  0.00  0.00     0.165 C 
HETATM   14  O   UNK N   1      26.542  24.029  -2.879  0.00  0.00    -0.648 OA
BRANCH  13  15
HETATM   15  O   UNK N   1      28.683  24.251  -3.417  0.00  0.00    -0.775 OA
HETATM   16  H   UNK N   1      28.985  24.390  -2.541  0.00  0.00     0.167 HD
ENDBRANCH  13  15
ENDBRANCH  12  13
BRANCH  12  17
HETATM   17  N   UNK N   1      26.551  23.508  -5.845  0.00  0.00    -0.415 N 
HETATM   18  H   UNK N   1      26.447  22.504  -5.989  0.00  0.00     0.150 HD
HETATM   19  H   UNK N   1      26.189  23.890  -6.719  0.00  0.00     0.150 HD
ENDBRANCH  12  17
ENDBRANCH   1  12
BRANCH   1  20
HETATM   20  O   UNK N   1      25.150  25.734  -6.368  0.00  0.00    -0.388 OA
HETATM   21  H   UNK N   1      24.347  26.059  -6.805  0.00  0.00     0.210 HD
ENDBRANCH   1  20
TORSDOF 6
ENDMDL
MODEL 9
REMARK VINA RESULT:      -5.4     10.053     11.758
REMARK  6 active torsions:
REMARK  status: ('A' for Active; 'I' for Inactive)
REMARK    1  A    between atoms: C_10  and  C_7 
REMARK    2  A    between atoms: C_10  and  C_9 
REMARK    3  A    between atoms: C_11  and  C_9 
REMARK    4  A    between atoms: C_9  and  N_12 
REMARK    5  A    between atoms: C_10  and  O_14 
REMARK    6  A    between atoms: O_16  and  C_11 
ROOT
HETATM    1  C   UNK N   1      28.280  17.325   6.750  0.00  0.00     0.186 C 
ENDROOT
BRANCH   1   2
HETATM    2  C   UNK N   1      29.583  17.566   7.489  0.00  0.00     0.001 A 
HETATM    3  C   UNK N   1      29.645  17.911   8.839  0.00  0.00     0.099 A 
HETATM    4  N   UNK N   1      30.936  18.071   9.217  0.00  0.00    -0.365 N 
HETATM    5  C   UNK N   1      31.682  17.816   8.128  0.00  0.00     0.043 A 
HETATM    6  H   UNK N   1      31.263  18.321  10.111  0.00  0.00     0.165 HD
HETATM    7  C   UNK N   1      33.071  17.847   8.049  0.00  0.00     0.030 A 
HETATM    8  C   UNK N   1      30.895  17.501   7.054  0.00  0.00     0.001 A 
HETATM    9  C   UNK N   1      33.665  17.529   6.814  0.00  0.00     0.002 A 
HETATM   10  C   UNK N   1      32.863  17.194   5.704  0.00  0.00     0.001 A 
HETATM   11  C   UNK N   1      31.461  17.179   5.818  0.00  0.00     0.014 A 
ENDBRANCH   1   2
BRANCH   1  12
HETATM   12  C   UNK N   1      27.754  18.531   5.940  0.00  0.00     0.207 C 
BRANCH  12  13
HETATM   13  C   UNK N   1      27.626  19.786   6.770  0.00  0.00     0.165 C 
HETATM   14  O   UNK N   1      28.044  20.845   6.329  0.00  0.00    -0.648 OA
BRANCH  13  15
HETATM   15  O   UNK N   1      27.044  19.759   7.986  0.00  0.00    -0.775 OA
HETATM   16  H   UNK N   1      27.440  20.174   8.727  0.00  0.00     0.167 HD
ENDBRANCH  13  15
ENDBRANCH  12  13
BRANCH  12  17
HETATM   17  N   UNK N   1      28.653  18.800   4.825  0.00  0.00    -0.415 N 
HETATM   18  H   UNK N   1      29.215  18.563   4.007  0.00  0.00     0.150 HD
HETATM   19  H   UNK N   1      28.809  19.804   4.910  0.00  0.00     0.150 HD
ENDBRANCH  12  17
ENDBRANCH   1  12
BRANCH   1  20
HETATM   20  O   UNK N   1      27.306  16.942   7.679  0.00  0.00    -0.388 OA
HETATM   21  H   UNK N   1      26.489  17.286   8.073  0.00  0.00     0.210 HD
ENDBRANCH   1  20
TORSDOF 6
ENDMDL
