MODEL 1
REMARK VINA RESULT:      -8.5      0.000      0.000
REMARK  2 active torsions:
REMARK  status: ('A' for Active; 'I' for Inactive)
REMARK    1  A    between atoms: C_17  and  C_14 
REMARK    2  A    between atoms: C_16  and  O_24 
ROOT
HETATM    1  C   UNK N   1      22.435  11.644   7.773  0.00  0.00     0.016 C 
HETATM    2  C   UNK N   1      21.321  14.533   4.436  0.00  0.00     0.019 C 
HETATM    3  C   UNK N   1      24.947  13.163   8.220  0.00  0.00     0.006 C 
HETATM    4  C   UNK N   1      24.884  14.227   7.131  0.00  0.00     0.008 C 
HETATM    5  C   UNK N   1      21.480  12.796  10.778  0.00  0.00     0.032 C 
HETATM    6  C   UNK N   1      21.755  15.482   7.571  0.00  0.00     0.007 C 
HETATM    7  C   UNK N   1      23.740  16.945   3.604  0.00  0.00     0.013 C 
HETATM    8  C   UNK N   1      21.210  13.176   9.313  0.00  0.00     0.012 C 
HETATM    9  C   UNK N   1      21.326  16.261   6.270  0.00  0.00     0.013 C 
HETATM   10  C   UNK N   1      24.340  15.641   4.178  0.00  0.00     0.040 C 
HETATM   11  C   UNK N   1      23.908  12.273  10.316  0.00  0.00     0.037 C 
HETATM   12  C   UNK N   1      23.745  13.283   9.160  0.00  0.00    -0.004 C 
HETATM   13  C   UNK N   1      22.583  11.753  10.898  0.00  0.00     0.118 C 
HETATM   14  C   UNK N   1      22.244  16.686   3.735  0.00  0.00     0.028 C 
HETATM   15  C   UNK N   1      22.293  14.075   7.213  0.00  0.00     0.001 C 
HETATM   16  C   UNK N   1      23.585  14.188   6.300  0.00  0.00     0.025 C 
HETATM   17  C   UNK N   1      22.434  13.058   8.375  0.00  0.00    -0.036 C 
HETATM   18  C   UNK N   1      22.064  15.767   4.981  0.00  0.00    -0.005 C 
HETATM   19  C   UNK N   1      23.514  15.499   5.439  0.00  0.00     0.070 C 
HETATM   20  O   UNK N   1      23.940  16.575   6.253  0.00  0.00    -0.389 OA
HETATM   21  H   UNK N   1      24.228  17.342   6.771  0.00  0.00     0.210 HD
ENDROOT
BRANCH  14  22
HETATM   22  C   UNK N   1      21.247  17.799   3.502  0.00  0.00    -0.045 A 
HETATM   23  C   UNK N   1      21.381  19.003   4.045  0.00  0.00     0.087 A 
HETATM   24  C   UNK N   1      20.379  19.812   3.411  0.00  0.00     0.283 A 
HETATM   25  O   UNK N   1      20.237  21.012   3.581  0.00  0.00    -0.260 OA
HETATM   26  O   UNK N   1      19.674  19.105   2.520  0.00  0.00    -0.314 OA
HETATM   27  C   UNK N   1      20.133  17.800   2.471  0.00  0.00     0.213 A 
ENDBRANCH  14  22
BRANCH  13  28
HETATM   28  O   UNK N   1      22.766  11.414  12.237  0.00  0.00    -0.396 OA
HETATM   29  H   UNK N   1      22.295  11.816  12.984  0.00  0.00     0.210 HD
ENDBRANCH  13  28
TORSDOF 2
ENDMDL
MODEL 2
REMARK VINA RESULT:      -8.0      5.790      7.894
REMARK  2 active torsions:
REMARK  status: ('A' for Active; 'I' for Inactive)
REMARK    1  A    between atoms: C_17  and  C_14 
REMARK    2  A    between atoms: C_16  and  O_24 
ROOT
HETATM    1  C   UNK N   1      31.727  15.270   6.747  0.00  0.00     0.016 C 
HETATM    2  C   UNK N   1      27.262  15.071   5.885  0.00  0.00     0.019 C 
HETATM    3  C   UNK N   1      32.148  16.631   4.141  0.00  0.00     0.006 C 
HETATM    4  C   UNK N   1      30.743  16.649   3.551  0.00  0.00     0.008 C 
HETATM    5  C   UNK N   1      32.589  18.196   8.148  0.00  0.00     0.032 C 
HETATM    6  C   UNK N   1      28.925  17.915   6.130  0.00  0.00     0.007 C 
HETATM    7  C   UNK N   1      26.245  16.196   2.713  0.00  0.00     0.013 C 
HETATM    8  C   UNK N   1      31.272  17.463   7.843  0.00  0.00     0.012 C 
HETATM    9  C   UNK N   1      27.402  17.588   5.895  0.00  0.00     0.013 C 
HETATM   10  C   UNK N   1      27.687  15.640   2.738  0.00  0.00     0.040 C 
HETATM   11  C   UNK N   1      33.640  17.455   5.974  0.00  0.00     0.037 C 
HETATM   12  C   UNK N   1      32.182  17.389   5.471  0.00  0.00    -0.004 C 
HETATM   13  C   UNK N   1      33.783  17.506   7.504  0.00  0.00     0.118 C 
HETATM   14  C   UNK N   1      25.856  16.126   4.185  0.00  0.00     0.028 C 
HETATM   15  C   UNK N   1      29.789  16.642   5.967  0.00  0.00     0.001 C 
HETATM   16  C   UNK N   1      29.666  16.070   4.493  0.00  0.00     0.025 C 
HETATM   17  C   UNK N   1      31.247  16.707   6.493  0.00  0.00    -0.036 C 
HETATM   18  C   UNK N   1      27.171  16.326   4.997  0.00  0.00    -0.005 C 
HETATM   19  C   UNK N   1      28.256  16.423   3.902  0.00  0.00     0.070 C 
HETATM   20  O   UNK N   1      28.307  17.756   3.429  0.00  0.00    -0.389 OA
HETATM   21  H   UNK N   1      28.294  18.662   3.087  0.00  0.00     0.210 HD
ENDROOT
BRANCH  14  22
HETATM   22  C   UNK N   1      24.589  16.787   4.679  0.00  0.00    -0.045 A 
HETATM   23  C   UNK N   1      24.079  17.870   4.106  0.00  0.00     0.087 A 
HETATM   24  C   UNK N   1      22.789  18.042   4.712  0.00  0.00     0.283 A 
HETATM   25  O   UNK N   1      21.969  18.886   4.389  0.00  0.00    -0.260 OA
HETATM   26  O   UNK N   1      22.546  17.087   5.617  0.00  0.00    -0.314 OA
HETATM   27  C   UNK N   1      23.615  16.211   5.690  0.00  0.00     0.213 A 
ENDBRANCH  14  22
BRANCH  13  28
HETATM   28  O   UNK N   1      34.955  18.182   7.838  0.00  0.00    -0.396 OA
HETATM   29  H   UNK N   1      35.321  18.937   7.351  0.00  0.00     0.210 HD
ENDBRANCH  13  28
TORSDOF 2
ENDMDL
MODEL 3
REMARK VINA RESULT:      -7.9     13.799     16.736
REMARK  2 active torsions:
REMARK  status: ('A' for Active; 'I' for Inactive)
REMARK    1  A    between atoms: C_17  and  C_14 
REMARK    2  A    between atoms: C_16  and  O_24 
ROOT
HETATM    1  C   UNK N   1      36.813   9.687  18.953  0.00  0.00     0.016 C 
HETATM    2  C   UNK N   1      37.392  11.004  14.635  0.00  0.00     0.019 C 
HETATM    3  C   UNK N   1      35.232  12.147  19.470  0.00  0.00     0.006 C 
HETATM    4  C   UNK N   1      35.313  12.874  18.133  0.00  0.00     0.008 C 
HETATM    5  C   UNK N   1      33.923   8.027  19.364  0.00  0.00     0.032 C 
HETATM    6  C   UNK N   1      34.422  10.418  15.957  0.00  0.00     0.007 C 
HETATM    7  C   UNK N   1      36.149  14.188  13.807  0.00  0.00     0.013 C 
HETATM    8  C   UNK N   1      34.760   8.508  18.167  0.00  0.00     0.012 C 
HETATM    9  C   UNK N   1      34.881  10.825  14.506  0.00  0.00     0.013 C 
HETATM   10  C   UNK N   1      36.560  14.051  15.291  0.00  0.00     0.040 C 
HETATM   11  C   UNK N   1      34.398  10.126  20.688  0.00  0.00     0.037 C 
HETATM   12  C   UNK N   1      34.573  10.777  19.299  0.00  0.00    -0.004 C 
HETATM   13  C   UNK N   1      34.443   8.589  20.681  0.00  0.00     0.118 C 
HETATM   14  C   UNK N   1      36.363  12.770  13.291  0.00  0.00     0.028 C 
HETATM   15  C   UNK N   1      35.588  10.571  16.963  0.00  0.00     0.001 C 
HETATM   16  C   UNK N   1      36.062  12.082  17.040  0.00  0.00     0.025 C 
HETATM   17  C   UNK N   1      35.415   9.898  18.349  0.00  0.00    -0.036 C 
HETATM   18  C   UNK N   1      36.092  11.818  14.496  0.00  0.00    -0.005 C 
HETATM   19  C   UNK N   1      35.809  12.790  15.662  0.00  0.00     0.070 C 
HETATM   20  O   UNK N   1      34.448  13.172  15.615  0.00  0.00    -0.389 OA
HETATM   21  H   UNK N   1      33.524  13.457  15.539  0.00  0.00     0.210 HD
ENDROOT
BRANCH  14  22
HETATM   22  C   UNK N   1      35.869  12.366  11.920  0.00  0.00    -0.045 A 
HETATM   23  C   UNK N   1      34.940  13.052  11.266  0.00  0.00     0.087 A 
HETATM   24  C   UNK N   1      34.919  12.489   9.946  0.00  0.00     0.283 A 
HETATM   25  O   UNK N   1      34.250  12.908   9.015  0.00  0.00    -0.260 OA
HETATM   26  O   UNK N   1      35.810  11.499   9.825  0.00  0.00    -0.314 OA
HETATM   27  C   UNK N   1      36.494  11.321  11.015  0.00  0.00     0.213 A 
ENDBRANCH  14  22
BRANCH  13  28
HETATM   28  O   UNK N   1      33.679   8.097  21.737  0.00  0.00    -0.396 OA
HETATM   29  H   UNK N   1      32.990   8.595  22.206  0.00  0.00     0.210 HD
ENDBRANCH  13  28
TORSDOF 2
ENDMDL
MODEL 4
REMARK VINA RESULT:      -7.8     14.917     16.550
REMARK  2 active torsions:
REMARK  status: ('A' for Active; 'I' for Inactive)
REMARK    1  A    between atoms: C_17  and  C_14 
REMARK    2  A    between atoms: C_16  and  O_24 
ROOT
HETATM    1  C   UNK N   1      30.455  20.959  -3.775  0.00  0.00     0.016 C 
HETATM    2  C   UNK N   1      27.436  24.344  -3.392  0.00  0.00     0.019 C 
HETATM    3  C   UNK N   1      29.935  20.854  -6.696  0.00  0.00     0.006 C 
HETATM    4  C   UNK N   1      28.842  21.901  -6.872  0.00  0.00     0.008 C 
HETATM    5  C   UNK N   1      33.501  22.105  -4.596  0.00  0.00     0.032 C 
HETATM    6  C   UNK N   1      30.170  24.568  -5.233  0.00  0.00     0.007 C 
HETATM    7  C   UNK N   1      25.667  25.180  -6.314  0.00  0.00     0.013 C 
HETATM    8  C   UNK N   1      32.178  22.728  -4.124  0.00  0.00     0.012 C 
HETATM    9  C   UNK N   1      29.020  25.593  -4.903  0.00  0.00     0.013 C 
HETATM   10  C   UNK N   1      26.120  23.703  -6.267  0.00  0.00     0.040 C 
HETATM   11  C   UNK N   1      32.320  20.427  -6.070  0.00  0.00     0.037 C 
HETATM   12  C   UNK N   1      31.201  21.489  -6.117  0.00  0.00    -0.004 C 
HETATM   13  C   UNK N   1      33.342  20.630  -4.939  0.00  0.00     0.118 C 
HETATM   14  C   UNK N   1      26.298  25.741  -5.046  0.00  0.00     0.028 C 
HETATM   15  C   UNK N   1      29.773  23.140  -4.788  0.00  0.00     0.001 C 
HETATM   16  C   UNK N   1      28.485  22.649  -5.570  0.00  0.00     0.025 C 
HETATM   17  C   UNK N   1      30.906  22.082  -4.722  0.00  0.00    -0.036 C 
HETATM   18  C   UNK N   1      27.606  24.928  -4.807  0.00  0.00    -0.005 C 
HETATM   19  C   UNK N   1      27.588  23.883  -5.944  0.00  0.00     0.070 C 
HETATM   20  O   UNK N   1      28.129  24.472  -7.112  0.00  0.00    -0.389 OA
HETATM   21  H   UNK N   1      28.459  24.907  -7.912  0.00  0.00     0.210 HD
ENDROOT
BRANCH  14  22
HETATM   22  C   UNK N   1      26.311  27.231  -4.787  0.00  0.00    -0.045 A 
HETATM   23  C   UNK N   1      26.091  27.748  -3.585  0.00  0.00     0.087 A 
HETATM   24  C   UNK N   1      26.408  29.142  -3.714  0.00  0.00     0.283 A 
HETATM   25  O   UNK N   1      26.414  29.948  -2.797  0.00  0.00    -0.260 OA
HETATM   26  O   UNK N   1      26.803  29.439  -4.957  0.00  0.00    -0.314 OA
HETATM   27  C   UNK N   1      26.795  28.302  -5.747  0.00  0.00     0.213 A 
ENDBRANCH  14  22
BRANCH  13  28
HETATM   28  O   UNK N   1      34.572  20.100  -5.324  0.00  0.00    -0.396 OA
HETATM   29  H   UNK N   1      34.867  19.193  -5.150  0.00  0.00     0.210 HD
ENDBRANCH  13  28
TORSDOF 2
ENDMDL
MODEL 5
REMARK VINA RESULT:      -7.7     14.256     16.675
REMARK  2 active torsions:
REMARK  status: ('A' for Active; 'I' for Inactive)
REMARK    1  A    between atoms: C_17  and  C_14 
REMARK    2  A    between atoms: C_16  and  O_24 
ROOT
HETATM    1  C   UNK N   1      34.386   9.800  17.438  0.00  0.00     0.016 C 
HETATM    2  C   UNK N   1      34.409  11.769  13.334  0.00  0.00     0.019 C 
HETATM    3  C   UNK N   1      37.212   8.982  17.038  0.00  0.00     0.006 C 
HETATM    4  C   UNK N   1      37.499   9.477  15.626  0.00  0.00     0.008 C 
HETATM    5  C   UNK N   1      35.564  11.864  19.808  0.00  0.00     0.032 C 
HETATM    6  C   UNK N   1      36.416  12.696  15.789  0.00  0.00     0.007 C 
HETATM    7  C   UNK N   1      37.323  11.321  11.418  0.00  0.00     0.013 C 
HETATM    8  C   UNK N   1      35.129  12.003  18.341  0.00  0.00     0.012 C 
HETATM    9  C   UNK N   1      36.199  13.240  14.327  0.00  0.00     0.013 C 
HETATM   10  C   UNK N   1      37.052  10.167  12.410  0.00  0.00     0.040 C 
HETATM   11  C   UNK N   1      36.662   9.627  19.393  0.00  0.00     0.037 C 
HETATM   12  C   UNK N   1      36.823  10.148  17.949  0.00  0.00    -0.004 C 
HETATM   13  C   UNK N   1      35.642  10.406  20.241  0.00  0.00     0.118 C 
HETATM   14  C   UNK N   1      36.207  12.300  11.764  0.00  0.00     0.028 C 
HETATM   15  C   UNK N   1      35.713  11.330  15.974  0.00  0.00     0.001 C 
HETATM   16  C   UNK N   1      36.325  10.250  14.989  0.00  0.00     0.025 C 
HETATM   17  C   UNK N   1      35.534  10.821  17.428  0.00  0.00    -0.036 C 
HETATM   18  C   UNK N   1      35.910  12.110  13.282  0.00  0.00    -0.005 C 
HETATM   19  C   UNK N   1      36.850  10.954  13.688  0.00  0.00     0.070 C 
HETATM   20  O   UNK N   1      38.130  11.487  13.971  0.00  0.00    -0.389 OA
HETATM   21  H   UNK N   1      39.010  11.865  14.117  0.00  0.00     0.210 HD
ENDROOT
BRANCH  14  22
HETATM   22  C   UNK N   1      36.206  13.700  11.192  0.00  0.00    -0.045 A 
HETATM   23  C   UNK N   1      35.270  14.592  11.491  0.00  0.00     0.087 A 
HETATM   24  C   UNK N   1      35.744  15.830  10.940  0.00  0.00     0.283 A 
HETATM   25  O   UNK N   1      35.199  16.913  11.080  0.00  0.00    -0.260 OA
HETATM   26  O   UNK N   1      36.926  15.672  10.334  0.00  0.00    -0.314 OA
HETATM   27  C   UNK N   1      37.342  14.356  10.428  0.00  0.00     0.213 A 
ENDBRANCH  14  22
BRANCH  13  28
HETATM   28  O   UNK N   1      36.003  10.332  21.585  0.00  0.00    -0.396 OA
HETATM   29  H   UNK N   1      35.421  10.547  22.330  0.00  0.00     0.210 HD
ENDBRANCH  13  28
TORSDOF 2
ENDMDL
MODEL 6
REMARK VINA RESULT:      -7.6     16.306     17.975
REMARK  2 active torsions:
REMARK  status: ('A' for Active; 'I' for Inactive)
REMARK    1  A    between atoms: C_17  and  C_14 
REMARK    2  A    between atoms: C_16  and  O_24 
ROOT
HETATM    1  C   UNK N   1      27.612  28.765  -6.255  0.00  0.00     0.016 C 
HETATM    2  C   UNK N   1      28.554  24.810  -8.301  0.00  0.00     0.019 C 
HETATM    3  C   UNK N   1      25.110  27.586  -5.174  0.00  0.00     0.006 C 
HETATM    4  C   UNK N   1      25.116  26.190  -5.785  0.00  0.00     0.008 C 
HETATM    5  C   UNK N   1      28.690  28.802  -3.076  0.00  0.00     0.032 C 
HETATM    6  C   UNK N   1      28.251  25.117  -5.025  0.00  0.00     0.007 C 
HETATM    7  C   UNK N   1      26.081  22.320  -8.072  0.00  0.00     0.013 C 
HETATM    8  C   UNK N   1      28.892  27.894  -4.300  0.00  0.00     0.012 C 
HETATM    9  C   UNK N   1      28.616  23.897  -5.953  0.00  0.00     0.013 C 
HETATM   10  C   UNK N   1      25.518  23.758  -8.008  0.00  0.00     0.040 C 
HETATM   11  C   UNK N   1      26.248  29.172  -3.608  0.00  0.00     0.037 C 
HETATM   12  C   UNK N   1      26.351  27.799  -4.305  0.00  0.00    -0.004 C 
HETATM   13  C   UNK N   1      27.601  29.840  -3.314  0.00  0.00     0.118 C 
HETATM   14  C   UNK N   1      27.583  22.573  -8.105  0.00  0.00     0.028 C 
HETATM   15  C   UNK N   1      27.709  26.299  -5.865  0.00  0.00     0.001 C 
HETATM   16  C   UNK N   1      26.378  25.883  -6.618  0.00  0.00     0.025 C 
HETATM   17  C   UNK N   1      27.628  27.681  -5.166  0.00  0.00    -0.036 C 
HETATM   18  C   UNK N   1      27.826  23.888  -7.304  0.00  0.00    -0.005 C 
HETATM   19  C   UNK N   1      26.400  24.344  -6.926  0.00  0.00     0.070 C 
HETATM   20  O   UNK N   1      26.002  23.662  -5.751  0.00  0.00    -0.389 OA
HETATM   21  H   UNK N   1      25.731  23.152  -4.973  0.00  0.00     0.210 HD
ENDROOT
BRANCH  14  22
HETATM   22  C   UNK N   1      28.560  21.431  -7.941  0.00  0.00    -0.045 A 
HETATM   23  C   UNK N   1      28.167  20.176  -7.760  0.00  0.00     0.087 A 
HETATM   24  C   UNK N   1      29.362  19.390  -7.875  0.00  0.00     0.283 A 
HETATM   25  O   UNK N   1      29.404  18.170  -7.853  0.00  0.00    -0.260 OA
HETATM   26  O   UNK N   1      30.430  20.159  -8.117  0.00  0.00    -0.314 OA
HETATM   27  C   UNK N   1      30.056  21.489  -8.192  0.00  0.00     0.213 A 
ENDBRANCH  14  22
BRANCH  13  28
HETATM   28  O   UNK N   1      27.481  30.662  -2.195  0.00  0.00    -0.396 OA
HETATM   29  H   UNK N   1      26.652  31.053  -1.878  0.00  0.00     0.210 HD
ENDBRANCH  13  28
TORSDOF 2
ENDMDL
MODEL 7
REMARK VINA RESULT:      -7.6     10.018     12.207
REMARK  2 active torsions:
REMARK  status: ('A' for Active; 'I' for Inactive)
REMARK    1  A    between atoms: C_17  and  C_14 
REMARK    2  A    between atoms: C_16  and  O_24 
ROOT
HETATM    1  C   UNK N   1      37.028  13.000  10.467  0.00  0.00     0.016 C 
HETATM    2  C   UNK N   1      35.332  15.193   6.857  0.00  0.00     0.019 C 
HETATM    3  C   UNK N   1      35.812  15.039  12.251  0.00  0.00     0.006 C 
HETATM    4  C   UNK N   1      35.187  16.011  11.257  0.00  0.00     0.008 C 
HETATM    5  C   UNK N   1      34.797  10.862  11.778  0.00  0.00     0.032 C 
HETATM    6  C   UNK N   1      33.437  13.908   9.239  0.00  0.00     0.007 C 
HETATM    7  C   UNK N   1      33.710  18.242   7.518  0.00  0.00     0.013 C 
HETATM    8  C   UNK N   1      34.907  11.688  10.486  0.00  0.00     0.012 C 
HETATM    9  C   UNK N   1      33.098  14.652   7.892  0.00  0.00     0.013 C 
HETATM   10  C   UNK N   1      34.808  17.890   8.547  0.00  0.00     0.040 C 
HETATM   11  C   UNK N   1      35.777  12.717  13.185  0.00  0.00     0.037 C 
HETATM   12  C   UNK N   1      35.212  13.641  12.085  0.00  0.00    -0.004 C 
HETATM   13  C   UNK N   1      35.877  11.236  12.784  0.00  0.00     0.118 C 
HETATM   14  C   UNK N   1      33.698  17.000   6.636  0.00  0.00     0.028 C 
HETATM   15  C   UNK N   1      34.941  14.047   9.577  0.00  0.00     0.001 C 
HETATM   16  C   UNK N   1      35.327  15.570   9.785  0.00  0.00     0.025 C 
HETATM   17  C   UNK N   1      35.508  13.102  10.668  0.00  0.00    -0.036 C 
HETATM   18  C   UNK N   1      34.101  15.805   7.552  0.00  0.00    -0.005 C 
HETATM   19  C   UNK N   1      34.394  16.480   8.910  0.00  0.00     0.070 C 
HETATM   20  O   UNK N   1      33.175  16.647   9.608  0.00  0.00    -0.389 OA
HETATM   21  H   UNK N   1      32.324  16.793  10.049  0.00  0.00     0.210 HD
ENDROOT
BRANCH  14  22
HETATM   22  C   UNK N   1      32.606  16.794   5.610  0.00  0.00    -0.045 A 
HETATM   23  C   UNK N   1      31.331  17.067   5.861  0.00  0.00     0.087 A 
HETATM   24  C   UNK N   1      30.669  16.954   4.593  0.00  0.00     0.283 A 
HETATM   25  O   UNK N   1      29.494  17.215   4.390  0.00  0.00    -0.260 OA
HETATM   26  O   UNK N   1      31.528  16.623   3.622  0.00  0.00    -0.314 OA
HETATM   27  C   UNK N   1      32.807  16.497   4.136  0.00  0.00     0.213 A 
ENDBRANCH  14  22
BRANCH  13  28
HETATM   28  O   UNK N   1      35.760  10.439  13.920  0.00  0.00    -0.396 OA
HETATM   29  H   UNK N   1      35.076  10.535  14.601  0.00  0.00     0.210 HD
ENDBRANCH  13  28
TORSDOF 2
ENDMDL
MODEL 8
REMARK VINA RESULT:      -7.3     14.964     18.281
REMARK  2 active torsions:
REMARK  status: ('A' for Active; 'I' for Inactive)
REMARK    1  A    between atoms: C_17  and  C_14 
REMARK    2  A    between atoms: C_16  and  O_24 
ROOT
HETATM    1  C   UNK N   1      35.310  11.869  10.823  0.00  0.00     0.016 C 
HETATM    2  C   UNK N   1      34.616  10.380  15.068  0.00  0.00     0.019 C 
HETATM    3  C   UNK N   1      36.196  14.487  11.908  0.00  0.00     0.006 C 
HETATM    4  C   UNK N   1      35.997  14.303  13.408  0.00  0.00     0.008 C 
HETATM    5  C   UNK N   1      38.501  11.449   9.869  0.00  0.00     0.032 C 
HETATM    6  C   UNK N   1      37.575  11.341  13.956  0.00  0.00     0.007 C 
HETATM    7  C   UNK N   1      35.057  12.746  17.631  0.00  0.00     0.013 C 
HETATM    8  C   UNK N   1      37.626  10.971  11.040  0.00  0.00     0.012 C 
HETATM    9  C   UNK N   1      37.095  10.751  15.336  0.00  0.00     0.013 C 
HETATM   10  C   UNK N   1      34.626  13.368  16.283  0.00  0.00     0.040 C 
HETATM   11  C   UNK N   1      37.455  13.749   9.875  0.00  0.00     0.037 C 
HETATM   12  C   UNK N   1      37.186  13.453  11.366  0.00  0.00    -0.004 C 
HETATM   13  C   UNK N   1      37.797  12.509   9.032  0.00  0.00     0.118 C 
HETATM   14  C   UNK N   1      35.230  11.279  17.258  0.00  0.00     0.028 C 
HETATM   15  C   UNK N   1      36.363  11.752  13.086  0.00  0.00     0.001 C 
HETATM   16  C   UNK N   1      35.522  12.889  13.802  0.00  0.00     0.025 C 
HETATM   17  C   UNK N   1      36.635  12.027  11.584  0.00  0.00    -0.036 C 
HETATM   18  C   UNK N   1      35.676  11.254  15.765  0.00  0.00    -0.005 C 
HETATM   19  C   UNK N   1      35.651  12.744  15.360  0.00  0.00     0.070 C 
HETATM   20  O   UNK N   1      36.874  13.341  15.749  0.00  0.00    -0.389 OA
HETATM   21  H   UNK N   1      37.699  13.741  16.064  0.00  0.00     0.210 HD
ENDROOT
BRANCH  14  22
HETATM   22  C   UNK N   1      35.872  10.309  18.225  0.00  0.00    -0.045 A 
HETATM   23  C   UNK N   1      36.313  10.681  19.420  0.00  0.00     0.087 A 
HETATM   24  C   UNK N   1      36.633   9.457  20.097  0.00  0.00     0.283 A 
HETATM   25  O   UNK N   1      36.993   9.372  21.260  0.00  0.00    -0.260 OA
HETATM   26  O   UNK N   1      36.388   8.393  19.323  0.00  0.00    -0.314 OA
HETATM   27  C   UNK N   1      35.888   8.797  18.097  0.00  0.00     0.213 A 
ENDBRANCH  14  22
BRANCH  13  28
HETATM   28  O   UNK N   1      38.611  12.883   7.965  0.00  0.00    -0.396 OA
HETATM   29  H   UNK N   1      39.560  12.693   7.894  0.00  0.00     0.210 HD
ENDBRANCH  13  28
TORSDOF 2
ENDMDL
MODEL 9
REMARK VINA RESULT:      -7.0     12.764     14.814
REMARK  2 active torsions:
REMARK  status: ('A' for Active; 'I' for Inactive)
REMARK    1  A    between atoms: C_17  and  C_14 
REMARK    2  A    between atoms: C_16  and  O_24 
ROOT
HETATM    1  C   UNK N   1      37.862  10.870  14.310  0.00  0.00     0.016 C 
HETATM    2  C   UNK N   1      37.615  13.444  10.565  0.00  0.00     0.019 C 
HETATM    3  C   UNK N   1      35.591  12.387  15.477  0.00  0.00     0.006 C 
HETATM    4  C   UNK N   1      35.314  13.436  14.406  0.00  0.00     0.008 C 
HETATM    5  C   UNK N   1      35.744   8.269  14.167  0.00  0.00     0.032 C 
HETATM    6  C   UNK N   1      35.132  11.526  11.599  0.00  0.00     0.007 C 
HETATM    7  C   UNK N   1      35.310  16.097  10.658  0.00  0.00     0.013 C 
HETATM    8  C   UNK N   1      36.271   9.320  13.176  0.00  0.00     0.012 C 
HETATM    9  C   UNK N   1      35.310  12.450  10.336  0.00  0.00     0.013 C 
HETATM   10  C   UNK N   1      35.860  15.707  12.049  0.00  0.00     0.040 C 
HETATM   11  C   UNK N   1      35.587   9.950  16.047  0.00  0.00     0.037 C 
HETATM   12  C   UNK N   1      35.421  10.977  14.907  0.00  0.00    -0.004 C 
HETATM   13  C   UNK N   1      36.147   8.589  15.600  0.00  0.00     0.118 C 
HETATM   14  C   UNK N   1      35.947  15.042   9.762  0.00  0.00     0.028 C 
HETATM   15  C   UNK N   1      36.255  11.789  12.632  0.00  0.00     0.001 C 
HETATM   16  C   UNK N   1      36.196  13.286  13.149  0.00  0.00     0.025 C 
HETATM   17  C   UNK N   1      36.432  10.742  13.763  0.00  0.00    -0.036 C 
HETATM   18  C   UNK N   1      36.110  13.763  10.637  0.00  0.00    -0.005 C 
HETATM   19  C   UNK N   1      35.611  14.214  12.026  0.00  0.00     0.070 C 
HETATM   20  O   UNK N   1      34.201  14.099  12.063  0.00  0.00    -0.389 OA
HETATM   21  H   UNK N   1      33.233  14.056  12.051  0.00  0.00     0.210 HD
ENDROOT
BRANCH  14  22
HETATM   22  C   UNK N   1      35.510  14.888   8.322  0.00  0.00    -0.045 A 
HETATM   23  C   UNK N   1      34.737  15.779   7.712  0.00  0.00     0.087 A 
HETATM   24  C   UNK N   1      34.742  15.392   6.330  0.00  0.00     0.283 A 
HETATM   25  O   UNK N   1      34.211  16.017   5.426  0.00  0.00    -0.260 OA
HETATM   26  O   UNK N   1      35.495  14.304   6.131  0.00  0.00    -0.314 OA
HETATM   27  C   UNK N   1      36.053  13.882   7.325  0.00  0.00     0.213 A 
ENDBRANCH  14  22
BRANCH  13  28
HETATM   28  O   UNK N   1      35.681   7.592  16.454  0.00  0.00    -0.396 OA
HETATM   29  H   UNK N   1      36.229   7.096  17.083  0.00  0.00     0.210 HD
ENDBRANCH  13  28
TORSDOF 2
ENDMDL
