MODEL 1
REMARK VINA RESULT:      -6.1      0.000      0.000
REMARK  8 active torsions:
REMARK  status: ('A' for Active; 'I' for Inactive)
REMARK    1  A    between atoms: C_2  and  N_4 
REMARK    2  A    between atoms: N_4  and  C_5 
REMARK    3  A    between atoms: C_5  and  C_6 
REMARK    4  A    between atoms: C_9  and  C_10 
REMARK    5  A    between atoms: C_10  and  C_11 
REMARK    6  A    between atoms: C_11  and  N_12 
REMARK    7  A    between atoms: C_11  and  C_13 
REMARK    8  A    between atoms: C_13  and  O_14 
ROOT
HETATM    1  C   UNK N   1      28.842  18.539   7.538  0.00  0.00    -0.041 A 
HETATM    2  C   UNK N   1      29.523  18.728   8.741  0.00  0.00     0.009 A 
HETATM    3  C   UNK N   1      30.745  18.094   8.959  0.00  0.00     0.008 A 
HETATM    4  C   UNK N   1      31.297  17.271   7.973  0.00  0.00    -0.056 A 
HETATM    5  C   UNK N   1      30.612  17.063   6.770  0.00  0.00     0.008 A 
HETATM    6  C   UNK N   1      29.383  17.700   6.552  0.00  0.00     0.009 A 
ENDROOT
BRANCH   4   7
HETATM    7  C   UNK N   1      32.642  16.662   8.205  0.00  0.00     0.074 C 
BRANCH   7   8
HETATM    8  C   UNK N   1      33.592  17.585   8.989  0.00  0.00     0.177 C 
BRANCH   8   9
HETATM    9  N   UNK N   1      34.371  16.851   9.979  0.00  0.00    -0.417 N 
HETATM   10  H   UNK N   1      34.309  15.835  10.032  0.00  0.00     0.150 HD
HETATM   11  H   UNK N   1      34.981  17.357  10.621  0.00  0.00     0.150 HD
ENDBRANCH   8   9
BRANCH   8  12
HETATM   12  C   UNK N   1      34.517  18.287   8.037  0.00  0.00     0.163 C 
HETATM   13  O   UNK N   1      35.266  19.160   8.444  0.00  0.00    -0.648 OA
BRANCH  12  14
HETATM   14  O   UNK N   1      34.528  17.959   6.728  0.00  0.00    -0.775 OA
HETATM   15  H   UNK N   1      35.313  17.666   6.309  0.00  0.00     0.167 HD
ENDBRANCH  12  14
ENDBRANCH   8  12
ENDBRANCH   7   8
ENDBRANCH   4   7
BRANCH   1  16
HETATM   16  C   UNK N   1      27.572  19.277   7.300  0.00  0.00     0.153 C 
BRANCH  16  17
HETATM   17  N   UNK N   1      26.887  18.756   6.129  0.00  0.00    -0.414 N 
HETATM   18  H   UNK N   1      26.706  17.774   5.923  0.00  0.00     0.153 HD
BRANCH  17  19
HETATM   19  C   UNK N   1      26.507  19.893   5.304  0.00  0.00     0.068 C 
HETATM   20  C   UNK N   1      26.708  21.169   6.093  0.00  0.00     0.031 C 
HETATM   21  C   UNK N   1      27.360  19.946   4.049  0.00  0.00     0.031 C 
ENDBRANCH  17  19
ENDBRANCH  16  17
ENDBRANCH   1  16
TORSDOF 8
ENDMDL
MODEL 2
REMARK VINA RESULT:      -6.1      0.687      1.364
REMARK  8 active torsions:
REMARK  status: ('A' for Active; 'I' for Inactive)
REMARK    1  A    between atoms: C_2  and  N_4 
REMARK    2  A    between atoms: N_4  and  C_5 
REMARK    3  A    between atoms: C_5  and  C_6 
REMARK    4  A    between atoms: C_9  and  C_10 
REMARK    5  A    between atoms: C_10  and  C_11 
REMARK    6  A    between atoms: C_11  and  N_12 
REMARK    7  A    between atoms: C_11  and  C_13 
REMARK    8  A    between atoms: C_13  and  O_14 
ROOT
HETATM    1  C   UNK N   1      29.049  17.811   6.733  0.00  0.00    -0.041 A 
HETATM    2  C   UNK N   1      29.954  17.197   5.867  0.00  0.00     0.009 A 
HETATM    3  C   UNK N   1      31.204  16.794   6.335  0.00  0.00     0.008 A 
HETATM    4  C   UNK N   1      31.554  16.998   7.674  0.00  0.00    -0.056 A 
HETATM    5  C   UNK N   1      30.657  17.627   8.544  0.00  0.00     0.008 A 
HETATM    6  C   UNK N   1      29.401  18.033   8.073  0.00  0.00     0.009 A 
ENDROOT
BRANCH   4   7
HETATM    7  C   UNK N   1      32.872  16.491   8.164  0.00  0.00     0.074 C 
BRANCH   7   8
HETATM    8  C   UNK N   1      33.658  17.540   8.969  0.00  0.00     0.177 C 
BRANCH   8   9
HETATM    9  N   UNK N   1      34.445  16.931  10.035  0.00  0.00    -0.417 N 
HETATM   10  H   UNK N   1      34.369  15.932  10.224  0.00  0.00     0.150 HD
HETATM   11  H   UNK N   1      35.074  17.508  10.594  0.00  0.00     0.150 HD
ENDBRANCH   8   9
BRANCH   8  12
HETATM   12  C   UNK N   1      34.562  18.311   8.050  0.00  0.00     0.163 C 
HETATM   13  O   UNK N   1      35.281  19.189   8.498  0.00  0.00    -0.648 OA
BRANCH  12  14
HETATM   14  O   UNK N   1      34.586  18.040   6.730  0.00  0.00    -0.775 OA
HETATM   15  H   UNK N   1      34.053  17.361   6.364  0.00  0.00     0.167 HD
ENDBRANCH  12  14
ENDBRANCH   8  12
ENDBRANCH   7   8
ENDBRANCH   4   7
BRANCH   1  16
HETATM   16  C   UNK N   1      27.696  18.173   6.229  0.00  0.00     0.153 C 
BRANCH  16  17
HETATM   17  N   UNK N   1      27.201  19.365   6.898  0.00  0.00    -0.414 N 
HETATM   18  H   UNK N   1      27.261  19.566   7.896  0.00  0.00     0.153 HD
BRANCH  17  19
HETATM   19  C   UNK N   1      26.603  20.219   5.882  0.00  0.00     0.068 C 
HETATM   20  C   UNK N   1      26.555  21.641   6.395  0.00  0.00     0.031 C 
HETATM   21  C   UNK N   1      27.425  20.179   4.606  0.00  0.00     0.031 C 
ENDBRANCH  17  19
ENDBRANCH  16  17
ENDBRANCH   1  16
TORSDOF 8
ENDMDL
MODEL 3
REMARK VINA RESULT:      -5.9      6.722     10.380
REMARK  8 active torsions:
REMARK  status: ('A' for Active; 'I' for Inactive)
REMARK    1  A    between atoms: C_2  and  N_4 
REMARK    2  A    between atoms: N_4  and  C_5 
REMARK    3  A    between atoms: C_5  and  C_6 
REMARK    4  A    between atoms: C_9  and  C_10 
REMARK    5  A    between atoms: C_10  and  C_11 
REMARK    6  A    between atoms: C_11  and  N_12 
REMARK    7  A    between atoms: C_11  and  C_13 
REMARK    8  A    between atoms: C_13  and  O_14 
ROOT
HETATM    1  C   UNK N   1      25.390  18.810   3.744  0.00  0.00    -0.041 A 
HETATM    2  C   UNK N   1      25.031  20.018   3.144  0.00  0.00     0.009 A 
HETATM    3  C   UNK N   1      23.685  20.359   3.012  0.00  0.00     0.008 A 
HETATM    4  C   UNK N   1      22.690  19.496   3.483  0.00  0.00    -0.056 A 
HETATM    5  C   UNK N   1      23.043  18.276   4.071  0.00  0.00     0.008 A 
HETATM    6  C   UNK N   1      24.396  17.933   4.203  0.00  0.00     0.009 A 
ENDROOT
BRANCH   4   7
HETATM    7  C   UNK N   1      21.260  19.920   3.393  0.00  0.00     0.074 C 
BRANCH   7   8
HETATM    8  C   UNK N   1      20.587  19.489   2.078  0.00  0.00     0.177 C 
BRANCH   8   9
HETATM    9  N   UNK N   1      19.194  19.109   2.279  0.00  0.00    -0.417 N 
HETATM   10  H   UNK N   1      18.952  18.147   2.514  0.00  0.00     0.150 HD
HETATM   11  H   UNK N   1      18.457  19.809   2.183  0.00  0.00     0.150 HD
ENDBRANCH   8   9
BRANCH   8  12
HETATM   12  C   UNK N   1      20.668  20.606   1.078  0.00  0.00     0.163 C 
HETATM   13  O   UNK N   1      20.846  21.752   1.455  0.00  0.00    -0.648 OA
BRANCH  12  14
HETATM   14  O   UNK N   1      20.545  20.351  -0.241  0.00  0.00    -0.775 OA
HETATM   15  H   UNK N   1      19.703  20.316  -0.651  0.00  0.00     0.167 HD
ENDBRANCH  12  14
ENDBRANCH   8  12
ENDBRANCH   7   8
ENDBRANCH   4   7
BRANCH   1  16
HETATM   16  C   UNK N   1      26.832  18.497   3.934  0.00  0.00     0.153 C 
BRANCH  16  17
HETATM   17  N   UNK N   1      27.638  19.702   3.835  0.00  0.00    -0.414 N 
HETATM   18  H   UNK N   1      27.788  20.260   2.994  0.00  0.00     0.153 HD
BRANCH  17  19
HETATM   19  C   UNK N   1      28.190  19.968   5.154  0.00  0.00     0.068 C 
HETATM   20  C   UNK N   1      27.378  21.056   5.823  0.00  0.00     0.031 C 
HETATM   21  C   UNK N   1      28.143  18.715   6.011  0.00  0.00     0.031 C 
ENDBRANCH  17  19
ENDBRANCH  16  17
ENDBRANCH   1  16
TORSDOF 8
ENDMDL
MODEL 4
REMARK VINA RESULT:      -5.4      1.527      2.039
REMARK  8 active torsions:
REMARK  status: ('A' for Active; 'I' for Inactive)
REMARK    1  A    between atoms: C_2  and  N_4 
REMARK    2  A    between atoms: N_4  and  C_5 
REMARK    3  A    between atoms: C_5  and  C_6 
REMARK    4  A    between atoms: C_9  and  C_10 
REMARK    5  A    between atoms: C_10  and  C_11 
REMARK    6  A    between atoms: C_11  and  N_12 
REMARK    7  A    between atoms: C_11  and  C_13 
REMARK    8  A    between atoms: C_13  and  O_14 
ROOT
HETATM    1  C   UNK N   1      29.703  17.542   5.092  0.00  0.00    -0.041 A 
HETATM    2  C   UNK N   1      29.733  17.401   6.480  0.00  0.00     0.009 A 
HETATM    3  C   UNK N   1      30.927  17.083   7.124  0.00  0.00     0.008 A 
HETATM    4  C   UNK N   1      32.102  16.909   6.384  0.00  0.00    -0.056 A 
HETATM    5  C   UNK N   1      32.076  17.033   4.991  0.00  0.00     0.008 A 
HETATM    6  C   UNK N   1      30.875  17.352   4.343  0.00  0.00     0.009 A 
ENDROOT
BRANCH   4   7
HETATM    7  C   UNK N   1      33.381  16.640   7.108  0.00  0.00     0.074 C 
BRANCH   7   8
HETATM    8  C   UNK N   1      33.403  17.228   8.530  0.00  0.00     0.177 C 
BRANCH   8   9
HETATM    9  N   UNK N   1      33.294  16.191   9.550  0.00  0.00    -0.417 N 
HETATM   10  H   UNK N   1      32.565  16.244  10.261  0.00  0.00     0.150 HD
HETATM   11  H   UNK N   1      33.950  15.410   9.552  0.00  0.00     0.150 HD
ENDBRANCH   8   9
BRANCH   8  12
HETATM   12  C   UNK N   1      34.668  18.009   8.736  0.00  0.00     0.163 C 
HETATM   13  O   UNK N   1      35.014  18.840   7.911  0.00  0.00    -0.648 OA
BRANCH  12  14
HETATM   14  O   UNK N   1      35.429  17.801   9.830  0.00  0.00    -0.775 OA
HETATM   15  H   UNK N   1      35.401  16.987  10.293  0.00  0.00     0.167 HD
ENDBRANCH  12  14
ENDBRANCH   8  12
ENDBRANCH   7   8
ENDBRANCH   4   7
BRANCH   1  16
HETATM   16  C   UNK N   1      28.433  17.947   4.432  0.00  0.00     0.153 C 
BRANCH  16  17
HETATM   17  N   UNK N   1      28.413  19.380   4.190  0.00  0.00    -0.414 N 
HETATM   18  H   UNK N   1      29.175  19.937   3.802  0.00  0.00     0.153 HD
BRANCH  17  19
HETATM   19  C   UNK N   1      27.108  19.875   4.602  0.00  0.00     0.068 C 
HETATM   20  C   UNK N   1      27.295  21.003   5.594  0.00  0.00     0.031 C 
HETATM   21  C   UNK N   1      26.334  20.391   3.402  0.00  0.00     0.031 C 
ENDBRANCH  17  19
ENDBRANCH  16  17
ENDBRANCH   1  16
TORSDOF 8
ENDMDL
MODEL 5
REMARK VINA RESULT:      -5.4      2.100      2.318
REMARK  8 active torsions:
REMARK  status: ('A' for Active; 'I' for Inactive)
REMARK    1  A    between atoms: C_2  and  N_4 
REMARK    2  A    between atoms: N_4  and  C_5 
REMARK    3  A    between atoms: C_5  and  C_6 
REMARK    4  A    between atoms: C_9  and  C_10 
REMARK    5  A    between atoms: C_10  and  C_11 
REMARK    6  A    between atoms: C_11  and  N_12 
REMARK    7  A    between atoms: C_11  and  C_13 
REMARK    8  A    between atoms: C_13  and  O_14 
ROOT
HETATM    1  C   UNK N   1      29.078  18.322   7.553  0.00  0.00    -0.041 A 
HETATM    2  C   UNK N   1      29.890  18.344   8.687  0.00  0.00     0.009 A 
HETATM    3  C   UNK N   1      30.957  17.453   8.799  0.00  0.00     0.008 A 
HETATM    4  C   UNK N   1      31.220  16.537   7.775  0.00  0.00    -0.056 A 
HETATM    5  C   UNK N   1      30.399  16.499   6.642  0.00  0.00     0.008 A 
HETATM    6  C   UNK N   1      29.327  17.395   6.530  0.00  0.00     0.009 A 
ENDROOT
BRANCH   4   7
HETATM    7  C   UNK N   1      32.413  15.644   7.890  0.00  0.00     0.074 C 
BRANCH   7   8
HETATM    8  C   UNK N   1      32.405  14.794   9.173  0.00  0.00     0.177 C 
BRANCH   8   9
HETATM    9  N   UNK N   1      32.365  13.366   8.880  0.00  0.00    -0.417 N 
HETATM   10  H   UNK N   1      31.717  13.002   8.181  0.00  0.00     0.150 HD
HETATM   11  H   UNK N   1      32.986  12.728   9.376  0.00  0.00     0.150 HD
ENDBRANCH   8   9
BRANCH   8  12
HETATM   12  C   UNK N   1      33.621  15.107   9.996  0.00  0.00     0.163 C 
HETATM   13  O   UNK N   1      34.632  15.526   9.456  0.00  0.00    -0.648 OA
BRANCH  12  14
HETATM   14  O   UNK N   1      33.606  14.928  11.332  0.00  0.00    -0.775 OA
HETATM   15  H   UNK N   1      32.806  14.759  11.790  0.00  0.00     0.167 HD
ENDBRANCH  12  14
ENDBRANCH   8  12
ENDBRANCH   7   8
ENDBRANCH   4   7
BRANCH   1  16
HETATM   16  C   UNK N   1      27.986  19.325   7.424  0.00  0.00     0.153 C 
BRANCH  16  17
HETATM   17  N   UNK N   1      27.035  18.921   6.403  0.00  0.00    -0.414 N 
HETATM   18  H   UNK N   1      26.592  18.006   6.319  0.00  0.00     0.153 HD
BRANCH  17  19
HETATM   19  C   UNK N   1      26.830  20.061   5.522  0.00  0.00     0.068 C 
HETATM   20  C   UNK N   1      27.341  21.312   6.201  0.00  0.00     0.031 C 
HETATM   21  C   UNK N   1      27.579  19.862   4.216  0.00  0.00     0.031 C 
ENDBRANCH  17  19
ENDBRANCH  16  17
ENDBRANCH   1  16
TORSDOF 8
ENDMDL
MODEL 6
REMARK VINA RESULT:      -5.3     14.834     16.357
REMARK  8 active torsions:
REMARK  status: ('A' for Active; 'I' for Inactive)
REMARK    1  A    between atoms: C_2  and  N_4 
REMARK    2  A    between atoms: N_4  and  C_5 
REMARK    3  A    between atoms: C_5  and  C_6 
REMARK    4  A    between atoms: C_9  and  C_10 
REMARK    5  A    between atoms: C_10  and  C_11 
REMARK    6  A    between atoms: C_11  and  N_12 
REMARK    7  A    between atoms: C_11  and  C_13 
REMARK    8  A    between atoms: C_13  and  O_14 
ROOT
HETATM    1  C   UNK N   1      25.868  26.753  -4.473  0.00  0.00    -0.041 A 
HETATM    2  C   UNK N   1      25.534  26.640  -5.822  0.00  0.00     0.009 A 
HETATM    3  C   UNK N   1      25.743  25.437  -6.496  0.00  0.00     0.008 A 
HETATM    4  C   UNK N   1      26.284  24.337  -5.821  0.00  0.00    -0.056 A 
HETATM    5  C   UNK N   1      26.637  24.449  -4.472  0.00  0.00     0.008 A 
HETATM    6  C   UNK N   1      26.427  25.658  -3.796  0.00  0.00     0.009 A 
ENDROOT
BRANCH   4   7
HETATM    7  C   UNK N   1      26.430  23.041  -6.550  0.00  0.00     0.074 C 
BRANCH   7   8
HETATM    8  C   UNK N   1      25.846  23.081  -7.973  0.00  0.00     0.177 C 
BRANCH   8   9
HETATM    9  N   UNK N   1      26.888  23.016  -8.991  0.00  0.00    -0.417 N 
HETATM   10  H   UNK N   1      26.812  23.573  -9.842  0.00  0.00     0.150 HD
HETATM   11  H   UNK N   1      27.697  22.410  -8.852  0.00  0.00     0.150 HD
ENDBRANCH   8   9
BRANCH   8  12
HETATM   12  C   UNK N   1      24.885  21.944  -8.159  0.00  0.00     0.163 C 
HETATM   13  O   UNK N   1      24.019  21.733  -7.325  0.00  0.00    -0.648 OA
BRANCH  12  14
HETATM   14  O   UNK N   1      24.969  21.148  -9.245  0.00  0.00    -0.775 OA
HETATM   15  H   UNK N   1      25.112  20.226  -9.160  0.00  0.00     0.167 HD
ENDBRANCH  12  14
ENDBRANCH   8  12
ENDBRANCH   7   8
ENDBRANCH   4   7
BRANCH   1  16
HETATM   16  C   UNK N   1      25.575  28.024  -3.757  0.00  0.00     0.153 C 
BRANCH  16  17
HETATM   17  N   UNK N   1      26.503  28.219  -2.655  0.00  0.00    -0.414 N 
HETATM   18  H   UNK N   1      26.544  27.671  -1.796  0.00  0.00     0.153 HD
BRANCH  17  19
HETATM   19  C   UNK N   1      27.364  29.339  -3.003  0.00  0.00     0.068 C 
HETATM   20  C   UNK N   1      26.532  30.422  -3.654  0.00  0.00     0.031 C 
HETATM   21  C   UNK N   1      28.029  29.904  -1.759  0.00  0.00     0.031 C 
ENDBRANCH  17  19
ENDBRANCH  16  17
ENDBRANCH   1  16
TORSDOF 8
ENDMDL
MODEL 7
REMARK VINA RESULT:      -5.2      3.128      7.336
REMARK  8 active torsions:
REMARK  status: ('A' for Active; 'I' for Inactive)
REMARK    1  A    between atoms: C_2  and  N_4 
REMARK    2  A    between atoms: N_4  and  C_5 
REMARK    3  A    between atoms: C_5  and  C_6 
REMARK    4  A    between atoms: C_9  and  C_10 
REMARK    5  A    between atoms: C_10  and  C_11 
REMARK    6  A    between atoms: C_11  and  N_12 
REMARK    7  A    between atoms: C_11  and  C_13 
REMARK    8  A    between atoms: C_13  and  O_14 
ROOT
HETATM    1  C   UNK N   1      33.752  16.685   8.992  0.00  0.00    -0.041 A 
HETATM    2  C   UNK N   1      33.385  17.913   8.441  0.00  0.00     0.009 A 
HETATM    3  C   UNK N   1      32.118  18.077   7.882  0.00  0.00     0.008 A 
HETATM    4  C   UNK N   1      31.209  17.014   7.875  0.00  0.00    -0.056 A 
HETATM    5  C   UNK N   1      31.577  15.775   8.411  0.00  0.00     0.008 A 
HETATM    6  C   UNK N   1      32.850  15.610   8.972  0.00  0.00     0.009 A 
ENDROOT
BRANCH   4   7
HETATM    7  C   UNK N   1      29.834  17.240   7.334  0.00  0.00     0.074 C 
BRANCH   7   8
HETATM    8  C   UNK N   1      29.093  18.392   8.036  0.00  0.00     0.177 C 
BRANCH   8   9
HETATM    9  N   UNK N   1      27.831  18.708   7.379  0.00  0.00    -0.417 N 
HETATM   10  H   UNK N   1      27.302  17.978   6.901  0.00  0.00     0.150 HD
HETATM   11  H   UNK N   1      27.474  19.664   7.397  0.00  0.00     0.150 HD
ENDBRANCH   8   9
BRANCH   8  12
HETATM   12  C   UNK N   1      28.840  18.032   9.471  0.00  0.00     0.163 C 
HETATM   13  O   UNK N   1      27.922  17.280   9.760  0.00  0.00    -0.648 OA
BRANCH  12  14
HETATM   14  O   UNK N   1      29.621  18.533  10.450  0.00  0.00    -0.775 OA
HETATM   15  H   UNK N   1      30.439  18.947  10.253  0.00  0.00     0.167 HD
ENDBRANCH  12  14
ENDBRANCH   8  12
ENDBRANCH   7   8
ENDBRANCH   4   7
BRANCH   1  16
HETATM   16  C   UNK N   1      35.084  16.552   9.642  0.00  0.00     0.153 C 
BRANCH  16  17
HETATM   17  N   UNK N   1      34.939  16.376  11.078  0.00  0.00    -0.414 N 
HETATM   18  H   UNK N   1      34.248  16.830  11.675  0.00  0.00     0.153 HD
BRANCH  17  19
HETATM   19  C   UNK N   1      35.960  15.432  11.507  0.00  0.00     0.068 C 
HETATM   20  C   UNK N   1      35.297  14.271  12.216  0.00  0.00     0.031 C 
HETATM   21  C   UNK N   1      36.733  14.907  10.310  0.00  0.00     0.031 C 
ENDBRANCH  17  19
ENDBRANCH  16  17
ENDBRANCH   1  16
TORSDOF 8
ENDMDL
MODEL 8
REMARK VINA RESULT:      -5.2      5.207      9.170
REMARK  8 active torsions:
REMARK  status: ('A' for Active; 'I' for Inactive)
REMARK    1  A    between atoms: C_2  and  N_4 
REMARK    2  A    between atoms: N_4  and  C_5 
REMARK    3  A    between atoms: C_5  and  C_6 
REMARK    4  A    between atoms: C_9  and  C_10 
REMARK    5  A    between atoms: C_10  and  C_11 
REMARK    6  A    between atoms: C_11  and  N_12 
REMARK    7  A    between atoms: C_11  and  C_13 
REMARK    8  A    between atoms: C_13  and  O_14 
ROOT
HETATM    1  C   UNK N   1      35.584  12.968  11.724  0.00  0.00    -0.041 A 
HETATM    2  C   UNK N   1      35.294  13.158  10.373  0.00  0.00     0.009 A 
HETATM    3  C   UNK N   1      35.127  14.447   9.869  0.00  0.00     0.008 A 
HETATM    4  C   UNK N   1      35.254  15.555  10.713  0.00  0.00    -0.056 A 
HETATM    5  C   UNK N   1      35.529  15.371  12.073  0.00  0.00     0.008 A 
HETATM    6  C   UNK N   1      35.697  14.075  12.579  0.00  0.00     0.009 A 
ENDROOT
BRANCH   4   7
HETATM    7  C   UNK N   1      35.141  16.926  10.130  0.00  0.00     0.074 C 
BRANCH   7   8
HETATM    8  C   UNK N   1      34.249  16.976   8.878  0.00  0.00     0.177 C 
BRANCH   8   9
HETATM    9  N   UNK N   1      32.835  17.085   9.220  0.00  0.00    -0.417 N 
HETATM   10  H   UNK N   1      32.216  16.282   9.110  0.00  0.00     0.150 HD
HETATM   11  H   UNK N   1      32.464  17.969   9.570  0.00  0.00     0.150 HD
ENDBRANCH   8   9
BRANCH   8  12
HETATM   12  C   UNK N   1      34.651  18.136   8.014  0.00  0.00     0.163 C 
HETATM   13  O   UNK N   1      34.442  18.104   6.812  0.00  0.00    -0.648 OA
BRANCH  12  14
HETATM   14  O   UNK N   1      35.245  19.219   8.557  0.00  0.00    -0.775 OA
HETATM   15  H   UNK N   1      36.174  19.334   8.515  0.00  0.00     0.167 HD
ENDBRANCH  12  14
ENDBRANCH   8  12
ENDBRANCH   7   8
ENDBRANCH   4   7
BRANCH   1  16
HETATM   16  C   UNK N   1      35.824  11.588  12.227  0.00  0.00     0.153 C 
BRANCH  16  17
HETATM   17  N   UNK N   1      35.709  11.542  13.675  0.00  0.00    -0.414 N 
HETATM   18  H   UNK N   1      36.108  12.211  14.334  0.00  0.00     0.153 HD
BRANCH  17  19
HETATM   19  C   UNK N   1      34.919  10.367  14.013  0.00  0.00     0.068 C 
HETATM   20  C   UNK N   1      33.580  10.810  14.562  0.00  0.00     0.031 C 
HETATM   21  C   UNK N   1      34.692   9.509  12.781  0.00  0.00     0.031 C 
ENDBRANCH  17  19
ENDBRANCH  16  17
ENDBRANCH   1  16
TORSDOF 8
ENDMDL
MODEL 9
REMARK VINA RESULT:      -5.1     14.976     16.808
REMARK  8 active torsions:
REMARK  status: ('A' for Active; 'I' for Inactive)
REMARK    1  A    between atoms: C_2  and  N_4 
REMARK    2  A    between atoms: N_4  and  C_5 
REMARK    3  A    between atoms: C_5  and  C_6 
REMARK    4  A    between atoms: C_9  and  C_10 
REMARK    5  A    between atoms: C_10  and  C_11 
REMARK    6  A    between atoms: C_11  and  N_12 
REMARK    7  A    between atoms: C_11  and  C_13 
REMARK    8  A    between atoms: C_13  and  O_14 
ROOT
HETATM    1  C   UNK N   1      26.427  28.842  -4.479  0.00  0.00    -0.041 A 
HETATM    2  C   UNK N   1      25.262  28.077  -4.432  0.00  0.00     0.009 A 
HETATM    3  C   UNK N   1      25.000  27.143  -5.434  0.00  0.00     0.008 A 
HETATM    4  C   UNK N   1      25.905  26.965  -6.486  0.00  0.00    -0.056 A 
HETATM    5  C   UNK N   1      27.068  27.741  -6.547  0.00  0.00     0.008 A 
HETATM    6  C   UNK N   1      27.331  28.681  -5.540  0.00  0.00     0.009 A 
ENDROOT
BRANCH   4   7
HETATM    7  C   UNK N   1      25.633  25.907  -7.505  0.00  0.00     0.074 C 
BRANCH   7   8
HETATM    8  C   UNK N   1      26.084  24.507  -7.053  0.00  0.00     0.177 C 
BRANCH   8   9
HETATM    9  N   UNK N   1      25.424  24.092  -5.821  0.00  0.00    -0.417 N 
HETATM   10  H   UNK N   1      25.835  23.364  -5.237  0.00  0.00     0.150 HD
HETATM   11  H   UNK N   1      24.548  24.533  -5.541  0.00  0.00     0.150 HD
ENDBRANCH   8   9
BRANCH   8  12
HETATM   12  C   UNK N   1      25.802  23.509  -8.139  0.00  0.00     0.163 C 
HETATM   13  O   UNK N   1      26.714  22.859  -8.624  0.00  0.00    -0.648 OA
BRANCH  12  14
HETATM   14  O   UNK N   1      24.543  23.322  -8.585  0.00  0.00    -0.775 OA
HETATM   15  H   UNK N   1      23.967  22.710  -8.170  0.00  0.00     0.167 HD
ENDBRANCH  12  14
ENDBRANCH   8  12
ENDBRANCH   7   8
ENDBRANCH   4   7
BRANCH   1  16
HETATM   16  C   UNK N   1      26.720  29.786  -3.365  0.00  0.00     0.153 C 
BRANCH  16  17
HETATM   17  N   UNK N   1      27.307  29.083  -2.237  0.00  0.00    -0.414 N 
HETATM   18  H   UNK N   1      27.013  28.178  -1.871  0.00  0.00     0.153 HD
BRANCH  17  19
HETATM   19  C   UNK N   1      28.393  29.907  -1.727  0.00  0.00     0.068 C 
HETATM   20  C   UNK N   1      28.338  29.921  -0.215  0.00  0.00     0.031 C 
HETATM   21  C   UNK N   1      29.735  29.349  -2.170  0.00  0.00     0.031 C 
ENDBRANCH  17  19
ENDBRANCH  16  17
ENDBRANCH   1  16
TORSDOF 8
ENDMDL
