MODEL 1
REMARK VINA RESULT:      -5.8      0.000      0.000
REMARK  11 active torsions:
REMARK  status: ('A' for Active; 'I' for Inactive)
REMARK    1  A    between atoms: C_6  and  C_7 
REMARK    2  A    between atoms: C_7  and  O_8 
REMARK    3  A    between atoms: O_8  and  P_9 
REMARK    4  A    between atoms: P_9  and  O_10 
REMARK    5  A    between atoms: P_9  and  O_11 
REMARK    6  A    between atoms: C_13  and  C_14 
REMARK    7  A    between atoms: C_14  and  N_15 
REMARK    8  A    between atoms: N_15  and  C_16 
REMARK    9  A    between atoms: C_16  and  C_19 
REMARK   10  A    between atoms: C_19  and  O_20 
REMARK   11  A    between atoms: C_22  and  O_23 
ROOT
HETATM    1  C   UNK N   1      28.224  18.949   8.238  0.00  0.00     0.071 C 
HETATM    2  C   UNK N   1      29.201  17.985   7.653  0.00  0.00     0.039 A 
HETATM    3  N   UNK N   1      29.149  17.715   6.327  0.00  0.00    -0.367 N 
ATOM      4  HN  UNK N   1      28.445  18.178   5.753  1.00  0.00     0.165 HD
HETATM    5  C   UNK N   1      30.013  16.846   5.743  0.00  0.00     0.098 A 
HETATM    6  C   UNK N   1      31.003  16.203   6.490  0.00  0.00    -0.008 A 
HETATM    7  C   UNK N   1      31.087  16.470   7.883  0.00  0.00     0.004 A 
HETATM    8  C   UNK N   1      30.165  17.367   8.461  0.00  0.00     0.096 A 
ENDROOT
BRANCH   7   9
HETATM    9  C   UNK N   1      32.127  15.849   8.772  0.00  0.00     0.157 C 
BRANCH   9  10
HETATM   10  N   UNK N   1      32.949  16.915   9.345  0.00  0.00    -0.401 N 
HETATM   11  H   UNK N   1      32.585  17.617   9.989  0.00  0.00     0.154 HD
BRANCH  10  12
HETATM   12  C   UNK N   1      34.348  16.877   8.901  0.00  0.00     0.105 C 
HETATM   13  C   UNK N   1      34.678  15.546   8.227  0.00  0.00     0.049 C 
HETATM   14  C   UNK N   1      35.219  16.974  10.138  0.00  0.00     0.049 C 
BRANCH  12  15
HETATM   15  C   UNK N   1      34.665  18.052   8.003  0.00  0.00     0.168 C 
HETATM   16  O   UNK N   1      35.153  19.067   8.476  0.00  0.00    -0.648 OA
BRANCH  15  17
HETATM   17  O   UNK N   1      34.438  17.985   6.675  0.00  0.00    -0.775 OA
HETATM   18  H   UNK N   1      33.666  17.681   6.240  0.00  0.00     0.167 HD
ENDBRANCH  15  17
ENDBRANCH  12  15
ENDBRANCH  10  12
ENDBRANCH   9  10
ENDBRANCH   7   9
BRANCH   6  19
HETATM   19  C   UNK N   1      31.885  15.252   5.716  0.00  0.00     0.221 C 
BRANCH  19  20
HETATM   20  O   UNK N   1      33.072  15.796   5.229  0.00  0.00    -0.292 OA
BRANCH  20  21
HETATM   21  P   UNK N   1      33.243  15.152   3.618  0.00  0.00     0.391 P 
HETATM   22  O   UNK N   1      34.599  14.401   3.551  0.00  0.00    -0.632 OA
BRANCH  21  23
HETATM   23  O   UNK N   1      32.002  13.989   3.274  0.00  0.00    -0.307 OA
HETATM   24  H   UNK N   1      31.073  14.166   3.058  0.00  0.00     0.222 HD
ENDBRANCH  21  23
BRANCH  21  25
HETATM   25  O   UNK N   1      33.280  16.382   2.389  0.00  0.00    -0.307 OA
HETATM   26  H   UNK N   1      32.526  16.546   1.801  0.00  0.00     0.222 HD
ENDBRANCH  21  25
ENDBRANCH  20  21
ENDBRANCH  19  20
ENDBRANCH   6  19
BRANCH   8  27
HETATM   27  O   UNK N   1      30.212  17.636   9.780  0.00  0.00    -0.358 OA
HETATM   28  H   UNK N   1      29.442  17.545  10.305  0.00  0.00     0.217 HD
ENDBRANCH   8  27
TORSDOF 11
ENDMDL
MODEL 2
REMARK VINA RESULT:      -5.6     13.635     15.476
REMARK  11 active torsions:
REMARK  status: ('A' for Active; 'I' for Inactive)
REMARK    1  A    between atoms: C_6  and  C_7 
REMARK    2  A    between atoms: C_7  and  O_8 
REMARK    3  A    between atoms: O_8  and  P_9 
REMARK    4  A    between atoms: P_9  and  O_10 
REMARK    5  A    between atoms: P_9  and  O_11 
REMARK    6  A    between atoms: C_13  and  C_14 
REMARK    7  A    between atoms: C_14  and  N_15 
REMARK    8  A    between atoms: N_15  and  C_16 
REMARK    9  A    between atoms: C_16  and  C_19 
REMARK   10  A    between atoms: C_19  and  O_20 
REMARK   11  A    between atoms: C_22  and  O_23 
ROOT
HETATM    1  C   UNK N   1      26.288  29.179  -3.672  0.00  0.00     0.071 C 
HETATM    2  C   UNK N   1      26.268  27.922  -4.473  0.00  0.00     0.039 A 
HETATM    3  N   UNK N   1      25.175  27.630  -5.218  0.00  0.00    -0.367 N 
ATOM      4  HN  UNK N   1      24.387  28.277  -5.219  1.00  0.00     0.165 HD
HETATM    5  C   UNK N   1      25.104  26.498  -5.965  0.00  0.00     0.098 A 
HETATM    6  C   UNK N   1      26.167  25.593  -6.004  0.00  0.00    -0.008 A 
HETATM    7  C   UNK N   1      27.330  25.874  -5.238  0.00  0.00     0.004 A 
HETATM    8  C   UNK N   1      27.366  27.050  -4.461  0.00  0.00     0.096 A 
ENDROOT
BRANCH   7   9
HETATM    9  C   UNK N   1      28.536  24.978  -5.228  0.00  0.00     0.157 C 
BRANCH   9  10
HETATM   10  N   UNK N   1      28.360  23.970  -4.183  0.00  0.00    -0.401 N 
HETATM   11  H   UNK N   1      27.452  23.589  -3.921  0.00  0.00     0.154 HD
BRANCH  10  12
HETATM   12  C   UNK N   1      29.619  23.560  -3.548  0.00  0.00     0.105 C 
HETATM   13  C   UNK N   1      30.676  24.657  -3.659  0.00  0.00     0.049 C 
HETATM   14  C   UNK N   1      30.144  22.362  -4.314  0.00  0.00     0.049 C 
BRANCH  12  15
HETATM   15  C   UNK N   1      29.392  23.144  -2.111  0.00  0.00     0.168 C 
HETATM   16  O   UNK N   1      30.346  22.961  -1.371  0.00  0.00    -0.648 OA
BRANCH  15  17
HETATM   17  O   UNK N   1      28.142  22.997  -1.626  0.00  0.00    -0.775 OA
HETATM   18  H   UNK N   1      27.367  23.449  -1.894  0.00  0.00     0.167 HD
ENDBRANCH  15  17
ENDBRANCH  12  15
ENDBRANCH  10  12
ENDBRANCH   9  10
ENDBRANCH   7   9
BRANCH   6  19
HETATM   19  C   UNK N   1      25.946  24.371  -6.864  0.00  0.00     0.221 C 
BRANCH  19  20
HETATM   20  O   UNK N   1      25.788  23.170  -6.172  0.00  0.00    -0.292 OA
BRANCH  20  21
HETATM   21  P   UNK N   1      25.039  22.083  -7.310  0.00  0.00     0.391 P 
HETATM   22  O   UNK N   1      24.437  22.940  -8.455  0.00  0.00    -0.632 OA
BRANCH  21  23
HETATM   23  O   UNK N   1      26.211  21.026  -8.030  0.00  0.00    -0.307 OA
HETATM   24  H   UNK N   1      26.510  21.020  -8.953  0.00  0.00     0.222 HD
ENDBRANCH  21  23
BRANCH  21  25
HETATM   25  O   UNK N   1      23.734  21.163  -6.621  0.00  0.00    -0.307 OA
HETATM   26  H   UNK N   1      22.860  21.550  -6.458  0.00  0.00     0.222 HD
ENDBRANCH  21  25
ENDBRANCH  20  21
ENDBRANCH  19  20
ENDBRANCH   6  19
BRANCH   8  27
HETATM   27  O   UNK N   1      28.451  27.342  -3.718  0.00  0.00    -0.358 OA
HETATM   28  H   UNK N   1      28.854  26.678  -3.196  0.00  0.00     0.217 HD
ENDBRANCH   8  27
TORSDOF 11
ENDMDL
MODEL 3
REMARK VINA RESULT:      -5.6     13.307     15.350
REMARK  11 active torsions:
REMARK  status: ('A' for Active; 'I' for Inactive)
REMARK    1  A    between atoms: C_6  and  C_7 
REMARK    2  A    between atoms: C_7  and  O_8 
REMARK    3  A    between atoms: O_8  and  P_9 
REMARK    4  A    between atoms: P_9  and  O_10 
REMARK    5  A    between atoms: P_9  and  O_11 
REMARK    6  A    between atoms: C_13  and  C_14 
REMARK    7  A    between atoms: C_14  and  N_15 
REMARK    8  A    between atoms: N_15  and  C_16 
REMARK    9  A    between atoms: C_16  and  C_19 
REMARK   10  A    between atoms: C_19  and  O_20 
REMARK   11  A    between atoms: C_22  and  O_23 
ROOT
HETATM    1  C   UNK N   1      25.386  22.196  -7.496  0.00  0.00     0.071 C 
HETATM    2  C   UNK N   1      26.031  23.257  -6.670  0.00  0.00     0.039 A 
HETATM    3  N   UNK N   1      25.292  24.315  -6.259  0.00  0.00    -0.367 N 
ATOM      4  HN  UNK N   1      24.308  24.365  -6.520  1.00  0.00     0.165 HD
HETATM    5  C   UNK N   1      25.829  25.309  -5.506  0.00  0.00     0.098 A 
HETATM    6  C   UNK N   1      27.169  25.272  -5.113  0.00  0.00    -0.008 A 
HETATM    7  C   UNK N   1      27.969  24.170  -5.523  0.00  0.00     0.004 A 
HETATM    8  C   UNK N   1      27.384  23.163  -6.317  0.00  0.00     0.096 A 
ENDROOT
BRANCH   7   9
HETATM    9  C   UNK N   1      29.413  24.023  -5.137  0.00  0.00     0.157 C 
BRANCH   9  10
HETATM   10  N   UNK N   1      29.507  23.063  -4.037  0.00  0.00    -0.401 N 
HETATM   11  H   UNK N   1      28.741  22.877  -3.391  0.00  0.00     0.154 HD
BRANCH  10  12
HETATM   12  C   UNK N   1      30.812  22.395  -3.954  0.00  0.00     0.105 C 
HETATM   13  C   UNK N   1      31.847  23.093  -4.835  0.00  0.00     0.049 C 
HETATM   14  C   UNK N   1      30.639  20.992  -4.501  0.00  0.00     0.049 C 
BRANCH  12  15
HETATM   15  C   UNK N   1      31.278  22.292  -2.518  0.00  0.00     0.168 C 
HETATM   16  O   UNK N   1      30.710  22.929  -1.645  0.00  0.00    -0.648 OA
BRANCH  15  17
HETATM   17  O   UNK N   1      32.301  21.480  -2.184  0.00  0.00    -0.775 OA
HETATM   18  H   UNK N   1      32.669  20.783  -2.690  0.00  0.00     0.167 HD
ENDBRANCH  15  17
ENDBRANCH  12  15
ENDBRANCH  10  12
ENDBRANCH   9  10
ENDBRANCH   7   9
BRANCH   6  19
HETATM   19  C   UNK N   1      27.637  26.449  -4.291  0.00  0.00     0.221 C 
BRANCH  19  20
HETATM   20  O   UNK N   1      27.317  27.705  -4.805  0.00  0.00    -0.292 OA
BRANCH  20  21
HETATM   21  P   UNK N   1      26.765  28.631  -3.435  0.00  0.00     0.391 P 
HETATM   22  O   UNK N   1      25.756  27.754  -2.647  0.00  0.00    -0.632 OA
BRANCH  21  23
HETATM   23  O   UNK N   1      28.074  28.992  -2.355  0.00  0.00    -0.307 OA
HETATM   24  H   UNK N   1      29.005  28.739  -2.453  0.00  0.00     0.222 HD
ENDBRANCH  21  23
BRANCH  21  25
HETATM   25  O   UNK N   1      25.930  30.089  -3.885  0.00  0.00    -0.307 OA
HETATM   26  H   UNK N   1      25.041  30.075  -4.271  0.00  0.00     0.222 HD
ENDBRANCH  21  25
ENDBRANCH  20  21
ENDBRANCH  19  20
ENDBRANCH   6  19
BRANCH   8  27
HETATM   27  O   UNK N   1      28.117  22.110  -6.729  0.00  0.00    -0.358 OA
HETATM   28  H   UNK N   1      27.805  21.564  -7.423  0.00  0.00     0.217 HD
ENDBRANCH   8  27
TORSDOF 11
ENDMDL
MODEL 4
REMARK VINA RESULT:      -5.6      2.871      5.701
REMARK  11 active torsions:
REMARK  status: ('A' for Active; 'I' for Inactive)
REMARK    1  A    between atoms: C_6  and  C_7 
REMARK    2  A    between atoms: C_7  and  O_8 
REMARK    3  A    between atoms: O_8  and  P_9 
REMARK    4  A    between atoms: P_9  and  O_10 
REMARK    5  A    between atoms: P_9  and  O_11 
REMARK    6  A    between atoms: C_13  and  C_14 
REMARK    7  A    between atoms: C_14  and  N_15 
REMARK    8  A    between atoms: N_15  and  C_16 
REMARK    9  A    between atoms: C_16  and  C_19 
REMARK   10  A    between atoms: C_19  and  O_20 
REMARK   11  A    between atoms: C_22  and  O_23 
ROOT
HETATM    1  C   UNK N   1      30.950  13.325   2.866  0.00  0.00     0.071 C 
HETATM    2  C   UNK N   1      31.549  14.457   3.630  0.00  0.00     0.039 A 
HETATM    3  N   UNK N   1      32.897  14.582   3.678  0.00  0.00    -0.367 N 
ATOM      4  HN  UNK N   1      33.477  13.901   3.188  1.00  0.00     0.165 HD
HETATM    5  C   UNK N   1      33.496  15.592   4.359  0.00  0.00     0.098 A 
HETATM    6  C   UNK N   1      32.739  16.555   5.030  0.00  0.00    -0.008 A 
HETATM    7  C   UNK N   1      31.321  16.456   4.993  0.00  0.00     0.004 A 
HETATM    8  C   UNK N   1      30.732  15.386   4.289  0.00  0.00     0.096 A 
ENDROOT
BRANCH   7   9
HETATM    9  C   UNK N   1      30.416  17.451   5.662  0.00  0.00     0.157 C 
BRANCH   9  10
HETATM   10  N   UNK N   1      29.884  16.850   6.885  0.00  0.00    -0.401 N 
HETATM   11  H   UNK N   1      30.365  16.115   7.403  0.00  0.00     0.154 HD
BRANCH  10  12
HETATM   12  C   UNK N   1      28.588  17.406   7.293  0.00  0.00     0.105 C 
HETATM   13  C   UNK N   1      27.446  16.445   6.966  0.00  0.00     0.049 C 
HETATM   14  C   UNK N   1      28.356  18.662   6.477  0.00  0.00     0.049 C 
BRANCH  12  15
HETATM   15  C   UNK N   1      28.597  17.786   8.758  0.00  0.00     0.168 C 
HETATM   16  O   UNK N   1      29.641  17.749   9.391  0.00  0.00    -0.648 OA
BRANCH  15  17
HETATM   17  O   UNK N   1      27.467  18.192   9.371  0.00  0.00    -0.775 OA
HETATM   18  H   UNK N   1      26.587  17.933   9.180  0.00  0.00     0.167 HD
ENDBRANCH  15  17
ENDBRANCH  12  15
ENDBRANCH  10  12
ENDBRANCH   9  10
ENDBRANCH   7   9
BRANCH   6  19
HETATM   19  C   UNK N   1      33.534  17.613   5.759  0.00  0.00     0.221 C 
BRANCH  19  20
HETATM   20  O   UNK N   1      34.542  17.136   6.595  0.00  0.00    -0.292 OA
BRANCH  20  21
HETATM   21  P   UNK N   1      34.174  17.787   8.170  0.00  0.00     0.391 P 
HETATM   22  O   UNK N   1      34.933  19.133   8.315  0.00  0.00    -0.632 OA
BRANCH  21  23
HETATM   23  O   UNK N   1      32.482  18.140   8.322  0.00  0.00    -0.307 OA
HETATM   24  H   UNK N   1      31.738  17.544   8.142  0.00  0.00     0.222 HD
ENDBRANCH  21  23
BRANCH  21  25
HETATM   25  O   UNK N   1      34.700  16.762   9.474  0.00  0.00    -0.307 OA
HETATM   26  H   UNK N   1      35.351  16.056   9.344  0.00  0.00     0.222 HD
ENDBRANCH  21  25
ENDBRANCH  20  21
ENDBRANCH  19  20
ENDBRANCH   6  19
BRANCH   8  27
HETATM   27  O   UNK N   1      29.392  15.258   4.242  0.00  0.00    -0.358 OA
HETATM   28  H   UNK N   1      29.007  14.421   4.077  0.00  0.00     0.217 HD
ENDBRANCH   8  27
TORSDOF 11
ENDMDL
MODEL 5
REMARK VINA RESULT:      -5.6      3.535      6.992
REMARK  11 active torsions:
REMARK  status: ('A' for Active; 'I' for Inactive)
REMARK    1  A    between atoms: C_6  and  C_7 
REMARK    2  A    between atoms: C_7  and  O_8 
REMARK    3  A    between atoms: O_8  and  P_9 
REMARK    4  A    between atoms: P_9  and  O_10 
REMARK    5  A    between atoms: P_9  and  O_11 
REMARK    6  A    between atoms: C_13  and  C_14 
REMARK    7  A    between atoms: C_14  and  N_15 
REMARK    8  A    between atoms: N_15  and  C_16 
REMARK    9  A    between atoms: C_16  and  C_19 
REMARK   10  A    between atoms: C_19  and  O_20 
REMARK   11  A    between atoms: C_22  and  O_23 
ROOT
HETATM    1  C   UNK N   1      33.272  16.211   2.774  0.00  0.00     0.071 C 
HETATM    2  C   UNK N   1      32.465  16.623   3.958  0.00  0.00     0.039 A 
HETATM    3  N   UNK N   1      33.085  16.801   5.149  0.00  0.00    -0.367 N 
ATOM      4  HN  UNK N   1      34.092  16.652   5.214  1.00  0.00     0.165 HD
HETATM    5  C   UNK N   1      32.400  17.175   6.260  0.00  0.00     0.098 A 
HETATM    6  C   UNK N   1      31.022  17.405   6.214  0.00  0.00    -0.008 A 
HETATM    7  C   UNK N   1      30.345  17.233   4.976  0.00  0.00     0.004 A 
HETATM    8  C   UNK N   1      31.083  16.829   3.845  0.00  0.00     0.096 A 
ENDROOT
BRANCH   7   9
HETATM    9  C   UNK N   1      28.871  17.476   4.813  0.00  0.00     0.157 C 
BRANCH   9  10
HETATM   10  N   UNK N   1      28.665  18.879   4.456  0.00  0.00    -0.401 N 
HETATM   11  H   UNK N   1      29.365  19.442   3.973  0.00  0.00     0.154 HD
BRANCH  10  12
HETATM   12  C   UNK N   1      27.355  19.400   4.864  0.00  0.00     0.105 C 
HETATM   13  C   UNK N   1      26.340  18.270   5.035  0.00  0.00     0.049 C 
HETATM   14  C   UNK N   1      26.848  20.282   3.740  0.00  0.00     0.049 C 
BRANCH  12  15
HETATM   15  C   UNK N   1      27.470  20.243   6.115  0.00  0.00     0.168 C 
HETATM   16  O   UNK N   1      27.686  21.442   6.024  0.00  0.00    -0.648 OA
BRANCH  15  17
HETATM   17  O   UNK N   1      27.311  19.691   7.334  0.00  0.00    -0.775 OA
HETATM   18  H   UNK N   1      27.782  18.969   7.702  0.00  0.00     0.167 HD
ENDBRANCH  15  17
ENDBRANCH  12  15
ENDBRANCH  10  12
ENDBRANCH   9  10
ENDBRANCH   7   9
BRANCH   6  19
HETATM   19  C   UNK N   1      30.386  17.801   7.524  0.00  0.00     0.221 C 
BRANCH  19  20
HETATM   20  O   UNK N   1      29.705  16.784   8.193  0.00  0.00    -0.292 OA
BRANCH  20  21
HETATM   21  P   UNK N   1      29.121  17.516   9.663  0.00  0.00     0.391 P 
HETATM   22  O   UNK N   1      29.879  18.856   9.856  0.00  0.00    -0.632 OA
BRANCH  21  23
HETATM   23  O   UNK N   1      27.433  17.900   9.544  0.00  0.00    -0.307 OA
HETATM   24  H   UNK N   1      26.956  18.605  10.008  0.00  0.00     0.222 HD
ENDBRANCH  21  23
BRANCH  21  25
HETATM   25  O   UNK N   1      29.425  16.550  11.077  0.00  0.00    -0.307 OA
HETATM   26  H   UNK N   1      29.642  15.606  11.019  0.00  0.00     0.222 HD
ENDBRANCH  21  25
ENDBRANCH  20  21
ENDBRANCH  19  20
ENDBRANCH   6  19
BRANCH   8  27
HETATM   27  O   UNK N   1      30.470  16.650   2.660  0.00  0.00    -0.358 OA
HETATM   28  H   UNK N   1      30.782  17.096   1.898  0.00  0.00     0.217 HD
ENDBRANCH   8  27
TORSDOF 11
ENDMDL
MODEL 6
REMARK VINA RESULT:      -5.5      2.773      4.333
REMARK  11 active torsions:
REMARK  status: ('A' for Active; 'I' for Inactive)
REMARK    1  A    between atoms: C_6  and  C_7 
REMARK    2  A    between atoms: C_7  and  O_8 
REMARK    3  A    between atoms: O_8  and  P_9 
REMARK    4  A    between atoms: P_9  and  O_10 
REMARK    5  A    between atoms: P_9  and  O_11 
REMARK    6  A    between atoms: C_13  and  C_14 
REMARK    7  A    between atoms: C_14  and  N_15 
REMARK    8  A    between atoms: N_15  and  C_16 
REMARK    9  A    between atoms: C_16  and  C_19 
REMARK   10  A    between atoms: C_19  and  O_20 
REMARK   11  A    between atoms: C_22  and  O_23 
ROOT
HETATM    1  C   UNK N   1      27.118  19.722   5.763  0.00  0.00     0.071 C 
HETATM    2  C   UNK N   1      28.108  18.894   6.510  0.00  0.00     0.039 A 
HETATM    3  N   UNK N   1      28.187  19.014   7.857  0.00  0.00    -0.367 N 
ATOM      4  HN  UNK N   1      27.567  19.667   8.335  1.00  0.00     0.165 HD
HETATM    5  C   UNK N   1      29.071  18.285   8.587  0.00  0.00     0.098 A 
HETATM    6  C   UNK N   1      29.928  17.368   7.974  0.00  0.00    -0.008 A 
HETATM    7  C   UNK N   1      29.864  17.214   6.562  0.00  0.00     0.004 A 
HETATM    8  C   UNK N   1      28.946  17.997   5.832  0.00  0.00     0.096 A 
ENDROOT
BRANCH   7   9
HETATM    9  C   UNK N   1      30.724  16.241   5.808  0.00  0.00     0.157 C 
BRANCH   9  10
HETATM   10  N   UNK N   1      31.770  16.986   5.108  0.00  0.00    -0.401 N 
HETATM   11  H   UNK N   1      31.690  17.975   4.874  0.00  0.00     0.154 HD
BRANCH  10  12
HETATM   12  C   UNK N   1      32.945  16.172   4.774  0.00  0.00     0.105 C 
HETATM   13  C   UNK N   1      33.271  16.257   3.284  0.00  0.00     0.049 C 
HETATM   14  C   UNK N   1      32.593  14.727   5.068  0.00  0.00     0.049 C 
BRANCH  12  15
HETATM   15  C   UNK N   1      34.133  16.555   5.629  0.00  0.00     0.168 C 
HETATM   16  O   UNK N   1      35.118  15.834   5.662  0.00  0.00    -0.648 OA
BRANCH  15  17
HETATM   17  O   UNK N   1      34.128  17.701   6.340  0.00  0.00    -0.775 OA
HETATM   18  H   UNK N   1      34.009  17.802   7.263  0.00  0.00     0.167 HD
ENDBRANCH  15  17
ENDBRANCH  12  15
ENDBRANCH  10  12
ENDBRANCH   9  10
ENDBRANCH   7   9
BRANCH   6  19
HETATM   19  C   UNK N   1      30.867  16.637   8.903  0.00  0.00     0.221 C 
BRANCH  19  20
HETATM   20  O   UNK N   1      32.226  16.825   8.651  0.00  0.00    -0.292 OA
BRANCH  20  21
HETATM   21  P   UNK N   1      32.991  15.338   9.147  0.00  0.00     0.391 P 
HETATM   22  O   UNK N   1      32.206  14.166   8.502  0.00  0.00    -0.632 OA
BRANCH  21  23
HETATM   23  O   UNK N   1      34.619  15.244   8.557  0.00  0.00    -0.307 OA
HETATM   24  H   UNK N   1      34.977  15.647   7.750  0.00  0.00     0.222 HD
ENDBRANCH  21  23
BRANCH  21  25
HETATM   25  O   UNK N   1      32.954  15.091  10.868  0.00  0.00    -0.307 OA
HETATM   26  H   UNK N   1      32.122  15.015  11.361  0.00  0.00     0.222 HD
ENDBRANCH  21  25
ENDBRANCH  20  21
ENDBRANCH  19  20
ENDBRANCH   6  19
BRANCH   8  27
HETATM   27  O   UNK N   1      28.866  17.881   4.493  0.00  0.00    -0.358 OA
HETATM   28  H   UNK N   1      28.073  18.106   4.050  0.00  0.00     0.217 HD
ENDBRANCH   8  27
TORSDOF 11
ENDMDL
MODEL 7
REMARK VINA RESULT:      -5.4      6.403      8.504
REMARK  11 active torsions:
REMARK  status: ('A' for Active; 'I' for Inactive)
REMARK    1  A    between atoms: C_6  and  C_7 
REMARK    2  A    between atoms: C_7  and  O_8 
REMARK    3  A    between atoms: O_8  and  P_9 
REMARK    4  A    between atoms: P_9  and  O_10 
REMARK    5  A    between atoms: P_9  and  O_11 
REMARK    6  A    between atoms: C_13  and  C_14 
REMARK    7  A    between atoms: C_14  and  N_15 
REMARK    8  A    between atoms: N_15  and  C_16 
REMARK    9  A    between atoms: C_16  and  C_19 
REMARK   10  A    between atoms: C_19  and  O_20 
REMARK   11  A    between atoms: C_22  and  O_23 
ROOT
HETATM    1  C   UNK N   1      37.334  15.147  15.980  0.00  0.00     0.071 C 
HETATM    2  C   UNK N   1      36.488  14.093  15.349  0.00  0.00     0.039 A 
HETATM    3  N   UNK N   1      35.937  13.133  16.129  0.00  0.00    -0.367 N 
ATOM      4  HN  UNK N   1      36.109  13.150  17.134  1.00  0.00     0.165 HD
HETATM    5  C   UNK N   1      35.160  12.150  15.608  0.00  0.00     0.098 A 
HETATM    6  C   UNK N   1      34.886  12.098  14.239  0.00  0.00    -0.008 A 
HETATM    7  C   UNK N   1      35.444  13.095  13.394  0.00  0.00     0.004 A 
HETATM    8  C   UNK N   1      36.260  14.093  13.966  0.00  0.00     0.096 A 
ENDROOT
BRANCH   7   9
HETATM    9  C   UNK N   1      35.194  13.143  11.913  0.00  0.00     0.157 C 
BRANCH   9  10
HETATM   10  N   UNK N   1      34.404  14.337  11.612  0.00  0.00    -0.401 N 
HETATM   11  H   UNK N   1      33.736  14.745  12.265  0.00  0.00     0.154 HD
BRANCH  10  12
HETATM   12  C   UNK N   1      34.664  14.888  10.276  0.00  0.00     0.105 C 
HETATM   13  C   UNK N   1      33.402  14.870   9.415  0.00  0.00     0.049 C 
HETATM   14  C   UNK N   1      35.673  13.980   9.600  0.00  0.00     0.049 C 
BRANCH  12  15
HETATM   15  C   UNK N   1      35.260  16.275  10.368  0.00  0.00     0.168 C 
HETATM   16  O   UNK N   1      36.420  16.419  10.721  0.00  0.00    -0.648 OA
BRANCH  15  17
HETATM   17  O   UNK N   1      34.531  17.361  10.038  0.00  0.00    -0.775 OA
HETATM   18  H   UNK N   1      34.152  17.994  10.615  0.00  0.00     0.167 HD
ENDBRANCH  15  17
ENDBRANCH  12  15
ENDBRANCH  10  12
ENDBRANCH   9  10
ENDBRANCH   7   9
BRANCH   6  19
HETATM   19  C   UNK N   1      34.020  10.943  13.794  0.00  0.00     0.221 C 
BRANCH  19  20
HETATM   20  O   UNK N   1      34.686   9.734  13.598  0.00  0.00    -0.292 OA
BRANCH  20  21
HETATM   21  P   UNK N   1      34.510   9.386  11.899  0.00  0.00     0.391 P 
HETATM   22  O   UNK N   1      35.846   9.753  11.201  0.00  0.00    -0.632 OA
BRANCH  21  23
HETATM   23  O   UNK N   1      34.245   7.693  11.630  0.00  0.00    -0.307 OA
HETATM   24  H   UNK N   1      34.096   7.007  12.300  0.00  0.00     0.222 HD
ENDBRANCH  21  23
BRANCH  21  25
HETATM   25  O   UNK N   1      33.261  10.324  11.134  0.00  0.00    -0.307 OA
HETATM   26  H   UNK N   1      33.211  11.288  11.227  0.00  0.00     0.222 HD
ENDBRANCH  21  25
ENDBRANCH  20  21
ENDBRANCH  19  20
ENDBRANCH   6  19
BRANCH   8  27
HETATM   27  O   UNK N   1      36.810  15.048  13.192  0.00  0.00    -0.358 OA
HETATM   28  H   UNK N   1      36.262  15.636  12.712  0.00  0.00     0.217 HD
ENDBRANCH   8  27
TORSDOF 11
ENDMDL
MODEL 8
REMARK VINA RESULT:      -5.4      7.625      9.647
REMARK  11 active torsions:
REMARK  status: ('A' for Active; 'I' for Inactive)
REMARK    1  A    between atoms: C_6  and  C_7 
REMARK    2  A    between atoms: C_7  and  O_8 
REMARK    3  A    between atoms: O_8  and  P_9 
REMARK    4  A    between atoms: P_9  and  O_10 
REMARK    5  A    between atoms: P_9  and  O_11 
REMARK    6  A    between atoms: C_13  and  C_14 
REMARK    7  A    between atoms: C_14  and  N_15 
REMARK    8  A    between atoms: N_15  and  C_16 
REMARK    9  A    between atoms: C_16  and  C_19 
REMARK   10  A    between atoms: C_19  and  O_20 
REMARK   11  A    between atoms: C_22  and  O_23 
ROOT
HETATM    1  C   UNK N   1      23.628  14.199   7.059  0.00  0.00     0.071 C 
HETATM    2  C   UNK N   1      23.164  15.422   6.344  0.00  0.00     0.039 A 
HETATM    3  N   UNK N   1      21.840  15.709   6.316  0.00  0.00    -0.367 N 
ATOM      4  HN  UNK N   1      21.186  15.085   6.787  1.00  0.00     0.165 HD
HETATM    5  C   UNK N   1      21.363  16.809   5.680  0.00  0.00     0.098 A 
HETATM    6  C   UNK N   1      22.225  17.700   5.036  0.00  0.00    -0.008 A 
HETATM    7  C   UNK N   1      23.620  17.430   5.053  0.00  0.00     0.004 A 
HETATM    8  C   UNK N   1      24.082  16.271   5.710  0.00  0.00     0.096 A 
ENDROOT
BRANCH   7   9
HETATM    9  C   UNK N   1      24.634  18.334   4.411  0.00  0.00     0.157 C 
BRANCH   9  10
HETATM   10  N   UNK N   1      25.276  19.132   5.455  0.00  0.00    -0.401 N 
HETATM   11  H   UNK N   1      24.861  19.290   6.373  0.00  0.00     0.154 HD
BRANCH  10  12
HETATM   12  C   UNK N   1      26.575  19.686   5.052  0.00  0.00     0.105 C 
HETATM   13  C   UNK N   1      26.914  20.940   5.856  0.00  0.00     0.049 C 
HETATM   14  C   UNK N   1      26.457  20.108   3.601  0.00  0.00     0.049 C 
BRANCH  12  15
HETATM   15  C   UNK N   1      27.665  18.642   5.156  0.00  0.00     0.168 C 
HETATM   16  O   UNK N   1      27.660  17.845   6.082  0.00  0.00    -0.648 OA
BRANCH  15  17
HETATM   17  O   UNK N   1      28.633  18.562   4.221  0.00  0.00    -0.775 OA
HETATM   18  H   UNK N   1      28.574  18.185   3.366  0.00  0.00     0.167 HD
ENDBRANCH  15  17
ENDBRANCH  12  15
ENDBRANCH  10  12
ENDBRANCH   9  10
ENDBRANCH   7   9
BRANCH   6  19
HETATM   19  C   UNK N   1      21.558  18.872   4.356  0.00  0.00     0.221 C 
BRANCH  19  20
HETATM   20  O   UNK N   1      21.564  18.841   2.962  0.00  0.00    -0.292 OA
BRANCH  20  21
HETATM   21  P   UNK N   1      21.689  20.509   2.470  0.00  0.00     0.391 P 
HETATM   22  O   UNK N   1      21.499  20.562   0.930  0.00  0.00    -0.632 OA
BRANCH  21  23
HETATM   23  O   UNK N   1      20.423  21.465   3.171  0.00  0.00    -0.307 OA
HETATM   24  H   UNK N   1      19.493  21.215   3.290  0.00  0.00     0.222 HD
ENDBRANCH  21  23
BRANCH  21  25
HETATM   25  O   UNK N   1      23.242  21.210   2.816  0.00  0.00    -0.307 OA
HETATM   26  H   UNK N   1      23.413  21.709   3.629  0.00  0.00     0.222 HD
ENDBRANCH  21  25
ENDBRANCH  20  21
ENDBRANCH  19  20
ENDBRANCH   6  19
BRANCH   8  27
HETATM   27  O   UNK N   1      25.397  15.982   5.738  0.00  0.00    -0.358 OA
HETATM   28  H   UNK N   1      25.912  16.212   6.485  0.00  0.00     0.217 HD
ENDBRANCH   8  27
TORSDOF 11
ENDMDL
MODEL 9
REMARK VINA RESULT:      -5.3      4.011      6.304
REMARK  11 active torsions:
REMARK  status: ('A' for Active; 'I' for Inactive)
REMARK    1  A    between atoms: C_6  and  C_7 
REMARK    2  A    between atoms: C_7  and  O_8 
REMARK    3  A    between atoms: O_8  and  P_9 
REMARK    4  A    between atoms: P_9  and  O_10 
REMARK    5  A    between atoms: P_9  and  O_11 
REMARK    6  A    between atoms: C_13  and  C_14 
REMARK    7  A    between atoms: C_14  and  N_15 
REMARK    8  A    between atoms: N_15  and  C_16 
REMARK    9  A    between atoms: C_16  and  C_19 
REMARK   10  A    between atoms: C_19  and  O_20 
REMARK   11  A    between atoms: C_22  and  O_23 
ROOT
HETATM    1  C   UNK N   1      32.459  10.925   5.656  0.00  0.00     0.071 C 
HETATM    2  C   UNK N   1      33.350  11.611   6.636  0.00  0.00     0.039 A 
HETATM    3  N   UNK N   1      33.985  10.876   7.579  0.00  0.00    -0.367 N 
ATOM      4  HN  UNK N   1      33.844   9.866   7.601  1.00  0.00     0.165 HD
HETATM    5  C   UNK N   1      34.807  11.449   8.496  0.00  0.00     0.098 A 
HETATM    6  C   UNK N   1      35.041  12.826   8.493  0.00  0.00    -0.008 A 
HETATM    7  C   UNK N   1      34.394  13.624   7.510  0.00  0.00     0.004 A 
HETATM    8  C   UNK N   1      33.535  13.000   6.583  0.00  0.00     0.096 A 
ENDROOT
BRANCH   7   9
HETATM    9  C   UNK N   1      34.594  15.110   7.406  0.00  0.00     0.157 C 
BRANCH   9  10
HETATM   10  N   UNK N   1      33.582  15.776   8.224  0.00  0.00    -0.401 N 
HETATM   11  H   UNK N   1      32.962  15.279   8.863  0.00  0.00     0.154 HD
BRANCH  10  12
HETATM   12  C   UNK N   1      33.544  17.232   8.036  0.00  0.00     0.105 C 
HETATM   13  C   UNK N   1      32.159  17.794   8.352  0.00  0.00     0.049 C 
HETATM   14  C   UNK N   1      33.807  17.506   6.569  0.00  0.00     0.049 C 
BRANCH  12  15
HETATM   15  C   UNK N   1      34.623  17.913   8.848  0.00  0.00     0.168 C 
HETATM   16  O   UNK N   1      35.000  17.417   9.899  0.00  0.00    -0.648 OA
BRANCH  15  17
HETATM   17  O   UNK N   1      35.196  19.053   8.413  0.00  0.00    -0.775 OA
HETATM   18  H   UNK N   1      36.016  19.150   7.970  0.00  0.00     0.167 HD
ENDBRANCH  15  17
ENDBRANCH  12  15
ENDBRANCH  10  12
ENDBRANCH   9  10
ENDBRANCH   7   9
BRANCH   6  19
HETATM   19  C   UNK N   1      35.964  13.330   9.577  0.00  0.00     0.221 C 
BRANCH  19  20
HETATM   20  O   UNK N   1      35.694  12.860  10.862  0.00  0.00    -0.292 OA
BRANCH  20  21
HETATM   21  P   UNK N   1      35.170  14.260  11.758  0.00  0.00     0.391 P 
HETATM   22  O   UNK N   1      34.968  13.827  13.235  0.00  0.00    -0.632 OA
BRANCH  21  23
HETATM   23  O   UNK N   1      36.386  15.497  11.755  0.00  0.00    -0.307 OA
HETATM   24  H   UNK N   1      37.154  15.566  11.166  0.00  0.00     0.222 HD
ENDBRANCH  21  23
BRANCH  21  25
HETATM   25  O   UNK N   1      33.652  14.901  11.203  0.00  0.00    -0.307 OA
HETATM   26  H   UNK N   1      33.081  15.442  11.770  0.00  0.00     0.222 HD
ENDBRANCH  21  25
ENDBRANCH  20  21
ENDBRANCH  19  20
ENDBRANCH   6  19
BRANCH   8  27
HETATM   27  O   UNK N   1      32.901  13.729   5.644  0.00  0.00    -0.358 OA
HETATM   28  H   UNK N   1      32.844  14.659   5.733  0.00  0.00     0.217 HD
ENDBRANCH   8  27
TORSDOF 11
ENDMDL
