MODEL 1
REMARK VINA RESULT:      -7.5      0.000      0.000
REMARK  8 active torsions:
REMARK  status: ('A' for Active; 'I' for Inactive)
REMARK    1  A    between atoms: C_9  and  C_8 
REMARK    2  A    between atoms: C_13  and  C_8 
REMARK    3  A    between atoms: N_23  and  C_9 
REMARK    4  A    between atoms: C_16  and  C_14 
REMARK    5  A    between atoms: C_21  and  C_15 
REMARK    6  A    between atoms: C_22  and  C_17 
REMARK    7  A    between atoms: O_30  and  C_20 
REMARK    8  A    between atoms: N_26  and  C_21 
ROOT
HETATM    1  C   UNK N   1      30.644  17.165   6.748  0.00  0.00     0.022 A 
HETATM    2  C   UNK N   1      28.492  18.276   6.962  0.00  0.00     0.025 A 
HETATM    3  C   UNK N   1      29.694  17.831   7.536  0.00  0.00    -0.055 A 
HETATM    4  C   UNK N   1      30.411  16.932   5.380  0.00  0.00     0.009 A 
HETATM    5  C   UNK N   1      28.231  18.047   5.606  0.00  0.00     0.043 A 
HETATM    6  C   UNK N   1      29.191  17.372   4.820  0.00  0.00     0.090 A 
ENDROOT
BRANCH   5   7
HETATM    7  C   UNK N   1      26.991  18.547   4.957  0.00  0.00     0.119 A 
HETATM    8  N   UNK N   1      27.033  19.492   3.988  0.00  0.00    -0.340 N 
HETATM    9  C   UNK N   1      25.763  19.719   3.679  0.00  0.00     0.060 A 
ATOM     10  HN  UNK N   1      27.860  19.933   3.586  1.00  0.00     0.167 HD
HETATM   11  C   UNK N   1      25.287  20.617   2.744  0.00  0.00     0.033 A 
HETATM   12  C   UNK N   1      24.961  18.926   4.436  0.00  0.00     0.061 A 
HETATM   13  C   UNK N   1      23.902  20.691   2.576  0.00  0.00     0.017 A 
HETATM   14  C   UNK N   1      23.034  19.869   3.337  0.00  0.00     0.009 A 
HETATM   15  C   UNK N   1      23.571  18.965   4.294  0.00  0.00     0.047 A 
HETATM   16  N   UNK N   1      25.714  18.174   5.267  0.00  0.00    -0.340 N 
HETATM   17  H   UNK N   1      25.415  17.516   5.934  0.00  0.00     0.167 HD
BRANCH  14  18
HETATM   18  C   UNK N   1      21.577  19.961   3.113  0.00  0.00     0.102 C 
HETATM   19  N   UNK N   1      21.063  21.038   2.641  0.00  0.00    -0.385 N 
HETATM   20  H   UNK N   1      20.085  21.127   2.568  0.00  0.00     0.157 HD
ATOM     21  HN  UNK N   1      21.668  21.803   2.342  1.00  0.00     0.157 HD
BRANCH  18  22
HETATM   22  N   UNK N   1      20.742  18.859   3.393  0.00  0.00    -0.385 N 
HETATM   23  H   UNK N   1      20.200  18.451   2.679  0.00  0.00     0.157 HD
HETATM   24  H   UNK N   1      20.700  18.496   4.307  0.00  0.00     0.157 HD
ENDBRANCH  18  22
ENDBRANCH  14  18
ENDBRANCH   5   7
BRANCH   6  25
HETATM   25  O   UNK N   1      28.933  17.134   3.522  0.00  0.00    -0.359 OA
HETATM   26  H   UNK N   1      28.949  16.260   3.187  0.00  0.00     0.217 HD
ENDBRANCH   6  25
BRANCH   3  27
HETATM   27  C   UNK N   1      30.015  18.157   8.958  0.00  0.00     0.066 C 
BRANCH  27  28
HETATM   28  C   UNK N   1      28.991  17.578   9.915  0.00  0.00     0.234 C 
BRANCH  28  29
HETATM   29  N   UNK N   1      29.642  16.610  10.780  0.00  0.00    -0.079 N 
HETATM   30  H   UNK N   1      29.185  16.012  11.468  0.00  0.00     0.274 HD
HETATM   31  H   UNK N   1      30.654  16.520  10.691  0.00  0.00     0.274 HD
HETATM   32  H   UNK N   1      30.172  15.952  11.352  0.00  0.00     0.274 HD
ENDBRANCH  28  29
ENDBRANCH  27  28
ENDBRANCH   3  27
BRANCH   4  33
HETATM   33  C   UNK N   1      31.455  16.272   4.529  0.00  0.00    -0.023 A 
HETATM   34  C   UNK N   1      32.358  17.031   3.770  0.00  0.00     0.012 A 
HETATM   35  C   UNK N   1      33.316  16.399   2.966  0.00  0.00     0.001 A 
HETATM   36  C   UNK N   1      33.370  15.002   2.897  0.00  0.00     0.000 A 
HETATM   37  C   UNK N   1      32.471  14.236   3.634  0.00  0.00     0.001 A 
HETATM   38  C   UNK N   1      31.528  14.867   4.441  0.00  0.00     0.012 A 
ENDBRANCH   4  33
TORSDOF 8
ENDMDL
MODEL 2
REMARK VINA RESULT:      -7.3      6.277      8.929
REMARK  8 active torsions:
REMARK  status: ('A' for Active; 'I' for Inactive)
REMARK    1  A    between atoms: C_9  and  C_8 
REMARK    2  A    between atoms: C_13  and  C_8 
REMARK    3  A    between atoms: N_23  and  C_9 
REMARK    4  A    between atoms: C_16  and  C_14 
REMARK    5  A    between atoms: C_21  and  C_15 
REMARK    6  A    between atoms: C_22  and  C_17 
REMARK    7  A    between atoms: O_30  and  C_20 
REMARK    8  A    between atoms: N_26  and  C_21 
ROOT
HETATM    1  C   UNK N   1      36.538  13.681  10.080  0.00  0.00     0.022 A 
HETATM    2  C   UNK N   1      35.302  14.661   8.230  0.00  0.00     0.025 A 
HETATM    3  C   UNK N   1      36.450  14.020   8.722  0.00  0.00    -0.055 A 
HETATM    4  C   UNK N   1      35.486  13.975  10.966  0.00  0.00     0.009 A 
HETATM    5  C   UNK N   1      34.245  14.974   9.093  0.00  0.00     0.043 A 
HETATM    6  C   UNK N   1      34.343  14.633  10.460  0.00  0.00     0.090 A 
ENDROOT
BRANCH   5   7
HETATM    7  C   UNK N   1      32.996  15.609   8.595  0.00  0.00     0.119 A 
HETATM    8  N   UNK N   1      32.416  15.211   7.440  0.00  0.00    -0.340 N 
HETATM    9  C   UNK N   1      31.367  16.011   7.293  0.00  0.00     0.060 A 
ATOM     10  HN  UNK N   1      32.718  14.461   6.817  1.00  0.00     0.167 HD
HETATM   11  C   UNK N   1      30.461  16.003   6.251  0.00  0.00     0.033 A 
HETATM   12  C   UNK N   1      31.303  16.874   8.339  0.00  0.00     0.061 A 
HETATM   13  C   UNK N   1      29.422  16.938   6.300  0.00  0.00     0.017 A 
HETATM   14  C   UNK N   1      29.315  17.845   7.384  0.00  0.00     0.009 A 
HETATM   15  C   UNK N   1      30.278  17.819   8.429  0.00  0.00     0.047 A 
HETATM   16  N   UNK N   1      32.333  16.649   9.182  0.00  0.00    -0.340 N 
HETATM   17  H   UNK N   1      32.553  17.120  10.017  0.00  0.00     0.167 HD
BRANCH  14  18
HETATM   18  C   UNK N   1      28.190  18.802   7.410  0.00  0.00     0.102 C 
HETATM   19  N   UNK N   1      27.833  19.409   6.337  0.00  0.00    -0.385 N 
HETATM   20  H   UNK N   1      27.136  20.104   6.372  0.00  0.00     0.157 HD
ATOM     21  HN  UNK N   1      28.271  19.171   5.447  1.00  0.00     0.157 HD
BRANCH  18  22
HETATM   22  N   UNK N   1      27.483  19.039   8.608  0.00  0.00    -0.385 N 
HETATM   23  H   UNK N   1      27.241  19.957   8.869  0.00  0.00     0.157 HD
HETATM   24  H   UNK N   1      27.232  18.283   9.186  0.00  0.00     0.157 HD
ENDBRANCH  18  22
ENDBRANCH  14  18
ENDBRANCH   5   7
BRANCH   6  25
HETATM   25  O   UNK N   1      33.337  14.952  11.294  0.00  0.00    -0.359 OA
HETATM   26  H   UNK N   1      33.119  14.391  12.011  0.00  0.00     0.217 HD
ENDBRANCH   6  25
BRANCH   3  27
HETATM   27  C   UNK N   1      37.538  13.601   7.787  0.00  0.00     0.066 C 
BRANCH  27  28
HETATM   28  C   UNK N   1      38.913  13.789   8.399  0.00  0.00     0.234 C 
BRANCH  28  29
HETATM   29  N   UNK N   1      39.669  12.557   8.256  0.00  0.00    -0.079 N 
HETATM   30  H   UNK N   1      39.874  12.072   7.383  0.00  0.00     0.274 HD
HETATM   31  H   UNK N   1      40.029  12.136   9.113  0.00  0.00     0.274 HD
HETATM   32  H   UNK N   1      40.210  11.692   8.240  0.00  0.00     0.274 HD
ENDBRANCH  28  29
ENDBRANCH  27  28
ENDBRANCH   3  27
BRANCH   4  33
HETATM   33  C   UNK N   1      35.559  13.557  12.405  0.00  0.00    -0.023 A 
HETATM   34  C   UNK N   1      36.279  14.310  13.343  0.00  0.00     0.012 A 
HETATM   35  C   UNK N   1      36.352  13.896  14.680  0.00  0.00     0.001 A 
HETATM   36  C   UNK N   1      35.722  12.715  15.089  0.00  0.00     0.000 A 
HETATM   37  C   UNK N   1      35.016  11.949  14.165  0.00  0.00     0.001 A 
HETATM   38  C   UNK N   1      34.936  12.370  12.841  0.00  0.00     0.012 A 
ENDBRANCH   4  33
TORSDOF 8
ENDMDL
MODEL 3
REMARK VINA RESULT:      -7.2      9.846     13.124
REMARK  8 active torsions:
REMARK  status: ('A' for Active; 'I' for Inactive)
REMARK    1  A    between atoms: C_9  and  C_8 
REMARK    2  A    between atoms: C_13  and  C_8 
REMARK    3  A    between atoms: N_23  and  C_9 
REMARK    4  A    between atoms: C_16  and  C_14 
REMARK    5  A    between atoms: C_21  and  C_15 
REMARK    6  A    between atoms: C_22  and  C_17 
REMARK    7  A    between atoms: O_30  and  C_20 
REMARK    8  A    between atoms: N_26  and  C_21 
ROOT
HETATM    1  C   UNK N   1      36.292  11.522  16.188  0.00  0.00     0.022 A 
HETATM    2  C   UNK N   1      35.201  13.459  15.203  0.00  0.00     0.025 A 
HETATM    3  C   UNK N   1      35.566  12.713  16.335  0.00  0.00    -0.055 A 
HETATM    4  C   UNK N   1      36.664  11.058  14.914  0.00  0.00     0.009 A 
HETATM    5  C   UNK N   1      35.550  13.013  13.923  0.00  0.00     0.043 A 
HETATM    6  C   UNK N   1      36.277  11.811  13.783  0.00  0.00     0.090 A 
ENDROOT
BRANCH   5   7
HETATM    7  C   UNK N   1      35.221  13.803  12.707  0.00  0.00     0.119 A 
HETATM    8  N   UNK N   1      34.527  13.260  11.680  0.00  0.00    -0.340 N 
HETATM    9  C   UNK N   1      34.458  14.223  10.770  0.00  0.00     0.060 A 
ATOM     10  HN  UNK N   1      34.142  12.318  11.619  1.00  0.00     0.167 HD
HETATM   11  C   UNK N   1      33.853  14.148   9.530  0.00  0.00     0.033 A 
HETATM   12  C   UNK N   1      35.090  15.333  11.231  0.00  0.00     0.061 A 
HETATM   13  C   UNK N   1      33.896  15.291   8.727  0.00  0.00     0.017 A 
HETATM   14  C   UNK N   1      34.534  16.472   9.182  0.00  0.00     0.009 A 
HETATM   15  C   UNK N   1      35.150  16.498  10.463  0.00  0.00     0.047 A 
HETATM   16  N   UNK N   1      35.595  15.094  12.461  0.00  0.00    -0.340 N 
HETATM   17  H   UNK N   1      36.107  15.702  13.039  0.00  0.00     0.167 HD
BRANCH  14  18
HETATM   18  C   UNK N   1      34.538  17.666   8.312  0.00  0.00     0.102 C 
HETATM   19  N   UNK N   1      35.048  18.767   8.730  0.00  0.00    -0.385 N 
HETATM   20  H   UNK N   1      34.979  19.583   8.181  0.00  0.00     0.157 HD
ATOM     21  HN  UNK N   1      35.526  18.799   9.631  1.00  0.00     0.157 HD
BRANCH  18  22
HETATM   22  N   UNK N   1      34.003  17.600   7.008  0.00  0.00    -0.385 N 
HETATM   23  H   UNK N   1      33.233  17.018   6.816  0.00  0.00     0.157 HD
HETATM   24  H   UNK N   1      34.402  18.138   6.287  0.00  0.00     0.157 HD
ENDBRANCH  18  22
ENDBRANCH  14  18
ENDBRANCH   5   7
BRANCH   6  25
HETATM   25  O   UNK N   1      36.595  11.371  12.552  0.00  0.00    -0.359 OA
HETATM   26  H   UNK N   1      36.382  11.881  11.796  0.00  0.00     0.217 HD
ENDBRANCH   6  25
BRANCH   3  27
HETATM   27  C   UNK N   1      35.277  13.235  17.706  0.00  0.00     0.066 C 
BRANCH  27  28
HETATM   28  C   UNK N   1      35.313  12.134  18.749  0.00  0.00     0.234 C 
BRANCH  28  29
HETATM   29  N   UNK N   1      35.518  12.726  20.058  0.00  0.00    -0.079 N 
HETATM   30  H   UNK N   1      34.794  13.099  20.672  0.00  0.00     0.274 HD
HETATM   31  H   UNK N   1      36.479  12.775  20.397  0.00  0.00     0.274 HD
HETATM   32  H   UNK N   1      35.744  13.129  20.969  0.00  0.00     0.274 HD
ENDBRANCH  28  29
ENDBRANCH  27  28
ENDBRANCH   3  27
BRANCH   4  33
HETATM   33  C   UNK N   1      37.491   9.816  14.765  0.00  0.00    -0.023 A 
HETATM   34  C   UNK N   1      36.897   8.545  14.755  0.00  0.00     0.012 A 
HETATM   35  C   UNK N   1      37.687   7.394  14.633  0.00  0.00     0.001 A 
HETATM   36  C   UNK N   1      39.079   7.498  14.538  0.00  0.00     0.000 A 
HETATM   37  C   UNK N   1      39.684   8.753  14.561  0.00  0.00     0.001 A 
HETATM   38  C   UNK N   1      38.896   9.895  14.670  0.00  0.00     0.012 A 
ENDBRANCH   4  33
TORSDOF 8
ENDMDL
MODEL 4
REMARK VINA RESULT:      -7.1     10.362     14.462
REMARK  8 active torsions:
REMARK  status: ('A' for Active; 'I' for Inactive)
REMARK    1  A    between atoms: C_9  and  C_8 
REMARK    2  A    between atoms: C_13  and  C_8 
REMARK    3  A    between atoms: N_23  and  C_9 
REMARK    4  A    between atoms: C_16  and  C_14 
REMARK    5  A    between atoms: C_21  and  C_15 
REMARK    6  A    between atoms: C_22  and  C_17 
REMARK    7  A    between atoms: O_30  and  C_20 
REMARK    8  A    between atoms: N_26  and  C_21 
ROOT
HETATM    1  C   UNK N   1      26.166  24.846  -6.490  0.00  0.00     0.022 A 
HETATM    2  C   UNK N   1      27.482  22.801  -6.442  0.00  0.00     0.025 A 
HETATM    3  C   UNK N   1      26.368  23.521  -6.904  0.00  0.00    -0.055 A 
HETATM    4  C   UNK N   1      27.068  25.471  -5.611  0.00  0.00     0.009 A 
HETATM    5  C   UNK N   1      28.389  23.398  -5.559  0.00  0.00     0.043 A 
HETATM    6  C   UNK N   1      28.176  24.731  -5.143  0.00  0.00     0.090 A 
ENDROOT
BRANCH   5   7
HETATM    7  C   UNK N   1      29.604  22.681  -5.089  0.00  0.00     0.119 A 
HETATM    8  N   UNK N   1      29.985  22.715  -3.791  0.00  0.00    -0.340 N 
HETATM    9  C   UNK N   1      31.111  22.014  -3.749  0.00  0.00     0.060 A 
ATOM     10  HN  UNK N   1      29.511  23.178  -3.016  1.00  0.00     0.167 HD
HETATM   11  C   UNK N   1      31.892  21.770  -2.636  0.00  0.00     0.033 A 
HETATM   12  C   UNK N   1      31.409  21.556  -4.991  0.00  0.00     0.061 A 
HETATM   13  C   UNK N   1      33.043  20.999  -2.819  0.00  0.00     0.017 A 
HETATM   14  C   UNK N   1      33.378  20.491  -4.099  0.00  0.00     0.009 A 
HETATM   15  C   UNK N   1      32.547  20.776  -5.216  0.00  0.00     0.047 A 
HETATM   16  N   UNK N   1      30.472  21.972  -5.870  0.00  0.00    -0.340 N 
HETATM   17  H   UNK N   1      30.425  21.804  -6.838  0.00  0.00     0.167 HD
BRANCH  14  18
HETATM   18  C   UNK N   1      34.591  19.660  -4.247  0.00  0.00     0.102 C 
HETATM   19  N   UNK N   1      34.509  18.381  -4.181  0.00  0.00    -0.385 N 
HETATM   20  H   UNK N   1      35.327  17.833  -4.199  0.00  0.00     0.157 HD
ATOM     21  HN  UNK N   1      33.597  17.931  -4.109  1.00  0.00     0.157 HD
BRANCH  18  22
HETATM   22  N   UNK N   1      35.844  20.264  -4.484  0.00  0.00    -0.385 N 
HETATM   23  H   UNK N   1      36.260  20.833  -3.797  0.00  0.00     0.157 HD
HETATM   24  H   UNK N   1      36.304  20.116  -5.341  0.00  0.00     0.157 HD
ENDBRANCH  18  22
ENDBRANCH  14  18
ENDBRANCH   5   7
BRANCH   6  25
HETATM   25  O   UNK N   1      29.037  25.298  -4.278  0.00  0.00    -0.359 OA
HETATM   26  H   UNK N   1      29.138  26.228  -4.251  0.00  0.00     0.217 HD
ENDBRANCH   6  25
BRANCH   3  27
HETATM   27  C   UNK N   1      25.451  22.919  -7.919  0.00  0.00     0.066 C 
BRANCH  27  28
HETATM   28  C   UNK N   1      25.116  21.476  -7.593  0.00  0.00     0.234 C 
BRANCH  28  29
HETATM   29  N   UNK N   1      23.869  21.434  -6.850  0.00  0.00    -0.079 N 
HETATM   30  H   UNK N   1      23.340  22.238  -6.512  0.00  0.00     0.274 HD
HETATM   31  H   UNK N   1      23.484  20.511  -6.648  0.00  0.00     0.274 HD
HETATM   32  H   UNK N   1      22.996  21.321  -6.333  0.00  0.00     0.274 HD
ENDBRANCH  28  29
ENDBRANCH  27  28
ENDBRANCH   3  27
BRANCH   4  33
HETATM   33  C   UNK N   1      26.881  26.907  -5.218  0.00  0.00    -0.023 A 
HETATM   34  C   UNK N   1      27.524  27.940  -5.916  0.00  0.00     0.012 A 
HETATM   35  C   UNK N   1      27.351  29.275  -5.525  0.00  0.00     0.001 A 
HETATM   36  C   UNK N   1      26.551  29.590  -4.422  0.00  0.00     0.000 A 
HETATM   37  C   UNK N   1      25.919  28.574  -3.710  0.00  0.00     0.001 A 
HETATM   38  C   UNK N   1      26.082  27.250  -4.109  0.00  0.00     0.012 A 
ENDBRANCH   4  33
TORSDOF 8
ENDMDL
MODEL 5
REMARK VINA RESULT:      -7.1      8.901     13.609
REMARK  8 active torsions:
REMARK  status: ('A' for Active; 'I' for Inactive)
REMARK    1  A    between atoms: C_9  and  C_8 
REMARK    2  A    between atoms: C_13  and  C_8 
REMARK    3  A    between atoms: N_23  and  C_9 
REMARK    4  A    between atoms: C_16  and  C_14 
REMARK    5  A    between atoms: C_21  and  C_15 
REMARK    6  A    between atoms: C_22  and  C_17 
REMARK    7  A    between atoms: O_30  and  C_20 
REMARK    8  A    between atoms: N_26  and  C_21 
ROOT
HETATM    1  C   UNK N   1      35.746  14.099   8.677  0.00  0.00     0.022 A 
HETATM    2  C   UNK N   1      36.506  12.699  10.515  0.00  0.00     0.025 A 
HETATM    3  C   UNK N   1      36.597  13.099   9.172  0.00  0.00    -0.055 A 
HETATM    4  C   UNK N   1      34.794  14.713   9.511  0.00  0.00     0.009 A 
HETATM    5  C   UNK N   1      35.560  13.287  11.362  0.00  0.00     0.043 A 
HETATM    6  C   UNK N   1      34.704  14.289  10.856  0.00  0.00     0.090 A 
ENDROOT
BRANCH   5   7
HETATM    7  C   UNK N   1      35.469  12.920  12.800  0.00  0.00     0.119 A 
HETATM    8  N   UNK N   1      35.145  11.665  13.189  0.00  0.00    -0.340 N 
HETATM    9  C   UNK N   1      35.119  11.715  14.514  0.00  0.00     0.060 A 
ATOM     10  HN  UNK N   1      34.961  10.857  12.593  1.00  0.00     0.167 HD
HETATM   11  C   UNK N   1      34.823  10.677  15.376  0.00  0.00     0.033 A 
HETATM   12  C   UNK N   1      35.426  12.971  14.929  0.00  0.00     0.061 A 
HETATM   13  C   UNK N   1      34.857  10.952  16.745  0.00  0.00     0.017 A 
HETATM   14  C   UNK N   1      35.189  12.248  17.215  0.00  0.00     0.009 A 
HETATM   15  C   UNK N   1      35.478  13.286  16.289  0.00  0.00     0.047 A 
HETATM   16  N   UNK N   1      35.646  13.764  13.859  0.00  0.00    -0.340 N 
HETATM   17  H   UNK N   1      35.879  14.720  13.845  0.00  0.00     0.167 HD
BRANCH  14  18
HETATM   18  C   UNK N   1      35.237  12.493  18.671  0.00  0.00     0.102 C 
HETATM   19  N   UNK N   1      35.227  13.693  19.125  0.00  0.00    -0.385 N 
HETATM   20  H   UNK N   1      35.340  13.858  20.089  0.00  0.00     0.157 HD
ATOM     21  HN  UNK N   1      35.102  14.479  18.486  1.00  0.00     0.157 HD
BRANCH  18  22
HETATM   22  N   UNK N   1      35.271  11.410  19.576  0.00  0.00    -0.385 N 
HETATM   23  H   UNK N   1      35.938  11.389  20.301  0.00  0.00     0.157 HD
HETATM   24  H   UNK N   1      34.627  10.673  19.482  0.00  0.00     0.157 HD
ENDBRANCH  18  22
ENDBRANCH  14  18
ENDBRANCH   5   7
BRANCH   6  25
HETATM   25  O   UNK N   1      33.781  14.841  11.665  0.00  0.00    -0.359 OA
HETATM   26  H   UNK N   1      33.169  14.301  12.124  0.00  0.00     0.217 HD
ENDBRANCH   6  25
BRANCH   3  27
HETATM   27  C   UNK N   1      37.667  12.542   8.291  0.00  0.00     0.066 C 
BRANCH  27  28
HETATM   28  C   UNK N   1      38.979  13.286   8.454  0.00  0.00     0.234 C 
BRANCH  28  29
HETATM   29  N   UNK N   1      40.065  12.324   8.530  0.00  0.00    -0.079 N 
HETATM   30  H   UNK N   1      40.766  12.148   7.810  0.00  0.00     0.274 HD
HETATM   31  H   UNK N   1      40.132  11.771   9.384  0.00  0.00     0.274 HD
HETATM   32  H   UNK N   1      40.799  11.628   8.659  0.00  0.00     0.274 HD
ENDBRANCH  28  29
ENDBRANCH  27  28
ENDBRANCH   3  27
BRANCH   4  33
HETATM   33  C   UNK N   1      33.928  15.823   8.994  0.00  0.00    -0.023 A 
HETATM   34  C   UNK N   1      32.594  15.591   8.626  0.00  0.00     0.012 A 
HETATM   35  C   UNK N   1      31.804  16.636   8.128  0.00  0.00     0.001 A 
HETATM   36  C   UNK N   1      32.343  17.918   7.975  0.00  0.00     0.000 A 
HETATM   37  C   UNK N   1      33.670  18.159   8.322  0.00  0.00     0.001 A 
HETATM   38  C   UNK N   1      34.448  17.122   8.828  0.00  0.00     0.012 A 
ENDBRANCH   4  33
TORSDOF 8
ENDMDL
MODEL 6
REMARK VINA RESULT:      -6.9      6.801      9.684
REMARK  8 active torsions:
REMARK  status: ('A' for Active; 'I' for Inactive)
REMARK    1  A    between atoms: C_9  and  C_8 
REMARK    2  A    between atoms: C_13  and  C_8 
REMARK    3  A    between atoms: N_23  and  C_9 
REMARK    4  A    between atoms: C_16  and  C_14 
REMARK    5  A    between atoms: C_21  and  C_15 
REMARK    6  A    between atoms: C_22  and  C_17 
REMARK    7  A    between atoms: O_30  and  C_20 
REMARK    8  A    between atoms: N_26  and  C_21 
ROOT
HETATM    1  C   UNK N   1      37.095  13.604  11.000  0.00  0.00     0.022 A 
HETATM    2  C   UNK N   1      36.176  14.508   8.938  0.00  0.00     0.025 A 
HETATM    3  C   UNK N   1      37.241  13.922   9.641  0.00  0.00    -0.055 A 
HETATM    4  C   UNK N   1      35.890  13.866  11.676  0.00  0.00     0.009 A 
HETATM    5  C   UNK N   1      34.970  14.789   9.590  0.00  0.00     0.043 A 
HETATM    6  C   UNK N   1      34.833  14.470  10.959  0.00  0.00     0.090 A 
ENDROOT
BRANCH   5   7
HETATM    7  C   UNK N   1      33.808  15.364   8.863  0.00  0.00     0.119 A 
HETATM    8  N   UNK N   1      33.151  16.450   9.333  0.00  0.00    -0.340 N 
HETATM    9  C   UNK N   1      32.165  16.652   8.467  0.00  0.00     0.060 A 
ATOM     10  HN  UNK N   1      33.365  16.994  10.169  1.00  0.00     0.167 HD
HETATM   11  C   UNK N   1      31.206  17.644   8.522  0.00  0.00     0.033 A 
HETATM   12  C   UNK N   1      32.222  15.715   7.486  0.00  0.00     0.061 A 
HETATM   13  C   UNK N   1      30.257  17.674   7.497  0.00  0.00     0.017 A 
HETATM   14  C   UNK N   1      30.294  16.721   6.448  0.00  0.00     0.009 A 
HETATM   15  C   UNK N   1      31.296  15.713   6.440  0.00  0.00     0.047 A 
HETATM   16  N   UNK N   1      33.253  14.874   7.716  0.00  0.00    -0.340 N 
HETATM   17  H   UNK N   1      33.537  14.096   7.184  0.00  0.00     0.167 HD
BRANCH  14  18
HETATM   18  C   UNK N   1      29.287  16.800   5.370  0.00  0.00     0.102 C 
HETATM   19  N   UNK N   1      28.295  15.987   5.352  0.00  0.00    -0.385 N 
HETATM   20  H   UNK N   1      27.669  15.988   4.591  0.00  0.00     0.157 HD
ATOM     21  HN  UNK N   1      28.154  15.337   6.126  1.00  0.00     0.157 HD
BRANCH  18  22
HETATM   22  N   UNK N   1      29.394  17.786   4.366  0.00  0.00    -0.385 N 
HETATM   23  H   UNK N   1      28.601  18.058   3.849  0.00  0.00     0.157 HD
HETATM   24  H   UNK N   1      30.266  18.203   4.180  0.00  0.00     0.157 HD
ENDBRANCH  18  22
ENDBRANCH  14  18
ENDBRANCH   5   7
BRANCH   6  25
HETATM   25  O   UNK N   1      33.681  14.757  11.592  0.00  0.00    -0.359 OA
HETATM   26  H   UNK N   1      33.049  14.086  11.755  0.00  0.00     0.217 HD
ENDBRANCH   6  25
BRANCH   3  27
HETATM   27  C   UNK N   1      38.494  13.535   8.925  0.00  0.00     0.066 C 
BRANCH  27  28
HETATM   28  C   UNK N   1      39.008  12.181   9.376  0.00  0.00     0.234 C 
BRANCH  28  29
HETATM   29  N   UNK N   1      40.360  11.996   8.878  0.00  0.00    -0.079 N 
HETATM   30  H   UNK N   1      41.047  11.330   9.231  0.00  0.00     0.274 HD
HETATM   31  H   UNK N   1      40.650  12.590   8.101  0.00  0.00     0.274 HD
HETATM   32  H   UNK N   1      41.294  11.927   8.473  0.00  0.00     0.274 HD
ENDBRANCH  28  29
ENDBRANCH  27  28
ENDBRANCH   3  27
BRANCH   4  33
HETATM   33  C   UNK N   1      35.718  13.470  13.112  0.00  0.00    -0.023 A 
HETATM   34  C   UNK N   1      36.384  14.157  14.138  0.00  0.00     0.012 A 
HETATM   35  C   UNK N   1      36.226  13.763  15.474  0.00  0.00     0.001 A 
HETATM   36  C   UNK N   1      35.417  12.668  15.797  0.00  0.00     0.000 A 
HETATM   37  C   UNK N   1      34.762  11.968  14.788  0.00  0.00     0.001 A 
HETATM   38  C   UNK N   1      34.911  12.369  13.463  0.00  0.00     0.012 A 
ENDBRANCH   4  33
TORSDOF 8
ENDMDL
MODEL 7
REMARK VINA RESULT:      -6.9      4.513      9.698
REMARK  8 active torsions:
REMARK  status: ('A' for Active; 'I' for Inactive)
REMARK    1  A    between atoms: C_9  and  C_8 
REMARK    2  A    between atoms: C_13  and  C_8 
REMARK    3  A    between atoms: N_23  and  C_9 
REMARK    4  A    between atoms: C_16  and  C_14 
REMARK    5  A    between atoms: C_21  and  C_15 
REMARK    6  A    between atoms: C_22  and  C_17 
REMARK    7  A    between atoms: O_30  and  C_20 
REMARK    8  A    between atoms: N_26  and  C_21 
ROOT
HETATM    1  C   UNK N   1      28.939  17.191   6.427  0.00  0.00     0.022 A 
HETATM    2  C   UNK N   1      30.355  17.558   8.370  0.00  0.00     0.025 A 
HETATM    3  C   UNK N   1      29.227  17.897   7.605  0.00  0.00    -0.055 A 
HETATM    4  C   UNK N   1      29.769  16.140   5.996  0.00  0.00     0.009 A 
HETATM    5  C   UNK N   1      31.201  16.523   7.957  0.00  0.00     0.043 A 
HETATM    6  C   UNK N   1      30.907  15.820   6.768  0.00  0.00     0.090 A 
ENDROOT
BRANCH   5   7
HETATM    7  C   UNK N   1      32.375  16.107   8.770  0.00  0.00     0.119 A 
HETATM    8  N   UNK N   1      33.321  16.998   9.150  0.00  0.00    -0.340 N 
HETATM    9  C   UNK N   1      34.219  16.279   9.810  0.00  0.00     0.060 A 
ATOM     10  HN  UNK N   1      33.338  18.002   8.967  1.00  0.00     0.167 HD
HETATM   11  C   UNK N   1      35.386  16.742  10.387  0.00  0.00     0.033 A 
HETATM   12  C   UNK N   1      33.830  14.979   9.840  0.00  0.00     0.061 A 
HETATM   13  C   UNK N   1      36.190  15.805  11.042  0.00  0.00     0.017 A 
HETATM   14  C   UNK N   1      35.809  14.441  11.106  0.00  0.00     0.009 A 
HETATM   15  C   UNK N   1      34.602  14.012  10.489  0.00  0.00     0.047 A 
HETATM   16  N   UNK N   1      32.662  14.836   9.177  0.00  0.00    -0.340 N 
HETATM   17  H   UNK N   1      32.143  14.014   9.025  0.00  0.00     0.167 HD
BRANCH  14  18
HETATM   18  C   UNK N   1      36.675  13.487  11.827  0.00  0.00     0.102 C 
HETATM   19  N   UNK N   1      36.229  12.857  12.852  0.00  0.00    -0.385 N 
HETATM   20  H   UNK N   1      36.830  12.282  13.379  0.00  0.00     0.157 HD
ATOM     21  HN  UNK N   1      35.249  12.951  13.122  1.00  0.00     0.157 HD
BRANCH  18  22
HETATM   22  N   UNK N   1      37.991  13.242  11.382  0.00  0.00    -0.385 N 
HETATM   23  H   UNK N   1      38.758  13.644  11.852  0.00  0.00     0.157 HD
HETATM   24  H   UNK N   1      38.145  12.666  10.599  0.00  0.00     0.157 HD
ENDBRANCH  18  22
ENDBRANCH  14  18
ENDBRANCH   5   7
BRANCH   6  25
HETATM   25  O   UNK N   1      31.732  14.838   6.361  0.00  0.00    -0.359 OA
HETATM   26  H   UNK N   1      32.039  14.194   6.967  0.00  0.00     0.217 HD
ENDBRANCH   6  25
BRANCH   3  27
HETATM   27  C   UNK N   1      28.271  18.937   8.091  0.00  0.00     0.066 C 
BRANCH  27  28
HETATM   28  C   UNK N   1      27.737  19.790   6.956  0.00  0.00     0.234 C 
BRANCH  28  29
HETATM   29  N   UNK N   1      26.560  20.506   7.413  0.00  0.00    -0.079 N 
HETATM   30  H   UNK N   1      26.073  20.365   8.298  0.00  0.00     0.274 HD
HETATM   31  H   UNK N   1      26.183  21.219   6.788  0.00  0.00     0.274 HD
HETATM   32  H   UNK N   1      25.735  21.052   7.662  0.00  0.00     0.274 HD
ENDBRANCH  28  29
ENDBRANCH  27  28
ENDBRANCH   3  27
BRANCH   4  33
HETATM   33  C   UNK N   1      29.424  15.349   4.769  0.00  0.00    -0.023 A 
HETATM   34  C   UNK N   1      29.539  15.910   3.488  0.00  0.00     0.012 A 
HETATM   35  C   UNK N   1      29.196  15.162   2.353  0.00  0.00     0.001 A 
HETATM   36  C   UNK N   1      28.717  13.855   2.487  0.00  0.00     0.000 A 
HETATM   37  C   UNK N   1      28.583  13.290   3.752  0.00  0.00     0.001 A 
HETATM   38  C   UNK N   1      28.937  14.030   4.877  0.00  0.00     0.012 A 
ENDBRANCH   4  33
TORSDOF 8
ENDMDL
MODEL 8
REMARK VINA RESULT:      -6.8      9.656     13.466
REMARK  8 active torsions:
REMARK  status: ('A' for Active; 'I' for Inactive)
REMARK    1  A    between atoms: C_9  and  C_8 
REMARK    2  A    between atoms: C_13  and  C_8 
REMARK    3  A    between atoms: N_23  and  C_9 
REMARK    4  A    between atoms: C_16  and  C_14 
REMARK    5  A    between atoms: C_21  and  C_15 
REMARK    6  A    between atoms: C_22  and  C_17 
REMARK    7  A    between atoms: O_30  and  C_20 
REMARK    8  A    between atoms: N_26  and  C_21 
ROOT
HETATM    1  C   UNK N   1      37.102  10.812  15.073  0.00  0.00     0.022 A 
HETATM    2  C   UNK N   1      36.989  11.506  12.745  0.00  0.00     0.025 A 
HETATM    3  C   UNK N   1      37.472  10.631  13.732  0.00  0.00    -0.055 A 
HETATM    4  C   UNK N   1      36.249  11.865  15.450  0.00  0.00     0.009 A 
HETATM    5  C   UNK N   1      36.147  12.568  13.096  0.00  0.00     0.043 A 
HETATM    6  C   UNK N   1      35.783  12.746  14.449  0.00  0.00     0.090 A 
ENDROOT
BRANCH   5   7
HETATM    7  C   UNK N   1      35.580  13.483  12.070  0.00  0.00     0.119 A 
HETATM    8  N   UNK N   1      34.617  13.071  11.213  0.00  0.00    -0.340 N 
HETATM    9  C   UNK N   1      34.389  14.118  10.430  0.00  0.00     0.060 A 
ATOM     10  HN  UNK N   1      34.166  12.157  11.177  1.00  0.00     0.167 HD
HETATM   11  C   UNK N   1      33.491  14.187   9.383  0.00  0.00     0.033 A 
HETATM   12  C   UNK N   1      35.190  15.149  10.803  0.00  0.00     0.061 A 
HETATM   13  C   UNK N   1      33.410  15.397   8.688  0.00  0.00     0.017 A 
HETATM   14  C   UNK N   1      34.220  16.500   9.059  0.00  0.00     0.009 A 
HETATM   15  C   UNK N   1      35.135  16.378  10.139  0.00  0.00     0.047 A 
HETATM   16  N   UNK N   1      35.967  14.773  11.841  0.00  0.00    -0.340 N 
HETATM   17  H   UNK N   1      36.647  15.300  12.317  0.00  0.00     0.167 HD
BRANCH  14  18
HETATM   18  C   UNK N   1      34.088  17.769   8.314  0.00  0.00     0.102 C 
HETATM   19  N   UNK N   1      33.175  17.903   7.423  0.00  0.00    -0.385 N 
HETATM   20  H   UNK N   1      33.138  18.719   6.872  0.00  0.00     0.157 HD
ATOM     21  HN  UNK N   1      32.485  17.164   7.284  1.00  0.00     0.157 HD
BRANCH  18  22
HETATM   22  N   UNK N   1      34.949  18.852   8.593  0.00  0.00    -0.385 N 
HETATM   23  H   UNK N   1      34.653  19.583   9.184  0.00  0.00     0.157 HD
HETATM   24  H   UNK N   1      35.849  18.877   8.197  0.00  0.00     0.157 HD
ENDBRANCH  18  22
ENDBRANCH  14  18
ENDBRANCH   5   7
BRANCH   6  25
HETATM   25  O   UNK N   1      34.990  13.778  14.789  0.00  0.00    -0.359 OA
HETATM   26  H   UNK N   1      34.086  13.637  14.986  0.00  0.00     0.217 HD
ENDBRANCH   6  25
BRANCH   3  27
HETATM   27  C   UNK N   1      38.293   9.443  13.348  0.00  0.00     0.066 C 
BRANCH  27  28
HETATM   28  C   UNK N   1      39.067   8.887  14.528  0.00  0.00     0.234 C 
BRANCH  28  29
HETATM   29  N   UNK N   1      38.863   7.451  14.595  0.00  0.00    -0.079 N 
HETATM   30  H   UNK N   1      38.250   6.899  13.995  0.00  0.00     0.274 HD
HETATM   31  H   UNK N   1      39.383   6.945  15.312  0.00  0.00     0.274 HD
HETATM   32  H   UNK N   1      38.774   6.440  14.706  0.00  0.00     0.274 HD
ENDBRANCH  28  29
ENDBRANCH  27  28
ENDBRANCH   3  27
BRANCH   4  33
HETATM   33  C   UNK N   1      35.809  12.018  16.876  0.00  0.00    -0.023 A 
HETATM   34  C   UNK N   1      35.516  13.280  17.413  0.00  0.00     0.012 A 
HETATM   35  C   UNK N   1      35.123  13.407  18.752  0.00  0.00     0.001 A 
HETATM   36  C   UNK N   1      35.037  12.278  19.573  0.00  0.00     0.000 A 
HETATM   37  C   UNK N   1      35.338  11.020  19.058  0.00  0.00     0.001 A 
HETATM   38  C   UNK N   1      35.716  10.896  17.724  0.00  0.00     0.012 A 
ENDBRANCH   4  33
TORSDOF 8
ENDMDL
MODEL 9
REMARK VINA RESULT:      -6.6      2.331      3.677
REMARK  8 active torsions:
REMARK  status: ('A' for Active; 'I' for Inactive)
REMARK    1  A    between atoms: C_9  and  C_8 
REMARK    2  A    between atoms: C_13  and  C_8 
REMARK    3  A    between atoms: N_23  and  C_9 
REMARK    4  A    between atoms: C_16  and  C_14 
REMARK    5  A    between atoms: C_21  and  C_15 
REMARK    6  A    between atoms: C_22  and  C_17 
REMARK    7  A    between atoms: O_30  and  C_20 
REMARK    8  A    between atoms: N_26  and  C_21 
ROOT
HETATM    1  C   UNK N   1      30.082  14.899   5.350  0.00  0.00     0.022 A 
HETATM    2  C   UNK N   1      27.909  15.110   4.277  0.00  0.00     0.025 A 
HETATM    3  C   UNK N   1      29.001  14.319   4.669  0.00  0.00    -0.055 A 
HETATM    4  C   UNK N   1      30.090  16.274   5.649  0.00  0.00     0.009 A 
HETATM    5  C   UNK N   1      27.899  16.482   4.553  0.00  0.00     0.043 A 
HETATM    6  C   UNK N   1      28.992  17.060   5.235  0.00  0.00     0.090 A 
ENDROOT
BRANCH   5   7
HETATM    7  C   UNK N   1      26.738  17.339   4.194  0.00  0.00     0.119 A 
HETATM    8  N   UNK N   1      26.908  18.566   3.650  0.00  0.00    -0.340 N 
HETATM    9  C   UNK N   1      25.681  19.047   3.505  0.00  0.00     0.060 A 
ATOM     10  HN  UNK N   1      27.788  19.021   3.407  1.00  0.00     0.167 HD
HETATM   11  C   UNK N   1      25.332  20.284   2.997  0.00  0.00     0.033 A 
HETATM   12  C   UNK N   1      24.778  18.133   3.943  0.00  0.00     0.061 A 
HETATM   13  C   UNK N   1      23.969  20.586   2.930  0.00  0.00     0.017 A 
HETATM   14  C   UNK N   1      22.997  19.650   3.364  0.00  0.00     0.009 A 
HETATM   15  C   UNK N   1      23.406  18.393   3.887  0.00  0.00     0.047 A 
HETATM   16  N   UNK N   1      25.421  17.036   4.397  0.00  0.00    -0.340 N 
HETATM   17  H   UNK N   1      25.035  16.216   4.781  0.00  0.00     0.167 HD
BRANCH  14  18
HETATM   18  C   UNK N   1      21.566  19.998   3.255  0.00  0.00     0.102 C 
HETATM   19  N   UNK N   1      20.675  19.243   3.787  0.00  0.00    -0.385 N 
HETATM   20  H   UNK N   1      19.719  19.432   3.646  0.00  0.00     0.157 HD
ATOM     21  HN  UNK N   1      20.957  18.445   4.357  1.00  0.00     0.157 HD
BRANCH  18  22
HETATM   22  N   UNK N   1      21.167  21.175   2.586  0.00  0.00    -0.385 N 
HETATM   23  H   UNK N   1      20.216  21.426   2.545  0.00  0.00     0.157 HD
HETATM   24  H   UNK N   1      21.843  21.748   2.157  0.00  0.00     0.157 HD
ENDBRANCH  18  22
ENDBRANCH  14  18
ENDBRANCH   5   7
BRANCH   6  25
HETATM   25  O   UNK N   1      28.991  18.382   5.484  0.00  0.00    -0.359 OA
HETATM   26  H   UNK N   1      29.715  18.915   5.222  0.00  0.00     0.217 HD
ENDBRANCH   6  25
BRANCH   3  27
HETATM   27  C   UNK N   1      28.973  12.839   4.459  0.00  0.00     0.066 C 
BRANCH  27  28
HETATM   28  C   UNK N   1      27.606  12.253   4.752  0.00  0.00     0.234 C 
BRANCH  28  29
HETATM   29  N   UNK N   1      27.596  10.853   4.367  0.00  0.00    -0.079 N 
HETATM   30  H   UNK N   1      27.198  10.082   4.902  0.00  0.00     0.274 HD
HETATM   31  H   UNK N   1      28.031  10.618   3.474  0.00  0.00     0.274 HD
HETATM   32  H   UNK N   1      27.630   9.891   4.026  0.00  0.00     0.274 HD
ENDBRANCH  28  29
ENDBRANCH  27  28
ENDBRANCH   3  27
BRANCH   4  33
HETATM   33  C   UNK N   1      31.218  16.879   6.430  0.00  0.00    -0.023 A 
HETATM   34  C   UNK N   1      31.055  17.247   7.774  0.00  0.00     0.012 A 
HETATM   35  C   UNK N   1      32.115  17.827   8.484  0.00  0.00     0.001 A 
HETATM   36  C   UNK N   1      33.342  18.062   7.855  0.00  0.00     0.000 A 
HETATM   37  C   UNK N   1      33.514  17.715   6.517  0.00  0.00     0.001 A 
HETATM   38  C   UNK N   1      32.464  17.128   5.818  0.00  0.00     0.012 A 
ENDBRANCH   4  33
TORSDOF 8
ENDMDL
