MODEL 1
REMARK VINA RESULT:      -6.1      0.000      0.000
REMARK  4 active torsions:
REMARK  status: ('A' for Active; 'I' for Inactive)
REMARK    1  A    between atoms: N_7  and  C_8 
REMARK    2  A    between atoms: C_8  and  O_9 
REMARK    3  A    between atoms: O_9  and  C_10 
REMARK    4  A    between atoms: C_10  and  N_11 
ROOT
HETATM    1  O   UNK N   1      20.721  16.365   8.915  0.00  0.00    -0.352 OA
ENDROOT
BRANCH   1   2
HETATM    2  C   UNK N   1      19.838  17.271   8.301  0.00  0.00     0.307 C 
BRANCH   2   3
HETATM    3  N   UNK N   1      18.879  17.797   9.250  0.00  0.00    -0.259 N 
HETATM    4  C   UNK N   1      19.059  18.844  10.068  0.00  0.00     0.252 A 
HETATM    5  C   UNK N   1      17.843  19.077  10.863  0.00  0.00     0.080 A 
HETATM    6  O   UNK N   1      20.086  19.501  10.126  0.00  0.00    -0.268 OA
HETATM    7  C   UNK N   1      16.958  18.137  10.478  0.00  0.00     0.080 A 
HETATM    8  C   UNK N   1      17.637  17.333   9.451  0.00  0.00     0.252 A 
HETATM    9  O   UNK N   1      17.151  16.389   8.849  0.00  0.00    -0.268 OA
ENDBRANCH   2   3
ENDBRANCH   1   2
BRANCH   1  10
HETATM   10  C   UNK N   1      20.423  15.100   8.388  0.00  0.00     0.307 C 
BRANCH  10  11
HETATM   11  N   UNK N   1      21.236  14.076   9.010  0.00  0.00    -0.259 N 
HETATM   12  C   UNK N   1      20.880  13.255  10.009  0.00  0.00     0.252 A 
HETATM   13  O   UNK N   1      19.781  13.254  10.540  0.00  0.00    -0.268 OA
HETATM   14  C   UNK N   1      22.001  12.366  10.351  0.00  0.00     0.080 A 
HETATM   15  C   UNK N   1      23.008  12.698   9.520  0.00  0.00     0.080 A 
HETATM   16  C   UNK N   1      22.498  13.785   8.674  0.00  0.00     0.252 A 
HETATM   17  O   UNK N   1      23.121  14.356   7.793  0.00  0.00    -0.268 OA
ENDBRANCH  10  11
ENDBRANCH   1  10
TORSDOF 4
ENDMDL
MODEL 2
REMARK VINA RESULT:      -5.7     17.091     18.893
REMARK  4 active torsions:
REMARK  status: ('A' for Active; 'I' for Inactive)
REMARK    1  A    between atoms: N_7  and  C_8 
REMARK    2  A    between atoms: C_8  and  O_9 
REMARK    3  A    between atoms: O_9  and  C_10 
REMARK    4  A    between atoms: C_10  and  N_11 
ROOT
HETATM    1  O   UNK N   1      27.743  24.006  -4.107  0.00  0.00    -0.352 OA
ENDROOT
BRANCH   1   2
HETATM    2  C   UNK N   1      28.980  24.425  -3.588  0.00  0.00     0.307 C 
BRANCH   2   3
HETATM    3  N   UNK N   1      29.952  23.351  -3.608  0.00  0.00    -0.259 N 
HETATM    4  C   UNK N   1      30.476  22.771  -4.697  0.00  0.00     0.252 A 
HETATM    5  C   UNK N   1      31.443  21.736  -4.300  0.00  0.00     0.080 A 
HETATM    6  O   UNK N   1      30.187  23.075  -5.843  0.00  0.00    -0.268 OA
HETATM    7  C   UNK N   1      31.463  21.738  -2.953  0.00  0.00     0.080 A 
HETATM    8  C   UNK N   1      30.507  22.774  -2.533  0.00  0.00     0.252 A 
HETATM    9  O   UNK N   1      30.256  23.085  -1.379  0.00  0.00    -0.268 OA
ENDBRANCH   2   3
ENDBRANCH   1   2
BRANCH   1  10
HETATM   10  C   UNK N   1      26.754  24.636  -3.338  0.00  0.00     0.307 C 
BRANCH  10  11
HETATM   11  N   UNK N   1      26.108  25.691  -4.091  0.00  0.00    -0.259 N 
HETATM   12  C   UNK N   1      25.480  25.576  -5.270  0.00  0.00     0.252 A 
HETATM   13  O   UNK N   1      25.355  24.528  -5.885  0.00  0.00    -0.268 OA
HETATM   14  C   UNK N   1      24.965  26.887  -5.694  0.00  0.00     0.080 A 
HETATM   15  C   UNK N   1      25.314  27.756  -4.726  0.00  0.00     0.080 A 
HETATM   16  C   UNK N   1      26.037  26.973  -3.714  0.00  0.00     0.252 A 
HETATM   17  O   UNK N   1      26.515  27.410  -2.680  0.00  0.00    -0.268 OA
ENDBRANCH  10  11
ENDBRANCH   1  10
TORSDOF 4
ENDMDL
MODEL 3
REMARK VINA RESULT:      -5.7     17.124     18.185
REMARK  4 active torsions:
REMARK  status: ('A' for Active; 'I' for Inactive)
REMARK    1  A    between atoms: N_7  and  C_8 
REMARK    2  A    between atoms: C_8  and  O_9 
REMARK    3  A    between atoms: O_9  and  C_10 
REMARK    4  A    between atoms: C_10  and  N_11 
ROOT
HETATM    1  O   UNK N   1      27.812  24.057  -4.142  0.00  0.00    -0.352 OA
ENDROOT
BRANCH   1   2
HETATM    2  C   UNK N   1      26.766  24.627  -3.396  0.00  0.00     0.307 C 
BRANCH   2   3
HETATM    3  N   UNK N   1      26.120  25.699  -4.126  0.00  0.00    -0.259 N 
HETATM    4  C   UNK N   1      25.487  25.592  -5.303  0.00  0.00     0.252 A 
HETATM    5  C   UNK N   1      24.948  26.901  -5.704  0.00  0.00     0.080 A 
HETATM    6  O   UNK N   1      25.376  24.552  -5.932  0.00  0.00    -0.268 OA
HETATM    7  C   UNK N   1      25.286  27.762  -4.725  0.00  0.00     0.080 A 
HETATM    8  C   UNK N   1      26.032  26.977  -3.731  0.00  0.00     0.252 A 
HETATM    9  O   UNK N   1      26.496  27.406  -2.686  0.00  0.00    -0.268 OA
ENDBRANCH   2   3
ENDBRANCH   1   2
BRANCH   1  10
HETATM   10  C   UNK N   1      29.007  24.521  -3.571  0.00  0.00     0.307 C 
BRANCH  10  11
HETATM   11  N   UNK N   1      30.030  23.497  -3.607  0.00  0.00    -0.259 N 
HETATM   12  C   UNK N   1      30.641  23.002  -4.692  0.00  0.00     0.252 A 
HETATM   13  O   UNK N   1      30.417  23.367  -5.836  0.00  0.00    -0.268 OA
HETATM   14  C   UNK N   1      31.614  21.973  -4.294  0.00  0.00     0.080 A 
HETATM   15  C   UNK N   1      31.545  21.893  -2.951  0.00  0.00     0.080 A 
HETATM   16  C   UNK N   1      30.533  22.874  -2.535  0.00  0.00     0.252 A 
HETATM   17  O   UNK N   1      30.185  23.097  -1.386  0.00  0.00    -0.268 OA
ENDBRANCH  10  11
ENDBRANCH   1  10
TORSDOF 4
ENDMDL
MODEL 4
REMARK VINA RESULT:      -5.7     17.117     18.094
REMARK  4 active torsions:
REMARK  status: ('A' for Active; 'I' for Inactive)
REMARK    1  A    between atoms: N_7  and  C_8 
REMARK    2  A    between atoms: C_8  and  O_9 
REMARK    3  A    between atoms: O_9  and  C_10 
REMARK    4  A    between atoms: C_10  and  N_11 
ROOT
HETATM    1  O   UNK N   1      27.792  23.975  -4.105  0.00  0.00    -0.352 OA
ENDROOT
BRANCH   1   2
HETATM    2  C   UNK N   1      26.812  24.631  -3.339  0.00  0.00     0.307 C 
BRANCH   2   3
HETATM    3  N   UNK N   1      26.153  25.669  -4.103  0.00  0.00    -0.259 N 
HETATM    4  C   UNK N   1      25.532  25.519  -5.282  0.00  0.00     0.252 A 
HETATM    5  C   UNK N   1      24.971  26.806  -5.723  0.00  0.00     0.080 A 
HETATM    6  O   UNK N   1      25.448  24.461  -5.884  0.00  0.00    -0.268 OA
HETATM    7  C   UNK N   1      25.284  27.699  -4.764  0.00  0.00     0.080 A 
HETATM    8  C   UNK N   1      26.035  26.955  -3.742  0.00  0.00     0.252 A 
HETATM    9  O   UNK N   1      26.481  27.422  -2.706  0.00  0.00    -0.268 OA
ENDBRANCH   2   3
ENDBRANCH   1   2
BRANCH   1  10
HETATM   10  C   UNK N   1      29.032  24.459  -3.664  0.00  0.00     0.307 C 
BRANCH  10  11
HETATM   11  N   UNK N   1      30.020  23.401  -3.633  0.00  0.00    -0.259 N 
HETATM   12  C   UNK N   1      30.539  22.809  -2.548  0.00  0.00     0.252 A 
HETATM   13  O   UNK N   1      30.231  23.086  -1.399  0.00  0.00    -0.268 OA
HETATM   14  C   UNK N   1      31.514  21.786  -2.953  0.00  0.00     0.080 A 
HETATM   15  C   UNK N   1      31.539  21.805  -4.300  0.00  0.00     0.080 A 
HETATM   16  C   UNK N   1      30.578  22.838  -4.711  0.00  0.00     0.252 A 
HETATM   17  O   UNK N   1      30.318  23.154  -5.861  0.00  0.00    -0.268 OA
ENDBRANCH  10  11
ENDBRANCH   1  10
TORSDOF 4
ENDMDL
MODEL 5
REMARK VINA RESULT:      -5.7     17.151     18.925
REMARK  4 active torsions:
REMARK  status: ('A' for Active; 'I' for Inactive)
REMARK    1  A    between atoms: N_7  and  C_8 
REMARK    2  A    between atoms: C_8  and  O_9 
REMARK    3  A    between atoms: O_9  and  C_10 
REMARK    4  A    between atoms: C_10  and  N_11 
ROOT
HETATM    1  O   UNK N   1      27.881  23.947  -4.148  0.00  0.00    -0.352 OA
ENDROOT
BRANCH   1   2
HETATM    2  C   UNK N   1      29.108  24.433  -3.664  0.00  0.00     0.307 C 
BRANCH   2   3
HETATM    3  N   UNK N   1      30.114  23.392  -3.637  0.00  0.00    -0.259 N 
HETATM    4  C   UNK N   1      30.615  22.795  -2.546  0.00  0.00     0.252 A 
HETATM    5  C   UNK N   1      31.600  21.775  -2.937  0.00  0.00     0.080 A 
HETATM    6  O   UNK N   1      30.285  23.066  -1.402  0.00  0.00    -0.268 OA
HETATM    7  C   UNK N   1      31.649  21.799  -4.283  0.00  0.00     0.080 A 
HETATM    8  C   UNK N   1      30.696  22.835  -4.708  0.00  0.00     0.252 A 
HETATM    9  O   UNK N   1      30.449  23.144  -5.863  0.00  0.00    -0.268 OA
ENDBRANCH   2   3
ENDBRANCH   1   2
BRANCH   1  10
HETATM   10  C   UNK N   1      26.878  24.570  -3.390  0.00  0.00     0.307 C 
BRANCH  10  11
HETATM   11  N   UNK N   1      26.196  25.583  -4.168  0.00  0.00    -0.259 N 
HETATM   12  C   UNK N   1      25.472  25.398  -5.281  0.00  0.00     0.252 A 
HETATM   13  O   UNK N   1      25.277  24.311  -5.802  0.00  0.00    -0.268 OA
HETATM   14  C   UNK N   1      24.953  26.687  -5.762  0.00  0.00     0.080 A 
HETATM   15  C   UNK N   1      25.397  27.616  -4.893  0.00  0.00     0.080 A 
HETATM   16  C   UNK N   1      26.182  26.890  -3.885  0.00  0.00     0.252 A 
HETATM   17  O   UNK N   1      26.751  27.391  -2.928  0.00  0.00    -0.268 OA
ENDBRANCH  10  11
ENDBRANCH   1  10
TORSDOF 4
ENDMDL
MODEL 6
REMARK VINA RESULT:      -5.6     14.179     16.420
REMARK  4 active torsions:
REMARK  status: ('A' for Active; 'I' for Inactive)
REMARK    1  A    between atoms: N_7  and  C_8 
REMARK    2  A    between atoms: C_8  and  O_9 
REMARK    3  A    between atoms: O_9  and  C_10 
REMARK    4  A    between atoms: C_10  and  N_11 
ROOT
HETATM    1  O   UNK N   1      35.655  14.812  12.529  0.00  0.00    -0.352 OA
ENDROOT
BRANCH   1   2
HETATM    2  C   UNK N   1      36.455  13.853  13.176  0.00  0.00     0.307 C 
BRANCH   2   3
HETATM    3  N   UNK N   1      35.977  13.586  14.517  0.00  0.00    -0.259 N 
HETATM    4  C   UNK N   1      34.936  12.811  14.853  0.00  0.00     0.252 A 
HETATM    5  C   UNK N   1      34.786  12.777  16.316  0.00  0.00     0.080 A 
HETATM    6  O   UNK N   1      34.232  12.221  14.049  0.00  0.00    -0.268 OA
HETATM    7  C   UNK N   1      35.770  13.552  16.812  0.00  0.00     0.080 A 
HETATM    8  C   UNK N   1      36.517  14.057  15.651  0.00  0.00     0.252 A 
HETATM    9  O   UNK N   1      37.496  14.785  15.695  0.00  0.00    -0.268 OA
ENDBRANCH   2   3
ENDBRANCH   1   2
BRANCH   1  10
HETATM   10  C   UNK N   1      36.165  14.945  11.229  0.00  0.00     0.307 C 
BRANCH  10  11
HETATM   11  N   UNK N   1      35.148  15.431  10.321  0.00  0.00    -0.259 N 
HETATM   12  C   UNK N   1      34.955  16.697   9.925  0.00  0.00     0.252 A 
HETATM   13  O   UNK N   1      35.641  17.642  10.281  0.00  0.00    -0.268 OA
HETATM   14  C   UNK N   1      33.812  16.765   9.002  0.00  0.00     0.080 A 
HETATM   15  C   UNK N   1      33.355  15.503   8.879  0.00  0.00     0.080 A 
HETATM   16  C   UNK N   1      34.223  14.671   9.724  0.00  0.00     0.252 A 
HETATM   17  O   UNK N   1      34.125  13.464   9.876  0.00  0.00    -0.268 OA
ENDBRANCH  10  11
ENDBRANCH   1  10
TORSDOF 4
ENDMDL
MODEL 7
REMARK VINA RESULT:      -5.5     13.931     15.654
REMARK  4 active torsions:
REMARK  status: ('A' for Active; 'I' for Inactive)
REMARK    1  A    between atoms: N_7  and  C_8 
REMARK    2  A    between atoms: C_8  and  O_9 
REMARK    3  A    between atoms: O_9  and  C_10 
REMARK    4  A    between atoms: C_10  and  N_11 
ROOT
HETATM    1  O   UNK N   1      34.826  14.463  12.315  0.00  0.00    -0.352 OA
ENDROOT
BRANCH   1   2
HETATM    2  C   UNK N   1      35.619  13.617  13.111  0.00  0.00     0.307 C 
BRANCH   2   3
HETATM    3  N   UNK N   1      34.909  12.403  13.460  0.00  0.00    -0.259 N 
HETATM    4  C   UNK N   1      34.305  12.141  14.628  0.00  0.00     0.252 A 
HETATM    5  C   UNK N   1      33.678  10.811  14.582  0.00  0.00     0.080 A 
HETATM    6  O   UNK N   1      34.283  12.908  15.577  0.00  0.00    -0.268 OA
HETATM    7  C   UNK N   1      33.936  10.317  13.355  0.00  0.00     0.080 A 
HETATM    8  C   UNK N   1      34.719  11.346  12.657  0.00  0.00     0.252 A 
HETATM    9  O   UNK N   1      35.132  11.271  11.511  0.00  0.00    -0.268 OA
ENDBRANCH   2   3
ENDBRANCH   1   2
BRANCH   1  10
HETATM   10  C   UNK N   1      35.605  14.806  11.200  0.00  0.00     0.307 C 
BRANCH  10  11
HETATM   11  N   UNK N   1      34.796  15.436  10.178  0.00  0.00    -0.259 N 
HETATM   12  C   UNK N   1      33.869  14.852   9.405  0.00  0.00     0.252 A 
HETATM   13  O   UNK N   1      33.565  13.671   9.467  0.00  0.00    -0.268 OA
HETATM   14  C   UNK N   1      33.281  15.844   8.492  0.00  0.00     0.080 A 
HETATM   15  C   UNK N   1      33.894  17.013   8.764  0.00  0.00     0.080 A 
HETATM   16  C   UNK N   1      34.851  16.730   9.842  0.00  0.00     0.252 A 
HETATM   17  O   UNK N   1      35.600  17.542  10.363  0.00  0.00    -0.268 OA
ENDBRANCH  10  11
ENDBRANCH   1  10
TORSDOF 4
ENDMDL
MODEL 8
REMARK VINA RESULT:      -5.5      1.131      5.897
REMARK  4 active torsions:
REMARK  status: ('A' for Active; 'I' for Inactive)
REMARK    1  A    between atoms: N_7  and  C_8 
REMARK    2  A    between atoms: C_8  and  O_9 
REMARK    3  A    between atoms: O_9  and  C_10 
REMARK    4  A    between atoms: C_10  and  N_11 
ROOT
HETATM    1  O   UNK N   1      21.163  15.496   7.978  0.00  0.00    -0.352 OA
ENDROOT
BRANCH   1   2
HETATM    2  C   UNK N   1      20.923  14.111   7.982  0.00  0.00     0.307 C 
BRANCH   2   3
HETATM    3  N   UNK N   1      21.615  13.459   9.074  0.00  0.00    -0.259 N 
HETATM    4  C   UNK N   1      21.063  12.989  10.202  0.00  0.00     0.252 A 
HETATM    5  C   UNK N   1      22.096  12.378  11.052  0.00  0.00     0.080 A 
HETATM    6  O   UNK N   1      19.873  13.061  10.465  0.00  0.00    -0.268 OA
HETATM    7  C   UNK N   1      23.257  12.506  10.381  0.00  0.00     0.080 A 
HETATM    8  C   UNK N   1      22.929  13.196   9.125  0.00  0.00     0.252 A 
HETATM    9  O   UNK N   1      23.722  13.483   8.242  0.00  0.00    -0.268 OA
ENDBRANCH   2   3
ENDBRANCH   1   2
BRANCH   1  10
HETATM   10  C   UNK N   1      19.990  16.103   7.505  0.00  0.00     0.307 C 
BRANCH  10  11
HETATM   11  N   UNK N   1      19.456  17.027   8.483  0.00  0.00    -0.259 N 
HETATM   12  C   UNK N   1      19.784  18.317   8.640  0.00  0.00     0.252 A 
HETATM   13  O   UNK N   1      20.599  18.910   7.951  0.00  0.00    -0.268 OA
HETATM   14  C   UNK N   1      19.013  18.898   9.751  0.00  0.00     0.080 A 
HETATM   15  C   UNK N   1      18.234  17.907  10.224  0.00  0.00     0.080 A 
HETATM   16  C   UNK N   1      18.530  16.727   9.400  0.00  0.00     0.252 A 
HETATM   17  O   UNK N   1      18.019  15.624   9.523  0.00  0.00    -0.268 OA
ENDBRANCH  10  11
ENDBRANCH   1  10
TORSDOF 4
ENDMDL
MODEL 9
REMARK VINA RESULT:      -5.5      0.884      2.566
REMARK  4 active torsions:
REMARK  status: ('A' for Active; 'I' for Inactive)
REMARK    1  A    between atoms: N_7  and  C_8 
REMARK    2  A    between atoms: C_8  and  O_9 
REMARK    3  A    between atoms: O_9  and  C_10 
REMARK    4  A    between atoms: C_10  and  N_11 
ROOT
HETATM    1  O   UNK N   1      20.996  15.744   8.285  0.00  0.00    -0.352 OA
ENDROOT
BRANCH   1   2
HETATM    2  C   UNK N   1      19.875  16.396   7.741  0.00  0.00     0.307 C 
BRANCH   2   3
HETATM    3  N   UNK N   1      19.218  17.226   8.729  0.00  0.00    -0.259 N 
HETATM    4  C   UNK N   1      18.194  16.868   9.517  0.00  0.00     0.252 A 
HETATM    5  C   UNK N   1      17.824  17.985  10.400  0.00  0.00     0.080 A 
HETATM    6  O   UNK N   1      17.664  15.769   9.498  0.00  0.00    -0.268 OA
HETATM    7  C   UNK N   1      18.664  18.995  10.099  0.00  0.00     0.080 A 
HETATM    8  C   UNK N   1      19.543  18.491   9.034  0.00  0.00     0.252 A 
HETATM    9  O   UNK N   1      20.450  19.114   8.505  0.00  0.00    -0.268 OA
ENDBRANCH   2   3
ENDBRANCH   1   2
BRANCH   1  10
HETATM   10  C   UNK N   1      20.778  14.369   8.113  0.00  0.00     0.307 C 
BRANCH  10  11
HETATM   11  N   UNK N   1      21.487  13.603   9.118  0.00  0.00    -0.259 N 
HETATM   12  C   UNK N   1      22.794  13.305   9.136  0.00  0.00     0.252 A 
HETATM   13  O   UNK N   1      23.593  13.660   8.283  0.00  0.00    -0.268 OA
HETATM   14  C   UNK N   1      23.109  12.506  10.329  0.00  0.00     0.080 A 
HETATM   15  C   UNK N   1      21.949  12.355  10.996  0.00  0.00     0.080 A 
HETATM   16  C   UNK N   1      20.931  13.065  10.209  0.00  0.00     0.252 A 
HETATM   17  O   UNK N   1      19.746  13.155  10.490  0.00  0.00    -0.268 OA
ENDBRANCH  10  11
ENDBRANCH   1  10
TORSDOF 4
ENDMDL
