MODEL 1
REMARK VINA RESULT:      -9.1      0.000      0.000
REMARK  18 active torsions:
REMARK  status: ('A' for Active; 'I' for Inactive)
REMARK    1  A    between atoms: C_3  and  C_46 
REMARK    2  A    between atoms: C_6  and  C_8 
REMARK    3  A    between atoms: C_9  and  O_45 
REMARK    4  A    between atoms: C_10  and  O_44 
REMARK    5  A    between atoms: C_11  and  C_13 
REMARK    6  A    between atoms: C_13  and  O_14 
REMARK    7  A    between atoms: O_14  and  P_15 
REMARK    8  A    between atoms: P_15  and  O_17 
REMARK    9  A    between atoms: P_15  and  O_18 
REMARK   10  A    between atoms: O_18  and  P_19 
REMARK   11  A    between atoms: P_19  and  O_21 
REMARK   12  A    between atoms: P_19  and  O_22 
REMARK   13  A    between atoms: O_22  and  C_23 
REMARK   14  A    between atoms: C_24  and  C_23 
REMARK   15  A    between atoms: C_25  and  O_43 
REMARK   16  A    between atoms: C_26  and  O_42 
REMARK   17  A    between atoms: C_27  and  N_29 
REMARK   18  A    between atoms: C_40  and  N_41 
REMARK       I    between atoms: C_46  and  N_48 
ROOT
HETATM    1  P   UNK N   1      34.479  17.831   8.212  0.00  0.00     0.401 P 
HETATM    2  O   UNK N   1      34.881  19.325   8.334  0.00  0.00    -0.631 OA
ENDROOT
BRANCH   1   3
HETATM    3  O   UNK N   1      35.371  17.617   9.755  0.00  0.00    -0.195 OA
BRANCH   3   4
HETATM    4  P   UNK N   1      35.660  15.970  10.385  0.00  0.00     0.401 P 
HETATM    5  O   UNK N   1      34.917  15.753  11.727  0.00  0.00    -0.631 OA
BRANCH   4   6
HETATM    6  O   UNK N   1      34.940  14.814   9.298  0.00  0.00    -0.294 OA
BRANCH   6   7
HETATM    7  C   UNK N   1      35.883  13.800   9.082  0.00  0.00     0.215 C 
BRANCH   7   8
HETATM    8  C   UNK N   1      35.186  12.473   8.832  0.00  0.00     0.178 C 
HETATM    9  C   UNK N   1      33.716  12.551   9.146  0.00  0.00     0.180 C 
HETATM   10  C   UNK N   1      33.465  11.103   9.356  0.00  0.00     0.184 C 
HETATM   11  C   UNK N   1      34.686  10.728  10.188  0.00  0.00     0.203 C 
HETATM   12  O   UNK N   1      35.759  11.457   9.634  0.00  0.00    -0.367 OA
BRANCH   9  13
HETATM   13  O   UNK N   1      33.004  13.032   8.047  0.00  0.00    -0.390 OA
HETATM   14  H   UNK N   1      33.206  12.710   7.155  0.00  0.00     0.210 HD
ENDBRANCH   9  13
BRANCH  10  15
HETATM   15  O   UNK N   1      32.239  10.845   9.969  0.00  0.00    -0.390 OA
HETATM   16  H   UNK N   1      32.043  11.182  10.858  0.00  0.00     0.210 HD
ENDBRANCH  10  15
BRANCH  11  17
HETATM   17  C   UNK N   1      34.611  11.003  11.677  0.00  0.00     0.041 A 
HETATM   18  N   UNK N   1      35.315  12.022  12.247  0.00  0.00    -0.353 N 
HETATM   19  C   UNK N   1      35.222  12.313  13.576  0.00  0.00     0.100 A 
ATOM     20  HN  UNK N   1      35.931  12.585  11.661  1.00  0.00     0.166 HD
HETATM   21  C   UNK N   1      34.395  11.537  14.396  0.00  0.00     0.035 A 
HETATM   22  C   UNK N   1      33.672  10.482  13.841  0.00  0.00     0.004 A 
HETATM   23  C   UNK N   1      33.770  10.219  12.475  0.00  0.00     0.028 A 
BRANCH  19  24
HETATM   24  C   UNK N   1      35.970  13.458  14.129  0.00  0.00     0.266 C 
HETATM   25  O   UNK N   1      35.837  13.762  15.304  0.00  0.00    -0.266 OA
HETATM   26  N   UNK N   1      36.819  14.162  13.352  0.00  0.00    -0.365 N 
HETATM   27  H   UNK N   1      37.293  14.974  13.643  0.00  0.00     0.159 HD
HETATM   28  H   UNK N   1      36.973  13.843  12.434  0.00  0.00     0.159 HD
ENDBRANCH  19  24
ENDBRANCH  11  17
ENDBRANCH   7   8
ENDBRANCH   6   7
ENDBRANCH   4   6
BRANCH   4  29
HETATM   29  O   UNK N   1      37.342  15.599  10.632  0.00  0.00    -0.307 OA
HETATM   30  H   UNK N   1      37.819  14.957  10.081  0.00  0.00     0.222 HD
ENDBRANCH   4  29
ENDBRANCH   3   4
ENDBRANCH   1   3
BRANCH   1  31
HETATM   31  O   UNK N   1      33.557  17.099   9.500  0.00  0.00    -0.307 OA
HETATM   32  H   UNK N   1      33.957  16.557  10.198  0.00  0.00     0.222 HD
ENDBRANCH   1  31
BRANCH   1  33
HETATM   33  O   UNK N   1      32.805  18.458   8.103  0.00  0.00    -0.294 OA
BRANCH  33  34
HETATM   34  C   UNK N   1      31.811  17.506   8.448  0.00  0.00     0.215 C 
BRANCH  34  35
HETATM   35  C   UNK N   1      30.401  18.039   8.295  0.00  0.00     0.180 C 
HETATM   36  C   UNK N   1      29.541  17.546   9.421  0.00  0.00     0.182 C 
HETATM   37  C   UNK N   1      28.210  17.697   8.797  0.00  0.00     0.198 C 
HETATM   38  C   UNK N   1      28.533  17.157   7.420  0.00  0.00     0.262 C 
HETATM   39  O   UNK N   1      29.814  17.636   7.077  0.00  0.00    -0.353 OA
BRANCH  36  40
HETATM   40  O   UNK N   1      29.671  18.360  10.548  0.00  0.00    -0.390 OA
HETATM   41  H   UNK N   1      30.100  19.183  10.827  0.00  0.00     0.210 HD
ENDBRANCH  36  40
BRANCH  37  42
HETATM   42  O   UNK N   1      27.279  16.900   9.461  0.00  0.00    -0.388 OA
HETATM   43  H   UNK N   1      27.110  16.905  10.416  0.00  0.00     0.210 HD
ENDBRANCH  37  42
BRANCH  38  44
HETATM   44  N   UNK N   1      27.538  17.565   6.428  0.00  0.00    -0.297 N 
HETATM   45  C   UNK N   1      26.699  16.761   5.721  0.00  0.00     0.188 A 
HETATM   46  N   UNK N   1      25.890  17.489   4.899  0.00  0.00    -0.346 N 
HETATM   47  C   UNK N   1      26.254  18.766   5.122  0.00  0.00     0.122 A 
ATOM     48  HN  UNK N   1      25.172  17.144   4.261  1.00  0.00     0.167 HD
HETATM   49  C   UNK N   1      27.238  18.808   6.039  0.00  0.00     0.142 A 
HETATM   50  C   UNK N   1      25.774  19.940   4.565  0.00  0.00     0.131 A 
HETATM   51  N   UNK N   1      27.796  19.968   6.458  0.00  0.00    -0.336 N 
HETATM   52  C   UNK N   1      27.337  21.136   5.913  0.00  0.00     0.183 A 
ATOM     53  HN  UNK N   1      28.536  19.972   7.160  1.00  0.00     0.168 HD
HETATM   54  N   UNK N   1      26.334  21.119   4.975  0.00  0.00    -0.337 N 
ATOM     55  HN  UNK N   1      26.002  21.998   4.578  1.00  0.00     0.168 HD
BRANCH  50  56
HETATM   56  N   UNK N   1      24.743  19.930   3.605  0.00  0.00    -0.383 N 
HETATM   57  H   UNK N   1      24.841  19.465   2.743  0.00  0.00     0.157 HD
HETATM   58  H   UNK N   1      23.902  20.401   3.803  0.00  0.00     0.157 HD
ENDBRANCH  50  56
ENDBRANCH  38  44
ENDBRANCH  34  35
ENDBRANCH  33  34
ENDBRANCH   1  33
TORSDOF 18
ENDMDL
MODEL 2
REMARK VINA RESULT:      -8.7      3.453     11.326
REMARK  18 active torsions:
REMARK  status: ('A' for Active; 'I' for Inactive)
REMARK    1  A    between atoms: C_3  and  C_46 
REMARK    2  A    between atoms: C_6  and  C_8 
REMARK    3  A    between atoms: C_9  and  O_45 
REMARK    4  A    between atoms: C_10  and  O_44 
REMARK    5  A    between atoms: C_11  and  C_13 
REMARK    6  A    between atoms: C_13  and  O_14 
REMARK    7  A    between atoms: O_14  and  P_15 
REMARK    8  A    between atoms: P_15  and  O_17 
REMARK    9  A    between atoms: P_15  and  O_18 
REMARK   10  A    between atoms: O_18  and  P_19 
REMARK   11  A    between atoms: P_19  and  O_21 
REMARK   12  A    between atoms: P_19  and  O_22 
REMARK   13  A    between atoms: O_22  and  C_23 
REMARK   14  A    between atoms: C_24  and  C_23 
REMARK   15  A    between atoms: C_25  and  O_43 
REMARK   16  A    between atoms: C_26  and  O_42 
REMARK   17  A    between atoms: C_27  and  N_29 
REMARK   18  A    between atoms: C_40  and  N_41 
REMARK       I    between atoms: C_46  and  N_48 
ROOT
HETATM    1  P   UNK N   1      36.851  13.819  10.006  0.00  0.00     0.401 P 
HETATM    2  O   UNK N   1      35.452  13.164  10.148  0.00  0.00    -0.631 OA
ENDROOT
BRANCH   1   3
HETATM    3  O   UNK N   1      35.991  15.112   9.105  0.00  0.00    -0.195 OA
BRANCH   3   4
HETATM    4  P   UNK N   1      34.828  16.162   9.963  0.00  0.00     0.401 P 
HETATM    5  O   UNK N   1      35.436  17.562  10.227  0.00  0.00    -0.631 OA
BRANCH   4   6
HETATM    6  O   UNK N   1      33.466  16.469   8.919  0.00  0.00    -0.294 OA
BRANCH   6   7
HETATM    7  C   UNK N   1      33.072  15.240   8.374  0.00  0.00     0.215 C 
BRANCH   7   8
HETATM    8  C   UNK N   1      33.033  15.320   6.857  0.00  0.00     0.178 C 
HETATM    9  C   UNK N   1      33.368  16.703   6.367  0.00  0.00     0.180 C 
HETATM   10  C   UNK N   1      32.725  16.619   5.032  0.00  0.00     0.184 C 
HETATM   11  C   UNK N   1      31.412  15.937   5.400  0.00  0.00     0.203 C 
HETATM   12  O   UNK N   1      31.745  14.978   6.379  0.00  0.00    -0.367 OA
BRANCH   9  13
HETATM   13  O   UNK N   1      34.749  16.862   6.252  0.00  0.00    -0.390 OA
HETATM   14  H   UNK N   1      35.193  16.681   5.409  0.00  0.00     0.210 HD
ENDBRANCH   9  13
BRANCH  10  15
HETATM   15  O   UNK N   1      32.585  17.862   4.414  0.00  0.00    -0.390 OA
HETATM   16  H   UNK N   1      31.713  18.273   4.310  0.00  0.00     0.210 HD
ENDBRANCH  10  15
BRANCH  11  17
HETATM   17  C   UNK N   1      30.303  16.826   5.927  0.00  0.00     0.041 A 
HETATM   18  N   UNK N   1      30.042  16.919   7.262  0.00  0.00    -0.353 N 
HETATM   19  C   UNK N   1      29.081  17.749   7.756  0.00  0.00     0.100 A 
ATOM     20  HN  UNK N   1      30.583  16.348   7.911  1.00  0.00     0.166 HD
HETATM   21  C   UNK N   1      28.318  18.525   6.876  0.00  0.00     0.035 A 
HETATM   22  C   UNK N   1      28.557  18.442   5.504  0.00  0.00     0.004 A 
HETATM   23  C   UNK N   1      29.560  17.599   5.026  0.00  0.00     0.028 A 
BRANCH  19  24
HETATM   24  C   UNK N   1      28.874  17.844   9.215  0.00  0.00     0.266 C 
HETATM   25  O   UNK N   1      27.872  17.364   9.721  0.00  0.00    -0.266 OA
HETATM   26  N   UNK N   1      29.794  18.441  10.000  0.00  0.00    -0.365 N 
HETATM   27  H   UNK N   1      29.683  18.596  10.966  0.00  0.00     0.159 HD
HETATM   28  H   UNK N   1      30.632  18.742   9.579  0.00  0.00     0.159 HD
ENDBRANCH  19  24
ENDBRANCH  11  17
ENDBRANCH   7   8
ENDBRANCH   6   7
ENDBRANCH   4   6
BRANCH   4  29
HETATM   29  O   UNK N   1      34.286  15.512  11.483  0.00  0.00    -0.307 OA
HETATM   30  H   UNK N   1      34.025  14.583  11.588  0.00  0.00     0.222 HD
ENDBRANCH   4  29
ENDBRANCH   3   4
ENDBRANCH   1   3
BRANCH   1  31
HETATM   31  O   UNK N   1      37.090  15.433  10.625  0.00  0.00    -0.307 OA
HETATM   32  H   UNK N   1      36.581  15.799  11.366  0.00  0.00     0.222 HD
ENDBRANCH   1  31
BRANCH   1  33
HETATM   33  O   UNK N   1      36.903  13.711  11.793  0.00  0.00    -0.294 OA
BRANCH  33  34
HETATM   34  C   UNK N   1      37.337  12.450  12.280  0.00  0.00     0.215 C 
BRANCH  34  35
HETATM   35  C   UNK N   1      36.381  11.842  13.286  0.00  0.00     0.180 C 
HETATM   36  C   UNK N   1      35.292  12.821  13.615  0.00  0.00     0.182 C 
HETATM   37  C   UNK N   1      34.864  12.279  14.921  0.00  0.00     0.198 C 
HETATM   38  C   UNK N   1      36.226  11.998  15.518  0.00  0.00     0.262 C 
HETATM   39  O   UNK N   1      37.033  11.482  14.484  0.00  0.00    -0.353 OA
BRANCH  36  40
HETATM   40  O   UNK N   1      34.261  12.761  12.676  0.00  0.00    -0.390 OA
HETATM   41  H   UNK N   1      33.354  12.431  12.585  0.00  0.00     0.210 HD
ENDBRANCH  36  40
BRANCH  37  42
HETATM   42  O   UNK N   1      34.175  13.256  15.640  0.00  0.00    -0.388 OA
HETATM   43  H   UNK N   1      34.051  13.266  16.602  0.00  0.00     0.210 HD
ENDBRANCH  37  42
BRANCH  38  44
HETATM   44  N   UNK N   1      36.148  11.061  16.638  0.00  0.00    -0.297 N 
HETATM   45  C   UNK N   1      36.458   9.736  16.630  0.00  0.00     0.188 A 
HETATM   46  N   UNK N   1      36.285   9.178  17.862  0.00  0.00    -0.346 N 
HETATM   47  C   UNK N   1      35.861  10.199  18.632  0.00  0.00     0.122 A 
ATOM     48  HN  UNK N   1      36.441   8.209  18.139  1.00  0.00     0.167 HD
HETATM   49  C   UNK N   1      35.783  11.323  17.897  0.00  0.00     0.142 A 
HETATM   50  C   UNK N   1      35.525  10.223  19.975  0.00  0.00     0.131 A 
HETATM   51  N   UNK N   1      35.386  12.509  18.417  0.00  0.00    -0.336 N 
HETATM   52  C   UNK N   1      35.046  12.549  19.741  0.00  0.00     0.183 A 
ATOM     53  HN  UNK N   1      35.343  13.348  17.839  1.00  0.00     0.168 HD
HETATM   54  N   UNK N   1      35.117  11.414  20.511  0.00  0.00    -0.337 N 
ATOM     55  HN  UNK N   1      34.860  11.458  21.498  1.00  0.00     0.168 HD
BRANCH  50  56
HETATM   56  N   UNK N   1      35.600   9.065  20.772  0.00  0.00    -0.383 N 
HETATM   57  H   UNK N   1      36.144   9.033  21.593  0.00  0.00     0.157 HD
HETATM   58  H   UNK N   1      35.094   8.265  20.502  0.00  0.00     0.157 HD
ENDBRANCH  50  56
ENDBRANCH  38  44
ENDBRANCH  34  35
ENDBRANCH  33  34
ENDBRANCH   1  33
TORSDOF 18
ENDMDL
MODEL 3
REMARK VINA RESULT:      -8.6      3.157     11.327
REMARK  18 active torsions:
REMARK  status: ('A' for Active; 'I' for Inactive)
REMARK    1  A    between atoms: C_3  and  C_46 
REMARK    2  A    between atoms: C_6  and  C_8 
REMARK    3  A    between atoms: C_9  and  O_45 
REMARK    4  A    between atoms: C_10  and  O_44 
REMARK    5  A    between atoms: C_11  and  C_13 
REMARK    6  A    between atoms: C_13  and  O_14 
REMARK    7  A    between atoms: O_14  and  P_15 
REMARK    8  A    between atoms: P_15  and  O_17 
REMARK    9  A    between atoms: P_15  and  O_18 
REMARK   10  A    between atoms: O_18  and  P_19 
REMARK   11  A    between atoms: P_19  and  O_21 
REMARK   12  A    between atoms: P_19  and  O_22 
REMARK   13  A    between atoms: O_22  and  C_23 
REMARK   14  A    between atoms: C_24  and  C_23 
REMARK   15  A    between atoms: C_25  and  O_43 
REMARK   16  A    between atoms: C_26  and  O_42 
REMARK   17  A    between atoms: C_27  and  N_29 
REMARK   18  A    between atoms: C_40  and  N_41 
REMARK       I    between atoms: C_46  and  N_48 
ROOT
HETATM    1  P   UNK N   1      35.068  14.802   9.369  0.00  0.00     0.401 P 
HETATM    2  O   UNK N   1      33.645  15.048   9.936  0.00  0.00    -0.631 OA
ENDROOT
BRANCH   1   3
HETATM    3  O   UNK N   1      35.269  16.580   9.501  0.00  0.00    -0.195 OA
BRANCH   3   4
HETATM    4  P   UNK N   1      34.384  17.654   8.381  0.00  0.00     0.401 P 
HETATM    5  O   UNK N   1      35.023  19.065   8.344  0.00  0.00    -0.631 OA
BRANCH   4   6
HETATM    6  O   UNK N   1      34.567  17.051   6.756  0.00  0.00    -0.294 OA
BRANCH   6   7
HETATM    7  C   UNK N   1      33.619  17.705   5.959  0.00  0.00     0.215 C 
BRANCH   7   8
HETATM    8  C   UNK N   1      32.697  16.694   5.296  0.00  0.00     0.178 C 
HETATM    9  C   UNK N   1      31.986  17.288   4.110  0.00  0.00     0.180 C 
HETATM   10  C   UNK N   1      30.839  16.347   4.055  0.00  0.00     0.184 C 
HETATM   11  C   UNK N   1      30.489  16.251   5.536  0.00  0.00     0.203 C 
HETATM   12  O   UNK N   1      31.724  16.237   6.217  0.00  0.00    -0.367 OA
BRANCH   9  13
HETATM   13  O   UNK N   1      32.774  17.190   2.964  0.00  0.00    -0.390 OA
HETATM   14  H   UNK N   1      33.627  17.648   2.917  0.00  0.00     0.210 HD
ENDBRANCH   9  13
BRANCH  10  15
HETATM   15  O   UNK N   1      29.802  16.796   3.238  0.00  0.00    -0.390 OA
HETATM   16  H   UNK N   1      29.824  16.654   2.279  0.00  0.00     0.210 HD
ENDBRANCH  10  15
BRANCH  11  17
HETATM   17  C   UNK N   1      29.615  17.351   6.107  0.00  0.00     0.041 A 
HETATM   18  N   UNK N   1      29.012  18.268   5.299  0.00  0.00    -0.353 N 
HETATM   19  C   UNK N   1      28.186  19.234   5.790  0.00  0.00     0.100 A 
ATOM     20  HN  UNK N   1      29.185  18.231   4.294  1.00  0.00     0.166 HD
HETATM   21  C   UNK N   1      27.953  19.309   7.168  0.00  0.00     0.035 A 
HETATM   22  C   UNK N   1      28.566  18.389   8.019  0.00  0.00     0.004 A 
HETATM   23  C   UNK N   1      29.392  17.398   7.487  0.00  0.00     0.028 A 
BRANCH  19  24
HETATM   24  C   UNK N   1      27.522  20.171   4.863  0.00  0.00     0.266 C 
HETATM   25  O   UNK N   1      27.104  21.242   5.275  0.00  0.00    -0.266 OA
HETATM   26  N   UNK N   1      27.390  19.865   3.556  0.00  0.00    -0.365 N 
HETATM   27  H   UNK N   1      26.898  20.415   2.904  0.00  0.00     0.159 HD
HETATM   28  H   UNK N   1      27.812  19.035   3.234  0.00  0.00     0.159 HD
ENDBRANCH  19  24
ENDBRANCH  11  17
ENDBRANCH   7   8
ENDBRANCH   6   7
ENDBRANCH   4   6
BRANCH   4  29
HETATM   29  O   UNK N   1      32.697  17.834   8.770  0.00  0.00    -0.307 OA
HETATM   30  H   UNK N   1      32.124  17.075   8.963  0.00  0.00     0.222 HD
ENDBRANCH   4  29
ENDBRANCH   3   4
ENDBRANCH   1   3
BRANCH   1  31
HETATM   31  O   UNK N   1      36.448  15.320  10.305  0.00  0.00    -0.307 OA
HETATM   32  H   UNK N   1      36.689  14.926  11.158  0.00  0.00     0.222 HD
ENDBRANCH   1  31
BRANCH   1  33
HETATM   33  O   UNK N   1      35.244  13.670  10.746  0.00  0.00    -0.294 OA
BRANCH  33  34
HETATM   34  C   UNK N   1      34.902  14.236  12.003  0.00  0.00     0.215 C 
BRANCH  34  35
HETATM   35  C   UNK N   1      35.669  13.624  13.157  0.00  0.00     0.180 C 
HETATM   36  C   UNK N   1      36.595  12.557  12.650  0.00  0.00     0.182 C 
HETATM   37  C   UNK N   1      36.779  11.782  13.894  0.00  0.00     0.198 C 
HETATM   38  C   UNK N   1      35.345  11.771  14.380  0.00  0.00     0.262 C 
HETATM   39  O   UNK N   1      34.809  13.048  14.116  0.00  0.00    -0.353 OA
BRANCH  36  40
HETATM   40  O   UNK N   1      37.800  13.105  12.208  0.00  0.00    -0.390 OA
HETATM   41  H   UNK N   1      38.230  13.398  11.390  0.00  0.00     0.210 HD
ENDBRANCH  36  40
BRANCH  37  42
HETATM   42  O   UNK N   1      37.234  10.499  13.593  0.00  0.00    -0.388 OA
HETATM   43  H   UNK N   1      37.300   9.762  14.220  0.00  0.00     0.210 HD
ENDBRANCH  37  42
BRANCH  38  44
HETATM   44  N   UNK N   1      35.254  11.450  15.804  0.00  0.00    -0.297 N 
HETATM   45  C   UNK N   1      35.135  10.217  16.367  0.00  0.00     0.188 A 
HETATM   46  N   UNK N   1      35.099  10.294  17.727  0.00  0.00    -0.346 N 
HETATM   47  C   UNK N   1      35.202  11.611  17.987  0.00  0.00     0.122 A 
ATOM     48  HN  UNK N   1      35.013   9.528  18.396  1.00  0.00     0.167 HD
HETATM   49  C   UNK N   1      35.298  12.299  16.835  0.00  0.00     0.142 A 
HETATM   50  C   UNK N   1      35.220  12.282  19.199  0.00  0.00     0.131 A 
HETATM   51  N   UNK N   1      35.417  13.647  16.798  0.00  0.00    -0.336 N 
HETATM   52  C   UNK N   1      35.430  14.325  17.985  0.00  0.00     0.183 A 
ATOM     53  HN  UNK N   1      35.495  14.143  15.909  1.00  0.00     0.168 HD
HETATM   54  N   UNK N   1      35.334  13.645  19.175  0.00  0.00    -0.337 N 
ATOM     55  HN  UNK N   1      35.345  14.164  20.053  1.00  0.00     0.168 HD
BRANCH  50  56
HETATM   56  N   UNK N   1      35.125  11.591  20.423  0.00  0.00    -0.383 N 
HETATM   57  H   UNK N   1      34.257  11.406  20.849  0.00  0.00     0.157 HD
HETATM   58  H   UNK N   1      35.950  11.285  20.865  0.00  0.00     0.157 HD
ENDBRANCH  50  56
ENDBRANCH  38  44
ENDBRANCH  34  35
ENDBRANCH  33  34
ENDBRANCH   1  33
TORSDOF 18
ENDMDL
MODEL 4
REMARK VINA RESULT:      -8.4      2.744      4.790
REMARK  18 active torsions:
REMARK  status: ('A' for Active; 'I' for Inactive)
REMARK    1  A    between atoms: C_3  and  C_46 
REMARK    2  A    between atoms: C_6  and  C_8 
REMARK    3  A    between atoms: C_9  and  O_45 
REMARK    4  A    between atoms: C_10  and  O_44 
REMARK    5  A    between atoms: C_11  and  C_13 
REMARK    6  A    between atoms: C_13  and  O_14 
REMARK    7  A    between atoms: O_14  and  P_15 
REMARK    8  A    between atoms: P_15  and  O_17 
REMARK    9  A    between atoms: P_15  and  O_18 
REMARK   10  A    between atoms: O_18  and  P_19 
REMARK   11  A    between atoms: P_19  and  O_21 
REMARK   12  A    between atoms: P_19  and  O_22 
REMARK   13  A    between atoms: O_22  and  C_23 
REMARK   14  A    between atoms: C_24  and  C_23 
REMARK   15  A    between atoms: C_25  and  O_43 
REMARK   16  A    between atoms: C_26  and  O_42 
REMARK   17  A    between atoms: C_27  and  N_29 
REMARK   18  A    between atoms: C_40  and  N_41 
REMARK       I    between atoms: C_46  and  N_48 
ROOT
HETATM    1  P   UNK N   1      34.542  17.675   8.229  0.00  0.00     0.401 P 
HETATM    2  O   UNK N   1      34.941  19.170   8.341  0.00  0.00    -0.631 OA
ENDROOT
BRANCH   1   3
HETATM    3  O   UNK N   1      35.304  17.503   9.846  0.00  0.00    -0.195 OA
BRANCH   3   4
HETATM    4  P   UNK N   1      35.700  15.876  10.466  0.00  0.00     0.401 P 
HETATM    5  O   UNK N   1      35.087  15.654  11.871  0.00  0.00    -0.631 OA
BRANCH   4   6
HETATM    6  O   UNK N   1      34.925  14.682   9.460  0.00  0.00    -0.294 OA
BRANCH   6   7
HETATM    7  C   UNK N   1      35.543  13.452   9.718  0.00  0.00     0.215 C 
BRANCH   7   8
HETATM    8  C   UNK N   1      36.020  12.817   8.422  0.00  0.00     0.178 C 
HETATM    9  C   UNK N   1      36.697  13.821   7.529  0.00  0.00     0.180 C 
HETATM   10  C   UNK N   1      36.527  13.108   6.238  0.00  0.00     0.184 C 
HETATM   11  C   UNK N   1      35.080  12.642   6.368  0.00  0.00     0.203 C 
HETATM   12  O   UNK N   1      34.927  12.257   7.717  0.00  0.00    -0.367 OA
BRANCH   9  13
HETATM   13  O   UNK N   1      38.046  13.945   7.862  0.00  0.00    -0.390 OA
HETATM   14  H   UNK N   1      38.311  14.060   8.788  0.00  0.00     0.210 HD
ENDBRANCH   9  13
BRANCH  10  15
HETATM   15  O   UNK N   1      36.782  13.917   5.130  0.00  0.00    -0.390 OA
HETATM   16  H   UNK N   1      37.630  13.871   4.663  0.00  0.00     0.210 HD
ENDBRANCH  10  15
BRANCH  11  17
HETATM   17  C   UNK N   1      34.002  13.645   6.008  0.00  0.00     0.041 A 
HETATM   18  N   UNK N   1      34.033  14.327   4.828  0.00  0.00    -0.353 N 
HETATM   19  C   UNK N   1      33.047  15.196   4.467  0.00  0.00     0.100 A 
ATOM     20  HN  UNK N   1      34.820  14.183   4.195  1.00  0.00     0.166 HD
HETATM   21  C   UNK N   1      31.970  15.418   5.334  0.00  0.00     0.035 A 
HETATM   22  C   UNK N   1      31.919  14.740   6.552  0.00  0.00     0.004 A 
HETATM   23  C   UNK N   1      32.931  13.841   6.888  0.00  0.00     0.028 A 
BRANCH  19  24
HETATM   24  C   UNK N   1      33.109  15.871   3.156  0.00  0.00     0.266 C 
HETATM   25  O   UNK N   1      33.847  15.442   2.284  0.00  0.00    -0.266 OA
HETATM   26  N   UNK N   1      32.339  16.950   2.904  0.00  0.00    -0.365 N 
HETATM   27  H   UNK N   1      32.385  17.483   2.078  0.00  0.00     0.159 HD
HETATM   28  H   UNK N   1      31.690  17.222   3.593  0.00  0.00     0.159 HD
ENDBRANCH  19  24
ENDBRANCH  11  17
ENDBRANCH   7   8
ENDBRANCH   6   7
ENDBRANCH   4   6
BRANCH   4  29
HETATM   29  O   UNK N   1      37.409  15.560  10.566  0.00  0.00    -0.307 OA
HETATM   30  H   UNK N   1      37.765  14.672  10.729  0.00  0.00     0.222 HD
ENDBRANCH   4  29
ENDBRANCH   3   4
ENDBRANCH   1   3
BRANCH   1  31
HETATM   31  O   UNK N   1      33.514  16.984   9.459  0.00  0.00    -0.307 OA
HETATM   32  H   UNK N   1      33.778  16.905  10.389  0.00  0.00     0.222 HD
ENDBRANCH   1  31
BRANCH   1  33
HETATM   33  O   UNK N   1      32.886  18.304   7.966  0.00  0.00    -0.294 OA
BRANCH  33  34
HETATM   34  C   UNK N   1      31.877  17.564   8.637  0.00  0.00     0.215 C 
BRANCH  34  35
HETATM   35  C   UNK N   1      30.484  18.112   8.400  0.00  0.00     0.180 C 
HETATM   36  C   UNK N   1      29.573  17.697   9.517  0.00  0.00     0.182 C 
HETATM   37  C   UNK N   1      28.270  17.836   8.834  0.00  0.00     0.198 C 
HETATM   38  C   UNK N   1      28.635  17.215   7.502  0.00  0.00     0.262 C 
HETATM   39  O   UNK N   1      29.937  17.652   7.184  0.00  0.00    -0.353 OA
BRANCH  36  40
HETATM   40  O   UNK N   1      29.675  18.569  10.601  0.00  0.00    -0.390 OA
HETATM   41  H   UNK N   1      30.319  19.154  11.030  0.00  0.00     0.210 HD
ENDBRANCH  36  40
BRANCH  37  42
HETATM   42  O   UNK N   1      27.299  17.092   9.503  0.00  0.00    -0.388 OA
HETATM   43  H   UNK N   1      27.365  16.152   9.730  0.00  0.00     0.210 HD
ENDBRANCH  37  42
BRANCH  38  44
HETATM   44  N   UNK N   1      27.687  17.583   6.451  0.00  0.00    -0.297 N 
HETATM   45  C   UNK N   1      26.944  16.747   5.677  0.00  0.00     0.188 A 
HETATM   46  N   UNK N   1      26.152  17.442   4.813  0.00  0.00    -0.346 N 
HETATM   47  C   UNK N   1      26.426  18.734   5.078  0.00  0.00     0.122 A 
ATOM     48  HN  UNK N   1      25.499  17.069   4.123  1.00  0.00     0.167 HD
HETATM   49  C   UNK N   1      27.343  18.814   6.059  0.00  0.00     0.142 A 
HETATM   50  C   UNK N   1      25.918  19.888   4.506  0.00  0.00     0.131 A 
HETATM   51  N   UNK N   1      27.803  19.996   6.532  0.00  0.00    -0.336 N 
HETATM   52  C   UNK N   1      27.316  21.146   5.974  0.00  0.00     0.183 A 
ATOM     53  HN  UNK N   1      28.494  20.029   7.282  1.00  0.00     0.168 HD
HETATM   54  N   UNK N   1      26.380  21.089   4.970  0.00  0.00    -0.337 N 
ATOM     55  HN  UNK N   1      26.025  21.955   4.563  1.00  0.00     0.168 HD
BRANCH  50  56
HETATM   56  N   UNK N   1      24.955  19.838   3.479  0.00  0.00    -0.383 N 
HETATM   57  H   UNK N   1      24.707  18.992   3.041  0.00  0.00     0.157 HD
HETATM   58  H   UNK N   1      24.518  20.671   3.192  0.00  0.00     0.157 HD
ENDBRANCH  50  56
ENDBRANCH  38  44
ENDBRANCH  34  35
ENDBRANCH  33  34
ENDBRANCH   1  33
TORSDOF 18
ENDMDL
MODEL 5
REMARK VINA RESULT:      -8.2      6.099     12.143
REMARK  18 active torsions:
REMARK  status: ('A' for Active; 'I' for Inactive)
REMARK    1  A    between atoms: C_3  and  C_46 
REMARK    2  A    between atoms: C_6  and  C_8 
REMARK    3  A    between atoms: C_9  and  O_45 
REMARK    4  A    between atoms: C_10  and  O_44 
REMARK    5  A    between atoms: C_11  and  C_13 
REMARK    6  A    between atoms: C_13  and  O_14 
REMARK    7  A    between atoms: O_14  and  P_15 
REMARK    8  A    between atoms: P_15  and  O_17 
REMARK    9  A    between atoms: P_15  and  O_18 
REMARK   10  A    between atoms: O_18  and  P_19 
REMARK   11  A    between atoms: P_19  and  O_21 
REMARK   12  A    between atoms: P_19  and  O_22 
REMARK   13  A    between atoms: O_22  and  C_23 
REMARK   14  A    between atoms: C_24  and  C_23 
REMARK   15  A    between atoms: C_25  and  O_43 
REMARK   16  A    between atoms: C_26  and  O_42 
REMARK   17  A    between atoms: C_27  and  N_29 
REMARK   18  A    between atoms: C_40  and  N_41 
REMARK       I    between atoms: C_46  and  N_48 
ROOT
HETATM    1  P   UNK N   1      25.906  19.042   4.183  0.00  0.00     0.401 P 
HETATM    2  O   UNK N   1      25.588  17.758   3.373  0.00  0.00    -0.631 OA
ENDROOT
BRANCH   1   3
HETATM    3  O   UNK N   1      24.131  19.306   4.182  0.00  0.00    -0.195 OA
BRANCH   3   4
HETATM    4  P   UNK N   1      23.052  18.056   4.864  0.00  0.00     0.401 P 
HETATM    5  O   UNK N   1      22.068  18.672   5.890  0.00  0.00    -0.631 OA
BRANCH   4   6
HETATM    6  O   UNK N   1      22.029  17.438   3.596  0.00  0.00    -0.294 OA
BRANCH   6   7
HETATM    7  C   UNK N   1      22.302  16.071   3.467  0.00  0.00     0.215 C 
BRANCH   7   8
HETATM    8  C   UNK N   1      21.015  15.264   3.536  0.00  0.00     0.178 C 
HETATM    9  C   UNK N   1      19.844  16.123   3.931  0.00  0.00     0.180 C 
HETATM   10  C   UNK N   1      18.955  15.050   4.443  0.00  0.00     0.184 C 
HETATM   11  C   UNK N   1      19.953  14.222   5.245  0.00  0.00     0.203 C 
HETATM   12  O   UNK N   1      21.140  14.218   4.482  0.00  0.00    -0.367 OA
BRANCH   9  13
HETATM   13  O   UNK N   1      19.291  16.745   2.812  0.00  0.00    -0.390 OA
HETATM   14  H   UNK N   1      19.414  16.361   1.930  0.00  0.00     0.210 HD
ENDBRANCH   9  13
BRANCH  10  15
HETATM   15  O   UNK N   1      17.877  15.540   5.180  0.00  0.00    -0.390 OA
HETATM   16  H   UNK N   1      17.921  16.406   5.616  0.00  0.00     0.210 HD
ENDBRANCH  10  15
BRANCH  11  17
HETATM   17  C   UNK N   1      20.264  14.697   6.651  0.00  0.00     0.041 A 
HETATM   18  N   UNK N   1      19.794  15.888   7.118  0.00  0.00    -0.353 N 
HETATM   19  C   UNK N   1      20.023  16.308   8.394  0.00  0.00     0.100 A 
ATOM     20  HN  UNK N   1      19.254  16.485   6.492  1.00  0.00     0.166 HD
HETATM   21  C   UNK N   1      20.778  15.508   9.259  0.00  0.00     0.035 A 
HETATM   22  C   UNK N   1      21.280  14.288   8.804  0.00  0.00     0.004 A 
HETATM   23  C   UNK N   1      21.014  13.874   7.499  0.00  0.00     0.028 A 
BRANCH  19  24
HETATM   24  C   UNK N   1      19.450  17.586   8.860  0.00  0.00     0.266 C 
HETATM   25  O   UNK N   1      20.182  18.535   9.090  0.00  0.00    -0.266 OA
HETATM   26  N   UNK N   1      18.117  17.723   9.014  0.00  0.00    -0.365 N 
HETATM   27  H   UNK N   1      17.680  18.523   9.385  0.00  0.00     0.159 HD
HETATM   28  H   UNK N   1      17.543  16.971   8.739  0.00  0.00     0.159 HD
ENDBRANCH  19  24
ENDBRANCH  11  17
ENDBRANCH   7   8
ENDBRANCH   6   7
ENDBRANCH   4   6
BRANCH   4  29
HETATM   29  O   UNK N   1      23.898  16.750   5.644  0.00  0.00    -0.307 OA
HETATM   30  H   UNK N   1      24.387  16.870   6.474  0.00  0.00     0.222 HD
ENDBRANCH   4  29
ENDBRANCH   3   4
ENDBRANCH   1   3
BRANCH   1  31
HETATM   31  O   UNK N   1      25.190  19.241   5.762  0.00  0.00    -0.307 OA
HETATM   32  H   UNK N   1      25.099  18.515   6.399  0.00  0.00     0.222 HD
ENDBRANCH   1  31
BRANCH   1  33
HETATM   33  O   UNK N   1      26.752  17.931   5.305  0.00  0.00    -0.294 OA
BRANCH  33  34
HETATM   34  C   UNK N   1      27.730  18.565   6.115  0.00  0.00     0.215 C 
BRANCH  34  35
HETATM   35  C   UNK N   1      28.446  17.605   7.041  0.00  0.00     0.180 C 
HETATM   36  C   UNK N   1      28.637  18.237   8.388  0.00  0.00     0.182 C 
HETATM   37  C   UNK N   1      29.764  17.419   8.884  0.00  0.00     0.198 C 
HETATM   38  C   UNK N   1      30.601  17.382   7.623  0.00  0.00     0.262 C 
HETATM   39  O   UNK N   1      29.711  17.232   6.539  0.00  0.00    -0.353 OA
BRANCH  36  40
HETATM   40  O   UNK N   1      27.503  18.077   9.185  0.00  0.00    -0.390 OA
HETATM   41  H   UNK N   1      26.541  18.189   9.143  0.00  0.00     0.210 HD
ENDBRANCH  36  40
BRANCH  37  42
HETATM   42  O   UNK N   1      30.417  18.086   9.920  0.00  0.00    -0.388 OA
HETATM   43  H   UNK N   1      30.212  18.979  10.234  0.00  0.00     0.210 HD
ENDBRANCH  37  42
BRANCH  38  44
HETATM   44  N   UNK N   1      31.579  16.295   7.651  0.00  0.00    -0.297 N 
HETATM   45  C   UNK N   1      31.491  15.087   7.030  0.00  0.00     0.188 A 
HETATM   46  N   UNK N   1      32.600  14.329   7.259  0.00  0.00    -0.346 N 
HETATM   47  C   UNK N   1      33.378  15.106   8.037  0.00  0.00     0.122 A 
ATOM     48  HN  UNK N   1      32.798  13.388   6.917  1.00  0.00     0.167 HD
HETATM   49  C   UNK N   1      32.765  16.281   8.267  0.00  0.00     0.142 A 
HETATM   50  C   UNK N   1      34.627  14.856   8.581  0.00  0.00     0.131 A 
HETATM   51  N   UNK N   1      33.323  17.259   9.019  0.00  0.00    -0.336 N 
HETATM   52  C   UNK N   1      34.553  17.027   9.568  0.00  0.00     0.183 A 
ATOM     53  HN  UNK N   1      32.839  18.145   9.172  1.00  0.00     0.168 HD
HETATM   54  N   UNK N   1      35.198  15.834   9.348  0.00  0.00    -0.337 N 
ATOM     55  HN  UNK N   1      36.116  15.675   9.764  1.00  0.00     0.168 HD
BRANCH  50  56
HETATM   56  N   UNK N   1      35.297  13.638   8.356  0.00  0.00    -0.383 N 
HETATM   57  H   UNK N   1      35.996  13.309   8.967  0.00  0.00     0.157 HD
HETATM   58  H   UNK N   1      35.059  13.100   7.568  0.00  0.00     0.157 HD
ENDBRANCH  50  56
ENDBRANCH  38  44
ENDBRANCH  34  35
ENDBRANCH  33  34
ENDBRANCH   1  33
TORSDOF 18
ENDMDL
MODEL 6
REMARK VINA RESULT:      -8.2      2.192      3.100
REMARK  18 active torsions:
REMARK  status: ('A' for Active; 'I' for Inactive)
REMARK    1  A    between atoms: C_3  and  C_46 
REMARK    2  A    between atoms: C_6  and  C_8 
REMARK    3  A    between atoms: C_9  and  O_45 
REMARK    4  A    between atoms: C_10  and  O_44 
REMARK    5  A    between atoms: C_11  and  C_13 
REMARK    6  A    between atoms: C_13  and  O_14 
REMARK    7  A    between atoms: O_14  and  P_15 
REMARK    8  A    between atoms: P_15  and  O_17 
REMARK    9  A    between atoms: P_15  and  O_18 
REMARK   10  A    between atoms: O_18  and  P_19 
REMARK   11  A    between atoms: P_19  and  O_21 
REMARK   12  A    between atoms: P_19  and  O_22 
REMARK   13  A    between atoms: O_22  and  C_23 
REMARK   14  A    between atoms: C_24  and  C_23 
REMARK   15  A    between atoms: C_25  and  O_43 
REMARK   16  A    between atoms: C_26  and  O_42 
REMARK   17  A    between atoms: C_27  and  N_29 
REMARK   18  A    between atoms: C_40  and  N_41 
REMARK       I    between atoms: C_46  and  N_48 
ROOT
HETATM    1  P   UNK N   1      34.528  17.605   8.312  0.00  0.00     0.401 P 
HETATM    2  O   UNK N   1      35.007  19.069   8.500  0.00  0.00    -0.631 OA
ENDROOT
BRANCH   1   3
HETATM    3  O   UNK N   1      35.382  17.283   9.858  0.00  0.00    -0.195 OA
BRANCH   3   4
HETATM    4  P   UNK N   1      35.792  15.603  10.306  0.00  0.00     0.401 P 
HETATM    5  O   UNK N   1      37.268  15.283   9.961  0.00  0.00    -0.631 OA
BRANCH   4   6
HETATM    6  O   UNK N   1      35.706  15.442  12.039  0.00  0.00    -0.294 OA
BRANCH   6   7
HETATM    7  C   UNK N   1      34.993  14.268  12.314  0.00  0.00     0.215 C 
BRANCH   7   8
HETATM    8  C   UNK N   1      35.943  13.087  12.429  0.00  0.00     0.178 C 
HETATM    9  C   UNK N   1      35.200  11.801  12.676  0.00  0.00     0.180 C 
HETATM   10  C   UNK N   1      36.313  11.023  13.275  0.00  0.00     0.184 C 
HETATM   11  C   UNK N   1      36.914  12.072  14.206  0.00  0.00     0.203 C 
HETATM   12  O   UNK N   1      36.853  13.288  13.494  0.00  0.00    -0.367 OA
BRANCH   9  13
HETATM   13  O   UNK N   1      34.782  11.236  11.471  0.00  0.00    -0.390 OA
HETATM   14  H   UNK N   1      35.111  10.365  11.201  0.00  0.00     0.210 HD
ENDBRANCH   9  13
BRANCH  10  15
HETATM   15  O   UNK N   1      35.884   9.857  13.909  0.00  0.00    -0.390 OA
HETATM   16  H   UNK N   1      36.492   9.329  14.450  0.00  0.00     0.210 HD
ENDBRANCH  10  15
BRANCH  11  17
HETATM   17  C   UNK N   1      36.250  12.249  15.558  0.00  0.00     0.041 A 
HETATM   18  N   UNK N   1      35.962  11.179  16.352  0.00  0.00    -0.353 N 
HETATM   19  C   UNK N   1      35.410  11.323  17.590  0.00  0.00     0.100 A 
ATOM     20  HN  UNK N   1      36.166  10.240  16.009  1.00  0.00     0.166 HD
HETATM   21  C   UNK N   1      35.108  12.604  18.066  0.00  0.00     0.035 A 
HETATM   22  C   UNK N   1      35.382  13.715  17.269  0.00  0.00     0.004 A 
HETATM   23  C   UNK N   1      35.966  13.541  16.015  0.00  0.00     0.028 A 
BRANCH  19  24
HETATM   24  C   UNK N   1      35.164  10.132  18.426  0.00  0.00     0.266 C 
HETATM   25  O   UNK N   1      34.546   9.184  17.969  0.00  0.00    -0.266 OA
HETATM   26  N   UNK N   1      35.635  10.072  19.689  0.00  0.00    -0.365 N 
HETATM   27  H   UNK N   1      35.447   9.338  20.317  0.00  0.00     0.159 HD
HETATM   28  H   UNK N   1      36.203  10.812  20.003  0.00  0.00     0.159 HD
ENDBRANCH  19  24
ENDBRANCH  11  17
ENDBRANCH   7   8
ENDBRANCH   6   7
ENDBRANCH   4   6
BRANCH   4  29
HETATM   29  O   UNK N   1      34.786  14.408   9.539  0.00  0.00    -0.307 OA
HETATM   30  H   UNK N   1      34.967  14.070   8.647  0.00  0.00     0.222 HD
ENDBRANCH   4  29
ENDBRANCH   3   4
ENDBRANCH   1   3
BRANCH   1  31
HETATM   31  O   UNK N   1      33.547  16.875   9.557  0.00  0.00    -0.307 OA
HETATM   32  H   UNK N   1      33.186  15.977   9.490  0.00  0.00     0.222 HD
ENDBRANCH   1  31
BRANCH   1  33
HETATM   33  O   UNK N   1      32.892  18.326   8.204  0.00  0.00    -0.294 OA
BRANCH  33  34
HETATM   34  C   UNK N   1      31.846  17.429   8.547  0.00  0.00     0.215 C 
BRANCH  34  35
HETATM   35  C   UNK N   1      30.467  18.028   8.358  0.00  0.00     0.180 C 
HETATM   36  C   UNK N   1      29.571  17.621   9.490  0.00  0.00     0.182 C 
HETATM   37  C   UNK N   1      28.257  17.818   8.845  0.00  0.00     0.198 C 
HETATM   38  C   UNK N   1      28.565  17.213   7.492  0.00  0.00     0.262 C 
HETATM   39  O   UNK N   1      29.873  17.613   7.147  0.00  0.00    -0.353 OA
BRANCH  36  40
HETATM   40  O   UNK N   1      29.731  18.467  10.588  0.00  0.00    -0.390 OA
HETATM   41  H   UNK N   1      30.416  18.988  11.034  0.00  0.00     0.210 HD
ENDBRANCH  36  40
BRANCH  37  42
HETATM   42  O   UNK N   1      27.278  17.094   9.525  0.00  0.00    -0.388 OA
HETATM   43  H   UNK N   1      26.732  17.429  10.253  0.00  0.00     0.210 HD
ENDBRANCH  37  42
BRANCH  38  44
HETATM   44  N   UNK N   1      27.603  17.635   6.474  0.00  0.00    -0.297 N 
HETATM   45  C   UNK N   1      26.785  16.842   5.730  0.00  0.00     0.188 A 
HETATM   46  N   UNK N   1      26.005  17.582   4.892  0.00  0.00    -0.346 N 
HETATM   47  C   UNK N   1      26.364  18.856   5.143  0.00  0.00     0.122 A 
ATOM     48  HN  UNK N   1      25.307  17.247   4.227  1.00  0.00     0.167 HD
HETATM   49  C   UNK N   1      27.318  18.883   6.091  0.00  0.00     0.142 A 
HETATM   50  C   UNK N   1      25.903  20.037   4.586  0.00  0.00     0.131 A 
HETATM   51  N   UNK N   1      27.863  20.037   6.542  0.00  0.00    -0.336 N 
HETATM   52  C   UNK N   1      27.424  21.213   5.999  0.00  0.00     0.183 A 
ATOM     53  HN  UNK N   1      28.581  20.031   7.268  1.00  0.00     0.168 HD
HETATM   54  N   UNK N   1      26.452  21.210   5.029  0.00  0.00    -0.337 N 
ATOM     55  HN  UNK N   1      26.133  22.094   4.632  1.00  0.00     0.168 HD
BRANCH  50  56
HETATM   56  N   UNK N   1      24.903  20.042   3.594  0.00  0.00    -0.383 N 
HETATM   57  H   UNK N   1      24.749  19.265   3.009  0.00  0.00     0.157 HD
HETATM   58  H   UNK N   1      24.343  20.843   3.484  0.00  0.00     0.157 HD
ENDBRANCH  50  56
ENDBRANCH  38  44
ENDBRANCH  34  35
ENDBRANCH  33  34
ENDBRANCH   1  33
TORSDOF 18
ENDMDL
MODEL 7
REMARK VINA RESULT:      -8.2      2.972     12.011
REMARK  18 active torsions:
REMARK  status: ('A' for Active; 'I' for Inactive)
REMARK    1  A    between atoms: C_3  and  C_46 
REMARK    2  A    between atoms: C_6  and  C_8 
REMARK    3  A    between atoms: C_9  and  O_45 
REMARK    4  A    between atoms: C_10  and  O_44 
REMARK    5  A    between atoms: C_11  and  C_13 
REMARK    6  A    between atoms: C_13  and  O_14 
REMARK    7  A    between atoms: O_14  and  P_15 
REMARK    8  A    between atoms: P_15  and  O_17 
REMARK    9  A    between atoms: P_15  and  O_18 
REMARK   10  A    between atoms: O_18  and  P_19 
REMARK   11  A    between atoms: P_19  and  O_21 
REMARK   12  A    between atoms: P_19  and  O_22 
REMARK   13  A    between atoms: O_22  and  C_23 
REMARK   14  A    between atoms: C_24  and  C_23 
REMARK   15  A    between atoms: C_25  and  O_43 
REMARK   16  A    between atoms: C_26  and  O_42 
REMARK   17  A    between atoms: C_27  and  N_29 
REMARK   18  A    between atoms: C_40  and  N_41 
REMARK       I    between atoms: C_46  and  N_48 
ROOT
HETATM    1  P   UNK N   1      33.819  14.141   8.483  0.00  0.00     0.401 P 
HETATM    2  O   UNK N   1      32.471  14.573   9.118  0.00  0.00    -0.631 OA
ENDROOT
BRANCH   1   3
HETATM    3  O   UNK N   1      33.498  15.433   7.279  0.00  0.00    -0.195 OA
BRANCH   3   4
HETATM    4  P   UNK N   1      33.490  17.142   7.800  0.00  0.00     0.401 P 
HETATM    5  O   UNK N   1      34.655  17.926   7.145  0.00  0.00    -0.631 OA
BRANCH   4   6
HETATM    6  O   UNK N   1      32.050  17.913   7.191  0.00  0.00    -0.294 OA
BRANCH   6   7
HETATM    7  C   UNK N   1      30.952  17.210   7.703  0.00  0.00     0.215 C 
BRANCH   7   8
HETATM    8  C   UNK N   1      30.243  16.454   6.591  0.00  0.00     0.178 C 
HETATM    9  C   UNK N   1      30.595  17.002   5.235  0.00  0.00     0.180 C 
HETATM   10  C   UNK N   1      29.412  16.506   4.489  0.00  0.00     0.184 C 
HETATM   11  C   UNK N   1      28.302  16.829   5.483  0.00  0.00     0.203 C 
HETATM   12  O   UNK N   1      28.839  16.539   6.755  0.00  0.00    -0.367 OA
BRANCH   9  13
HETATM   13  O   UNK N   1      31.771  16.421   4.760  0.00  0.00    -0.390 OA
HETATM   14  H   UNK N   1      31.825  16.108   3.844  0.00  0.00     0.210 HD
ENDBRANCH   9  13
BRANCH  10  15
HETATM   15  O   UNK N   1      29.266  17.104   3.237  0.00  0.00    -0.390 OA
HETATM   16  H   UNK N   1      30.040  17.335   2.700  0.00  0.00     0.210 HD
ENDBRANCH  10  15
BRANCH  11  17
HETATM   17  C   UNK N   1      27.767  18.247   5.477  0.00  0.00     0.041 A 
HETATM   18  N   UNK N   1      27.006  18.713   4.446  0.00  0.00    -0.353 N 
HETATM   19  C   UNK N   1      26.477  19.969   4.447  0.00  0.00     0.100 A 
ATOM     20  HN  UNK N   1      26.826  18.102   3.650  1.00  0.00     0.166 HD
HETATM   21  C   UNK N   1      26.729  20.825   5.525  0.00  0.00     0.035 A 
HETATM   22  C   UNK N   1      27.514  20.377   6.587  0.00  0.00     0.004 A 
HETATM   23  C   UNK N   1      28.026  19.080   6.571  0.00  0.00     0.028 A 
BRANCH  19  24
HETATM   24  C   UNK N   1      25.620  20.404   3.326  0.00  0.00     0.266 C 
HETATM   25  O   UNK N   1      26.103  21.032   2.397  0.00  0.00    -0.266 OA
HETATM   26  N   UNK N   1      24.307  20.095   3.307  0.00  0.00    -0.365 N 
HETATM   27  H   UNK N   1      23.672  20.412   2.626  0.00  0.00     0.159 HD
HETATM   28  H   UNK N   1      23.961  19.514   4.024  0.00  0.00     0.159 HD
ENDBRANCH  19  24
ENDBRANCH  11  17
ENDBRANCH   7   8
ENDBRANCH   6   7
ENDBRANCH   4   6
BRANCH   4  29
HETATM   29  O   UNK N   1      33.601  17.350   9.524  0.00  0.00    -0.307 OA
HETATM   30  H   UNK N   1      33.617  16.598  10.139  0.00  0.00     0.222 HD
ENDBRANCH   4  29
ENDBRANCH   3   4
ENDBRANCH   1   3
BRANCH   1  31
HETATM   31  O   UNK N   1      35.089  15.326   8.317  0.00  0.00    -0.307 OA
HETATM   32  H   UNK N   1      35.419  15.858   9.058  0.00  0.00     0.222 HD
ENDBRANCH   1  31
BRANCH   1  33
HETATM   33  O   UNK N   1      34.497  14.439  10.114  0.00  0.00    -0.294 OA
BRANCH  33  34
HETATM   34  C   UNK N   1      34.591  13.274  10.919  0.00  0.00     0.215 C 
BRANCH  34  35
HETATM   35  C   UNK N   1      35.317  13.514  12.227  0.00  0.00     0.180 C 
HETATM   36  C   UNK N   1      36.691  12.913  12.168  0.00  0.00     0.182 C 
HETATM   37  C   UNK N   1      36.958  12.774  13.615  0.00  0.00     0.198 C 
HETATM   38  C   UNK N   1      35.609  12.247  14.054  0.00  0.00     0.262 C 
HETATM   39  O   UNK N   1      34.630  12.951  13.323  0.00  0.00    -0.353 OA
BRANCH  36  40
HETATM   40  O   UNK N   1      37.597  13.786  11.565  0.00  0.00    -0.390 OA
HETATM   41  H   UNK N   1      37.863  14.718  11.589  0.00  0.00     0.210 HD
ENDBRANCH  36  40
BRANCH  37  42
HETATM   42  O   UNK N   1      37.972  11.841  13.825  0.00  0.00    -0.388 OA
HETATM   43  H   UNK N   1      38.857  11.870  13.429  0.00  0.00     0.210 HD
ENDBRANCH  37  42
BRANCH  38  44
HETATM   44  N   UNK N   1      35.403  12.407  15.493  0.00  0.00    -0.297 N 
HETATM   45  C   UNK N   1      34.789  13.441  16.130  0.00  0.00     0.188 A 
HETATM   46  N   UNK N   1      34.759  13.246  17.479  0.00  0.00    -0.346 N 
HETATM   47  C   UNK N   1      35.371  12.059  17.656  0.00  0.00     0.122 A 
ATOM     48  HN  UNK N   1      34.363  13.859  18.192  1.00  0.00     0.167 HD
HETATM   49  C   UNK N   1      35.752  11.560  16.466  0.00  0.00     0.142 A 
HETATM   50  C   UNK N   1      35.631  11.355  18.820  0.00  0.00     0.131 A 
HETATM   51  N   UNK N   1      36.390  10.372  16.345  0.00  0.00    -0.336 N 
HETATM   52  C   UNK N   1      36.659   9.666  17.485  0.00  0.00     0.183 A 
ATOM     53  HN  UNK N   1      36.662  10.013  15.429  1.00  0.00     0.168 HD
HETATM   54  N   UNK N   1      36.280  10.156  18.711  0.00  0.00    -0.337 N 
ATOM     55  HN  UNK N   1      36.487   9.619  19.553  1.00  0.00     0.168 HD
BRANCH  50  56
HETATM   56  N   UNK N   1      35.242  11.849  20.080  0.00  0.00    -0.383 N 
HETATM   57  H   UNK N   1      34.898  11.255  20.787  0.00  0.00     0.157 HD
HETATM   58  H   UNK N   1      35.316  12.813  20.260  0.00  0.00     0.157 HD
ENDBRANCH  50  56
ENDBRANCH  38  44
ENDBRANCH  34  35
ENDBRANCH  33  34
ENDBRANCH   1  33
TORSDOF 18
ENDMDL
MODEL 8
REMARK VINA RESULT:      -8.1      9.008     12.637
REMARK  18 active torsions:
REMARK  status: ('A' for Active; 'I' for Inactive)
REMARK    1  A    between atoms: C_3  and  C_46 
REMARK    2  A    between atoms: C_6  and  C_8 
REMARK    3  A    between atoms: C_9  and  O_45 
REMARK    4  A    between atoms: C_10  and  O_44 
REMARK    5  A    between atoms: C_11  and  C_13 
REMARK    6  A    between atoms: C_13  and  O_14 
REMARK    7  A    between atoms: O_14  and  P_15 
REMARK    8  A    between atoms: P_15  and  O_17 
REMARK    9  A    between atoms: P_15  and  O_18 
REMARK   10  A    between atoms: O_18  and  P_19 
REMARK   11  A    between atoms: P_19  and  O_21 
REMARK   12  A    between atoms: P_19  and  O_22 
REMARK   13  A    between atoms: O_22  and  C_23 
REMARK   14  A    between atoms: C_24  and  C_23 
REMARK   15  A    between atoms: C_25  and  O_43 
REMARK   16  A    between atoms: C_26  and  O_42 
REMARK   17  A    between atoms: C_27  and  N_29 
REMARK   18  A    between atoms: C_40  and  N_41 
REMARK       I    between atoms: C_46  and  N_48 
ROOT
HETATM    1  P   UNK N   1      19.949  17.198   1.191  0.00  0.00     0.401 P 
HETATM    2  O   UNK N   1      20.438  17.734  -0.180  0.00  0.00    -0.631 OA
ENDROOT
BRANCH   1   3
HETATM    3  O   UNK N   1      20.889  15.724   0.786  0.00  0.00    -0.195 OA
BRANCH   3   4
HETATM    4  P   UNK N   1      20.436  14.159   1.517  0.00  0.00     0.401 P 
HETATM    5  O   UNK N   1      20.658  12.995   0.520  0.00  0.00    -0.631 OA
BRANCH   4   6
HETATM    6  O   UNK N   1      21.523  13.815   2.836  0.00  0.00    -0.294 OA
BRANCH   6   7
HETATM    7  C   UNK N   1      22.765  13.487   2.278  0.00  0.00     0.215 C 
BRANCH   7   8
HETATM    8  C   UNK N   1      23.893  14.041   3.133  0.00  0.00     0.178 C 
HETATM    9  C   UNK N   1      24.243  13.109   4.261  0.00  0.00     0.180 C 
HETATM   10  C   UNK N   1      24.886  14.096   5.164  0.00  0.00     0.184 C 
HETATM   11  C   UNK N   1      23.907  15.259   5.043  0.00  0.00     0.203 C 
HETATM   12  O   UNK N   1      23.523  15.291   3.687  0.00  0.00    -0.367 OA
BRANCH   9  13
HETATM   13  O   UNK N   1      25.157  12.145   3.835  0.00  0.00    -0.390 OA
HETATM   14  H   UNK N   1      25.390  12.074   2.897  0.00  0.00     0.210 HD
ENDBRANCH   9  13
BRANCH  10  15
HETATM   15  O   UNK N   1      25.064  13.615   6.461  0.00  0.00    -0.390 OA
HETATM   16  H   UNK N   1      25.802  13.024   6.678  0.00  0.00     0.210 HD
ENDBRANCH  10  15
BRANCH  11  17
HETATM   17  C   UNK N   1      22.667  15.204   5.914  0.00  0.00     0.041 A 
HETATM   18  N   UNK N   1      21.444  15.564   5.431  0.00  0.00    -0.353 N 
HETATM   19  C   UNK N   1      20.312  15.475   6.185  0.00  0.00     0.100 A 
ATOM     20  HN  UNK N   1      21.374  15.913   4.475  1.00  0.00     0.166 HD
HETATM   21  C   UNK N   1      20.395  15.017   7.504  0.00  0.00     0.035 A 
HETATM   22  C   UNK N   1      21.635  14.651   8.027  0.00  0.00     0.004 A 
HETATM   23  C   UNK N   1      22.775  14.733   7.227  0.00  0.00     0.028 A 
BRANCH  19  24
HETATM   24  C   UNK N   1      19.008  15.834   5.594  0.00  0.00     0.266 C 
HETATM   25  O   UNK N   1      18.054  16.067   6.319  0.00  0.00    -0.266 OA
HETATM   26  N   UNK N   1      18.865  15.929   4.256  0.00  0.00    -0.365 N 
HETATM   27  H   UNK N   1      18.008  16.097   3.800  0.00  0.00     0.159 HD
HETATM   28  H   UNK N   1      19.670  15.822   3.699  0.00  0.00     0.159 HD
ENDBRANCH  19  24
ENDBRANCH  11  17
ENDBRANCH   7   8
ENDBRANCH   6   7
ENDBRANCH   4   6
BRANCH   4  29
HETATM   29  O   UNK N   1      18.785  14.094   2.066  0.00  0.00    -0.307 OA
HETATM   30  H   UNK N   1      18.289  13.261   2.125  0.00  0.00     0.222 HD
ENDBRANCH   4  29
ENDBRANCH   3   4
ENDBRANCH   1   3
BRANCH   1  31
HETATM   31  O   UNK N   1      21.134  16.729   2.383  0.00  0.00    -0.307 OA
HETATM   32  H   UNK N   1      21.215  17.159   3.249  0.00  0.00     0.222 HD
ENDBRANCH   1  31
BRANCH   1  33
HETATM   33  O   UNK N   1      20.673  18.697   1.853  0.00  0.00    -0.294 OA
BRANCH  33  34
HETATM   34  C   UNK N   1      20.787  18.704   3.268  0.00  0.00     0.215 C 
BRANCH  34  35
HETATM   35  C   UNK N   1      22.032  19.415   3.758  0.00  0.00     0.180 C 
HETATM   36  C   UNK N   1      22.542  20.347   2.699  0.00  0.00     0.182 C 
HETATM   37  C   UNK N   1      23.947  20.470   3.138  0.00  0.00     0.198 C 
HETATM   38  C   UNK N   1      24.220  19.018   3.466  0.00  0.00     0.262 C 
HETATM   39  O   UNK N   1      23.062  18.509   4.088  0.00  0.00    -0.353 OA
BRANCH  36  40
HETATM   40  O   UNK N   1      21.883  21.576   2.751  0.00  0.00    -0.390 OA
HETATM   41  H   UNK N   1      21.707  22.303   3.368  0.00  0.00     0.210 HD
ENDBRANCH  36  40
BRANCH  37  42
HETATM   42  O   UNK N   1      24.739  20.921   2.083  0.00  0.00    -0.388 OA
HETATM   43  H   UNK N   1      24.499  21.620   1.456  0.00  0.00     0.210 HD
ENDBRANCH  37  42
BRANCH  38  44
HETATM   44  N   UNK N   1      25.389  18.865   4.331  0.00  0.00    -0.297 N 
HETATM   45  C   UNK N   1      25.731  19.630   5.403  0.00  0.00     0.188 A 
HETATM   46  N   UNK N   1      26.878  19.182   5.988  0.00  0.00    -0.346 N 
HETATM   47  C   UNK N   1      27.233  18.116   5.246  0.00  0.00     0.122 A 
ATOM     48  HN  UNK N   1      27.357  19.566   6.802  1.00  0.00     0.167 HD
HETATM   49  C   UNK N   1      26.340  17.928   4.258  0.00  0.00     0.142 A 
HETATM   50  C   UNK N   1      28.319  17.265   5.371  0.00  0.00     0.131 A 
HETATM   51  N   UNK N   1      26.448  16.921   3.359  0.00  0.00    -0.336 N 
HETATM   52  C   UNK N   1      27.517  16.075   3.465  0.00  0.00     0.183 A 
ATOM     53  HN  UNK N   1      25.752  16.797   2.623  1.00  0.00     0.168 HD
HETATM   54  N   UNK N   1      28.443  16.248   4.465  0.00  0.00    -0.337 N 
ATOM     55  HN  UNK N   1      29.235  15.608   4.532  1.00  0.00     0.168 HD
BRANCH  50  56
HETATM   56  N   UNK N   1      29.270  17.432   6.396  0.00  0.00    -0.383 N 
HETATM   57  H   UNK N   1      30.214  17.633   6.201  0.00  0.00     0.157 HD
HETATM   58  H   UNK N   1      28.983  17.348   7.333  0.00  0.00     0.157 HD
ENDBRANCH  50  56
ENDBRANCH  38  44
ENDBRANCH  34  35
ENDBRANCH  33  34
ENDBRANCH   1  33
TORSDOF 18
ENDMDL
MODEL 9
REMARK VINA RESULT:      -8.1      4.207     11.071
REMARK  18 active torsions:
REMARK  status: ('A' for Active; 'I' for Inactive)
REMARK    1  A    between atoms: C_3  and  C_46 
REMARK    2  A    between atoms: C_6  and  C_8 
REMARK    3  A    between atoms: C_9  and  O_45 
REMARK    4  A    between atoms: C_10  and  O_44 
REMARK    5  A    between atoms: C_11  and  C_13 
REMARK    6  A    between atoms: C_13  and  O_14 
REMARK    7  A    between atoms: O_14  and  P_15 
REMARK    8  A    between atoms: P_15  and  O_17 
REMARK    9  A    between atoms: P_15  and  O_18 
REMARK   10  A    between atoms: O_18  and  P_19 
REMARK   11  A    between atoms: P_19  and  O_21 
REMARK   12  A    between atoms: P_19  and  O_22 
REMARK   13  A    between atoms: O_22  and  C_23 
REMARK   14  A    between atoms: C_24  and  C_23 
REMARK   15  A    between atoms: C_25  and  O_43 
REMARK   16  A    between atoms: C_26  and  O_42 
REMARK   17  A    between atoms: C_27  and  N_29 
REMARK   18  A    between atoms: C_40  and  N_41 
REMARK       I    between atoms: C_46  and  N_48 
ROOT
HETATM    1  P   UNK N   1      36.944  13.560  10.189  0.00  0.00     0.401 P 
HETATM    2  O   UNK N   1      35.513  12.971  10.298  0.00  0.00    -0.631 OA
ENDROOT
BRANCH   1   3
HETATM    3  O   UNK N   1      36.166  14.899   9.282  0.00  0.00    -0.195 OA
BRANCH   3   4
HETATM    4  P   UNK N   1      34.968  15.940  10.101  0.00  0.00     0.401 P 
HETATM    5  O   UNK N   1      35.605  17.285  10.532  0.00  0.00    -0.631 OA
BRANCH   4   6
HETATM    6  O   UNK N   1      33.734  16.392   8.955  0.00  0.00    -0.294 OA
BRANCH   6   7
HETATM    7  C   UNK N   1      34.055  17.669   8.478  0.00  0.00     0.215 C 
BRANCH   7   8
HETATM    8  C   UNK N   1      33.343  17.937   7.161  0.00  0.00     0.178 C 
HETATM    9  C   UNK N   1      32.049  17.175   7.066  0.00  0.00     0.180 C 
HETATM   10  C   UNK N   1      31.909  17.174   5.588  0.00  0.00     0.184 C 
HETATM   11  C   UNK N   1      33.340  16.847   5.175  0.00  0.00     0.203 C 
HETATM   12  O   UNK N   1      34.164  17.559   6.072  0.00  0.00    -0.367 OA
BRANCH   9  13
HETATM   13  O   UNK N   1      31.013  17.887   7.670  0.00  0.00    -0.390 OA
HETATM   14  H   UNK N   1      30.328  18.307   7.127  0.00  0.00     0.210 HD
ENDBRANCH   9  13
BRANCH  10  15
HETATM   15  O   UNK N   1      30.949  16.271   5.131  0.00  0.00    -0.390 OA
HETATM   16  H   UNK N   1      30.807  15.422   5.579  0.00  0.00     0.210 HD
ENDBRANCH  10  15
BRANCH  11  17
HETATM   17  C   UNK N   1      33.739  15.384   5.182  0.00  0.00     0.041 A 
HETATM   18  N   UNK N   1      33.543  14.601   6.281  0.00  0.00    -0.353 N 
HETATM   19  C   UNK N   1      33.851  13.274   6.288  0.00  0.00     0.100 A 
ATOM     20  HN  UNK N   1      33.154  15.022   7.124  1.00  0.00     0.166 HD
HETATM   21  C   UNK N   1      34.402  12.686   5.144  0.00  0.00     0.035 A 
HETATM   22  C   UNK N   1      34.623  13.467   4.010  0.00  0.00     0.004 A 
HETATM   23  C   UNK N   1      34.280  14.819   4.022  0.00  0.00     0.028 A 
BRANCH  19  24
HETATM   24  C   UNK N   1      33.573  12.464   7.491  0.00  0.00     0.266 C 
HETATM   25  O   UNK N   1      33.862  11.278   7.507  0.00  0.00    -0.266 OA
HETATM   26  N   UNK N   1      33.018  13.027   8.584  0.00  0.00    -0.365 N 
HETATM   27  H   UNK N   1      32.747  12.529   9.388  0.00  0.00     0.159 HD
HETATM   28  H   UNK N   1      32.875  14.002   8.575  0.00  0.00     0.159 HD
ENDBRANCH  19  24
ENDBRANCH  11  17
ENDBRANCH   7   8
ENDBRANCH   6   7
ENDBRANCH   4   6
BRANCH   4  29
HETATM   29  O   UNK N   1      34.246  15.208  11.505  0.00  0.00    -0.307 OA
HETATM   30  H   UNK N   1      34.767  14.721  12.163  0.00  0.00     0.222 HD
ENDBRANCH   4  29
ENDBRANCH   3   4
ENDBRANCH   1   3
BRANCH   1  31
HETATM   31  O   UNK N   1      37.249  15.156  10.826  0.00  0.00    -0.307 OA
HETATM   32  H   UNK N   1      37.739  15.315  11.648  0.00  0.00     0.222 HD
ENDBRANCH   1  31
BRANCH   1  33
HETATM   33  O   UNK N   1      36.956  13.436  11.976  0.00  0.00    -0.294 OA
BRANCH  33  34
HETATM   34  C   UNK N   1      37.319  12.153  12.461  0.00  0.00     0.215 C 
BRANCH  34  35
HETATM   35  C   UNK N   1      36.344  11.608  13.484  0.00  0.00     0.180 C 
HETATM   36  C   UNK N   1      35.270  12.619  13.760  0.00  0.00     0.182 C 
HETATM   37  C   UNK N   1      34.822  12.144  15.085  0.00  0.00     0.198 C 
HETATM   38  C   UNK N   1      36.174  11.866  15.706  0.00  0.00     0.262 C 
HETATM   39  O   UNK N   1      36.980  11.289  14.703  0.00  0.00    -0.353 OA
BRANCH  36  40
HETATM   40  O   UNK N   1      34.246  12.537  12.815  0.00  0.00    -0.390 OA
HETATM   41  H   UNK N   1      33.291  12.681  12.737  0.00  0.00     0.210 HD
ENDBRANCH  36  40
BRANCH  37  42
HETATM   42  O   UNK N   1      34.145  13.164  15.753  0.00  0.00    -0.388 OA
HETATM   43  H   UNK N   1      33.302  13.069  16.222  0.00  0.00     0.210 HD
ENDBRANCH  37  42
BRANCH  38  44
HETATM   44  N   UNK N   1      36.069  10.981  16.866  0.00  0.00    -0.297 N 
HETATM   45  C   UNK N   1      36.363   9.653  16.922  0.00  0.00     0.188 A 
HETATM   46  N   UNK N   1      36.167   9.154  18.175  0.00  0.00    -0.346 N 
HETATM   47  C   UNK N   1      35.744  10.214  18.892  0.00  0.00     0.122 A 
ATOM     48  HN  UNK N   1      36.308   8.196  18.497  1.00  0.00     0.167 HD
HETATM   49  C   UNK N   1      35.690  11.304  18.106  0.00  0.00     0.142 A 
HETATM   50  C   UNK N   1      35.391  10.302  20.228  0.00  0.00     0.131 A 
HETATM   51  N   UNK N   1      35.300  12.516  18.567  0.00  0.00    -0.336 N 
HETATM   52  C   UNK N   1      34.942  12.620  19.882  0.00  0.00     0.183 A 
ATOM     53  HN  UNK N   1      35.274  13.329  17.950  1.00  0.00     0.168 HD
HETATM   54  N   UNK N   1      34.989  11.520  20.704  0.00  0.00    -0.337 N 
ATOM     55  HN  UNK N   1      34.719  11.612  21.684  1.00  0.00     0.168 HD
BRANCH  50  56
HETATM   56  N   UNK N   1      35.440   9.180  21.077  0.00  0.00    -0.383 N 
HETATM   57  H   UNK N   1      34.644   8.859  21.560  0.00  0.00     0.157 HD
HETATM   58  H   UNK N   1      36.294   8.703  21.191  0.00  0.00     0.157 HD
ENDBRANCH  50  56
ENDBRANCH  38  44
ENDBRANCH  34  35
ENDBRANCH  33  34
ENDBRANCH   1  33
TORSDOF 18
ENDMDL
