MODEL 1
REMARK VINA RESULT:      -5.6      0.000      0.000
REMARK  8 active torsions:
REMARK  status: ('A' for Active; 'I' for Inactive)
REMARK    1  A    between atoms: C_2  and  N_1 
REMARK    2  A    between atoms: C_2  and  C_3 
REMARK    3  A    between atoms: C_2  and  C_14 
REMARK    4  A    between atoms: C_3  and  C_4 
REMARK    5  A    between atoms: C_4  and  C_5 
REMARK    6  A    between atoms: C_5  and  N_6 
REMARK       I    between atoms: N_6  and  C_7 
REMARK       I    between atoms: C_7  and  N_10 
REMARK    7  A    between atoms: N_10  and  N_11 
REMARK    8  A    between atoms: C_14  and  O_15 
ROOT
HETATM    1  C   UNK N   1      34.575  14.281  11.337  0.00  0.00     0.138 C 
ENDROOT
BRANCH   1   2
HETATM    2  C   UNK N   1      35.526  14.471  12.515  0.00  0.00     0.023 C 
BRANCH   2   3
HETATM    3  C   UNK N   1      35.727  13.163  13.262  0.00  0.00     0.037 C 
BRANCH   3   4
HETATM    4  C   UNK N   1      36.345  13.366  14.639  0.00  0.00     0.173 C 
BRANCH   4   5
HETATM    5  N   UNK N   1      36.991  14.667  14.669  0.00  0.00    -0.418 N 
HETATM    6  H   UNK N   1      36.429  15.514  14.750  0.00  0.00     0.150 HD
HETATM    7  H   UNK N   1      38.007  14.733  14.608  0.00  0.00     0.150 HD
ENDBRANCH   4   5
BRANCH   4   8
HETATM    8  C   UNK N   1      35.295  13.280  15.718  0.00  0.00     0.163 C 
HETATM    9  O   UNK N   1      34.173  12.885  15.447  0.00  0.00    -0.648 OA
BRANCH   8  10
HETATM   10  O   UNK N   1      35.590  13.624  16.988  0.00  0.00    -0.775 OA
HETATM   11  H   UNK N   1      35.713  14.523  17.225  0.00  0.00     0.167 HD
ENDBRANCH   8  10
ENDBRANCH   4   8
ENDBRANCH   3   4
ENDBRANCH   2   3
ENDBRANCH   1   2
BRANCH   1  12
HETATM   12  N   UNK N   1      34.083  15.547  10.828  0.00  0.00    -0.225 N 
HETATM   13  C   UNK N   1      34.625  16.199   9.685  0.00  0.00     0.691 C 
HETATM   14  N   UNK N   1      35.480  15.594   8.941  0.00  0.00    -0.233 N 
HETATM   15  N   UNK N   1      34.243  17.546   9.407  0.00  0.00    -0.072 N 
HETATM   16  H   UNK N   1      35.950  16.076   8.222  0.00  0.00     0.174 HD
ATOM     17  HN  UNK N   1      35.674  14.606   9.097  1.00  0.00     0.174 HD
HETATM   18  H   UNK N   1      33.608  17.982  10.020  0.00  0.00     0.212 HD
HETATM   19  H   UNK N   1      33.334  15.978  11.298  0.00  0.00     0.177 HD
BRANCH  15  20
HETATM   20  N   UNK N   1      34.709  18.277   8.331  0.00  0.00    -0.024 N 
HETATM   21  O   UNK N   1      35.388  19.382   8.545  0.00  0.00    -0.516 OA
HETATM   22  O   UNK N   1      34.494  17.929   7.209  0.00  0.00    -0.516 OA
ENDBRANCH  15  20
ENDBRANCH   1  12
TORSDOF 8
ENDMDL
MODEL 2
REMARK VINA RESULT:      -5.2      6.235      9.088
REMARK  8 active torsions:
REMARK  status: ('A' for Active; 'I' for Inactive)
REMARK    1  A    between atoms: C_2  and  N_1 
REMARK    2  A    between atoms: C_2  and  C_3 
REMARK    3  A    between atoms: C_2  and  C_14 
REMARK    4  A    between atoms: C_3  and  C_4 
REMARK    5  A    between atoms: C_4  and  C_5 
REMARK    6  A    between atoms: C_5  and  N_6 
REMARK       I    between atoms: N_6  and  C_7 
REMARK       I    between atoms: C_7  and  N_10 
REMARK    7  A    between atoms: N_10  and  N_11 
REMARK    8  A    between atoms: C_14  and  O_15 
ROOT
HETATM    1  C   UNK N   1      29.642  17.190   8.765  0.00  0.00     0.138 C 
ENDROOT
BRANCH   1   2
HETATM    2  C   UNK N   1      28.515  18.188   9.011  0.00  0.00     0.023 C 
BRANCH   2   3
HETATM    3  C   UNK N   1      28.226  18.997   7.758  0.00  0.00     0.037 C 
BRANCH   3   4
HETATM    4  C   UNK N   1      28.119  18.128   6.512  0.00  0.00     0.173 C 
BRANCH   4   5
HETATM    5  N   UNK N   1      26.814  17.488   6.506  0.00  0.00    -0.418 N 
HETATM    6  H   UNK N   1      26.064  17.863   5.925  0.00  0.00     0.150 HD
HETATM    7  H   UNK N   1      26.647  16.664   7.085  0.00  0.00     0.150 HD
ENDBRANCH   4   5
BRANCH   4   8
HETATM    8  C   UNK N   1      28.301  18.952   5.263  0.00  0.00     0.163 C 
HETATM    9  O   UNK N   1      27.856  20.086   5.211  0.00  0.00    -0.648 OA
BRANCH   8  10
HETATM   10  O   UNK N   1      28.968  18.449   4.203  0.00  0.00    -0.775 OA
HETATM   11  H   UNK N   1      29.890  18.287   4.250  0.00  0.00     0.167 HD
ENDBRANCH   8  10
ENDBRANCH   4   8
ENDBRANCH   3   4
ENDBRANCH   2   3
ENDBRANCH   1   2
BRANCH   1  12
HETATM   12  N   UNK N   1      30.927  17.707   9.194  0.00  0.00    -0.225 N 
HETATM   13  C   UNK N   1      32.034  17.888   8.317  0.00  0.00     0.691 C 
HETATM   14  N   UNK N   1      31.882  17.757   7.049  0.00  0.00    -0.233 N 
HETATM   15  N   UNK N   1      33.319  18.168   8.872  0.00  0.00    -0.072 N 
HETATM   16  H   UNK N   1      32.661  17.760   6.447  0.00  0.00     0.174 HD
ATOM     17  HN  UNK N   1      30.945  17.648   6.662  1.00  0.00     0.174 HD
HETATM   18  H   UNK N   1      33.397  18.230   9.851  0.00  0.00     0.212 HD
HETATM   19  H   UNK N   1      31.039  17.947  10.141  0.00  0.00     0.177 HD
BRANCH  15  20
HETATM   20  N   UNK N   1      34.462  18.356   8.119  0.00  0.00    -0.024 N 
HETATM   21  O   UNK N   1      35.350  19.247   8.500  0.00  0.00    -0.516 OA
HETATM   22  O   UNK N   1      34.651  17.732   7.117  0.00  0.00    -0.516 OA
ENDBRANCH  15  20
ENDBRANCH   1  12
TORSDOF 8
ENDMDL
MODEL 3
REMARK VINA RESULT:      -5.1      5.191      7.886
REMARK  8 active torsions:
REMARK  status: ('A' for Active; 'I' for Inactive)
REMARK    1  A    between atoms: C_2  and  N_1 
REMARK    2  A    between atoms: C_2  and  C_3 
REMARK    3  A    between atoms: C_2  and  C_14 
REMARK    4  A    between atoms: C_3  and  C_4 
REMARK    5  A    between atoms: C_4  and  C_5 
REMARK    6  A    between atoms: C_5  and  N_6 
REMARK       I    between atoms: N_6  and  C_7 
REMARK       I    between atoms: C_7  and  N_10 
REMARK    7  A    between atoms: N_10  and  N_11 
REMARK    8  A    between atoms: C_14  and  O_15 
ROOT
HETATM    1  C   UNK N   1      31.119  17.345   6.822  0.00  0.00     0.138 C 
ENDROOT
BRANCH   1   2
HETATM    2  C   UNK N   1      29.770  16.669   7.047  0.00  0.00     0.023 C 
BRANCH   2   3
HETATM    3  C   UNK N   1      28.630  17.603   6.677  0.00  0.00     0.037 C 
BRANCH   3   4
HETATM    4  C   UNK N   1      28.552  18.821   7.588  0.00  0.00     0.173 C 
BRANCH   4   5
HETATM    5  N   UNK N   1      27.373  19.591   7.229  0.00  0.00    -0.418 N 
HETATM    6  H   UNK N   1      27.391  20.202   6.412  0.00  0.00     0.150 HD
HETATM    7  H   UNK N   1      26.526  19.520   7.794  0.00  0.00     0.150 HD
ENDBRANCH   4   5
BRANCH   4   8
HETATM    8  C   UNK N   1      28.484  18.407   9.035  0.00  0.00     0.163 C 
HETATM    9  O   UNK N   1      29.399  18.684   9.793  0.00  0.00    -0.648 OA
BRANCH   8  10
HETATM   10  O   UNK N   1      27.409  17.743   9.507  0.00  0.00    -0.775 OA
HETATM   11  H   UNK N   1      26.827  17.297   8.923  0.00  0.00     0.167 HD
ENDBRANCH   8  10
ENDBRANCH   4   8
ENDBRANCH   3   4
ENDBRANCH   2   3
ENDBRANCH   1   2
BRANCH   1  12
HETATM   12  N   UNK N   1      31.846  17.528   8.063  0.00  0.00    -0.225 N 
HETATM   13  C   UNK N   1      33.204  17.141   8.243  0.00  0.00     0.691 C 
HETATM   14  N   UNK N   1      33.906  16.760   7.237  0.00  0.00    -0.233 N 
HETATM   15  N   UNK N   1      33.756  17.136   9.560  0.00  0.00    -0.072 N 
HETATM   16  H   UNK N   1      34.804  16.377   7.368  0.00  0.00     0.174 HD
ATOM     17  HN  UNK N   1      33.530  16.855   6.295  1.00  0.00     0.174 HD
HETATM   18  H   UNK N   1      33.174  17.406  10.306  0.00  0.00     0.212 HD
HETATM   19  H   UNK N   1      31.376  17.943   8.821  0.00  0.00     0.177 HD
BRANCH  15  20
HETATM   20  N   UNK N   1      35.057  16.774   9.852  0.00  0.00    -0.024 N 
HETATM   21  O   UNK N   1      35.877  17.664  10.365  0.00  0.00    -0.516 OA
HETATM   22  O   UNK N   1      35.454  15.669   9.633  0.00  0.00    -0.516 OA
ENDBRANCH  15  20
ENDBRANCH   1  12
TORSDOF 8
ENDMDL
MODEL 4
REMARK VINA RESULT:      -5.1      5.717      8.260
REMARK  8 active torsions:
REMARK  status: ('A' for Active; 'I' for Inactive)
REMARK    1  A    between atoms: C_2  and  N_1 
REMARK    2  A    between atoms: C_2  and  C_3 
REMARK    3  A    between atoms: C_2  and  C_14 
REMARK    4  A    between atoms: C_3  and  C_4 
REMARK    5  A    between atoms: C_4  and  C_5 
REMARK    6  A    between atoms: C_5  and  N_6 
REMARK       I    between atoms: N_6  and  C_7 
REMARK       I    between atoms: C_7  and  N_10 
REMARK    7  A    between atoms: N_10  and  N_11 
REMARK    8  A    between atoms: C_14  and  O_15 
ROOT
HETATM    1  C   UNK N   1      29.937  17.273   8.155  0.00  0.00     0.138 C 
ENDROOT
BRANCH   1   2
HETATM    2  C   UNK N   1      31.273  17.839   8.627  0.00  0.00     0.023 C 
BRANCH   2   3
HETATM    3  C   UNK N   1      32.404  16.867   8.334  0.00  0.00     0.037 C 
BRANCH   3   4
HETATM    4  C   UNK N   1      33.732  17.321   8.925  0.00  0.00     0.173 C 
BRANCH   4   5
HETATM    5  N   UNK N   1      34.539  16.145   9.205  0.00  0.00    -0.418 N 
HETATM    6  H   UNK N   1      34.499  15.339   8.581  0.00  0.00     0.150 HD
HETATM    7  H   UNK N   1      35.144  16.125  10.026  0.00  0.00     0.150 HD
ENDBRANCH   4   5
BRANCH   4   8
HETATM    8  C   UNK N   1      34.459  18.238   7.976  0.00  0.00     0.163 C 
HETATM    9  O   UNK N   1      35.095  19.185   8.409  0.00  0.00    -0.648 OA
BRANCH   8  10
HETATM   10  O   UNK N   1      34.425  18.013   6.646  0.00  0.00    -0.775 OA
HETATM   11  H   UNK N   1      34.601  18.705   6.038  0.00  0.00     0.167 HD
ENDBRANCH   8  10
ENDBRANCH   4   8
ENDBRANCH   3   4
ENDBRANCH   2   3
ENDBRANCH   1   2
BRANCH   1  12
HETATM   12  N   UNK N   1      29.370  18.052   7.072  0.00  0.00    -0.225 N 
HETATM   13  C   UNK N   1      28.195  18.846   7.205  0.00  0.00     0.691 C 
HETATM   14  N   UNK N   1      27.675  19.040   8.363  0.00  0.00    -0.233 N 
HETATM   15  N   UNK N   1      27.581  19.377   6.031  0.00  0.00    -0.072 N 
HETATM   16  H   UNK N   1      26.800  19.483   8.452  0.00  0.00     0.174 HD
ATOM     17  HN  UNK N   1      28.173  18.733   9.197  1.00  0.00     0.174 HD
HETATM   18  H   UNK N   1      27.996  19.178   5.161  0.00  0.00     0.212 HD
HETATM   19  H   UNK N   1      29.822  18.033   6.198  0.00  0.00     0.177 HD
BRANCH  15  20
HETATM   20  N   UNK N   1      26.438  20.154   6.041  0.00  0.00    -0.024 N 
HETATM   21  O   UNK N   1      25.507  19.947   5.137  0.00  0.00    -0.516 OA
HETATM   22  O   UNK N   1      26.288  21.021   6.849  0.00  0.00    -0.516 OA
ENDBRANCH  15  20
ENDBRANCH   1  12
TORSDOF 8
ENDMDL
MODEL 5
REMARK VINA RESULT:      -5.1      2.259      3.419
REMARK  8 active torsions:
REMARK  status: ('A' for Active; 'I' for Inactive)
REMARK    1  A    between atoms: C_2  and  N_1 
REMARK    2  A    between atoms: C_2  and  C_3 
REMARK    3  A    between atoms: C_2  and  C_14 
REMARK    4  A    between atoms: C_3  and  C_4 
REMARK    5  A    between atoms: C_4  and  C_5 
REMARK    6  A    between atoms: C_5  and  N_6 
REMARK       I    between atoms: N_6  and  C_7 
REMARK       I    between atoms: C_7  and  N_10 
REMARK    7  A    between atoms: N_10  and  N_11 
REMARK    8  A    between atoms: C_14  and  O_15 
ROOT
HETATM    1  C   UNK N   1      36.509  12.665  13.803  0.00  0.00     0.138 C 
ENDROOT
BRANCH   1   2
HETATM    2  C   UNK N   1      36.730  12.743  15.311  0.00  0.00     0.023 C 
BRANCH   2   3
HETATM    3  C   UNK N   1      35.666  13.605  15.968  0.00  0.00     0.037 C 
BRANCH   3   4
HETATM    4  C   UNK N   1      35.010  12.919  17.160  0.00  0.00     0.173 C 
BRANCH   4   5
HETATM    5  N   UNK N   1      35.536  11.568  17.261  0.00  0.00    -0.418 N 
HETATM    6  H   UNK N   1      35.502  11.072  18.152  0.00  0.00     0.150 HD
HETATM    7  H   UNK N   1      35.941  11.116  16.441  0.00  0.00     0.150 HD
ENDBRANCH   4   5
BRANCH   4   8
HETATM    8  C   UNK N   1      35.277  13.680  18.433  0.00  0.00     0.163 C 
HETATM    9  O   UNK N   1      35.291  13.093  19.503  0.00  0.00    -0.648 OA
BRANCH   8  10
HETATM   10  O   UNK N   1      35.516  15.007  18.400  0.00  0.00    -0.775 OA
HETATM   11  H   UNK N   1      36.345  15.337  18.112  0.00  0.00     0.167 HD
ENDBRANCH   8  10
ENDBRANCH   4   8
ENDBRANCH   3   4
ENDBRANCH   2   3
ENDBRANCH   1   2
BRANCH   1  12
HETATM   12  N   UNK N   1      36.793  13.926  13.148  0.00  0.00    -0.225 N 
HETATM   13  C   UNK N   1      35.947  14.508  12.162  0.00  0.00     0.691 C 
HETATM   14  N   UNK N   1      34.786  14.010  11.932  0.00  0.00    -0.233 N 
HETATM   15  N   UNK N   1      36.426  15.618  11.403  0.00  0.00    -0.072 N 
HETATM   16  H   UNK N   1      34.244  14.327  11.173  0.00  0.00     0.174 HD
ATOM     17  HN  UNK N   1      34.421  13.278  12.541  1.00  0.00     0.174 HD
HETATM   18  H   UNK N   1      37.334  15.949  11.591  0.00  0.00     0.212 HD
HETATM   19  H   UNK N   1      37.614  14.407  13.399  0.00  0.00     0.177 HD
BRANCH  15  20
HETATM   20  N   UNK N   1      35.695  16.257  10.420  0.00  0.00    -0.024 N 
HETATM   21  O   UNK N   1      35.138  15.548   9.464  0.00  0.00    -0.516 OA
HETATM   22  O   UNK N   1      35.572  17.445  10.416  0.00  0.00    -0.516 OA
ENDBRANCH  15  20
ENDBRANCH   1  12
TORSDOF 8
ENDMDL
MODEL 6
REMARK VINA RESULT:      -5.0      5.162      6.807
REMARK  8 active torsions:
REMARK  status: ('A' for Active; 'I' for Inactive)
REMARK    1  A    between atoms: C_2  and  N_1 
REMARK    2  A    between atoms: C_2  and  C_3 
REMARK    3  A    between atoms: C_2  and  C_14 
REMARK    4  A    between atoms: C_3  and  C_4 
REMARK    5  A    between atoms: C_4  and  C_5 
REMARK    6  A    between atoms: C_5  and  N_6 
REMARK       I    between atoms: N_6  and  C_7 
REMARK       I    between atoms: C_7  and  N_10 
REMARK    7  A    between atoms: N_10  and  N_11 
REMARK    8  A    between atoms: C_14  and  O_15 
ROOT
HETATM    1  C   UNK N   1      31.908  15.518   8.143  0.00  0.00     0.138 C 
ENDROOT
BRANCH   1   2
HETATM    2  C   UNK N   1      33.174  14.928   8.756  0.00  0.00     0.023 C 
BRANCH   2   3
HETATM    3  C   UNK N   1      34.371  15.826   8.492  0.00  0.00     0.037 C 
BRANCH   3   4
HETATM    4  C   UNK N   1      34.206  17.214   9.099  0.00  0.00     0.173 C 
BRANCH   4   5
HETATM    5  N   UNK N   1      34.960  17.266  10.340  0.00  0.00    -0.418 N 
HETATM    6  H   UNK N   1      35.280  16.403  10.780  0.00  0.00     0.150 HD
HETATM    7  H   UNK N   1      35.168  18.167  10.773  0.00  0.00     0.150 HD
ENDBRANCH   4   5
BRANCH   4   8
HETATM    8  C   UNK N   1      34.692  18.278   8.149  0.00  0.00     0.163 C 
HETATM    9  O   UNK N   1      35.276  19.259   8.579  0.00  0.00    -0.648 OA
BRANCH   8  10
HETATM   10  O   UNK N   1      34.498  18.149   6.820  0.00  0.00    -0.775 OA
HETATM   11  H   UNK N   1      33.646  18.264   6.447  0.00  0.00     0.167 HD
ENDBRANCH   8  10
ENDBRANCH   4   8
ENDBRANCH   3   4
ENDBRANCH   2   3
ENDBRANCH   1   2
BRANCH   1  12
HETATM   12  N   UNK N   1      31.743  15.126   6.757  0.00  0.00    -0.225 N 
HETATM   13  C   UNK N   1      31.684  16.054   5.679  0.00  0.00     0.691 C 
HETATM   14  N   UNK N   1      31.951  17.294   5.879  0.00  0.00    -0.233 N 
HETATM   15  N   UNK N   1      31.279  15.595   4.389  0.00  0.00    -0.072 N 
HETATM   16  H   UNK N   1      31.797  17.962   5.172  0.00  0.00     0.174 HD
ATOM     17  HN  UNK N   1      32.326  17.591   6.780  1.00  0.00     0.174 HD
HETATM   18  H   UNK N   1      31.054  14.643   4.287  0.00  0.00     0.212 HD
HETATM   19  H   UNK N   1      31.669  14.167   6.550  0.00  0.00     0.177 HD
BRANCH  15  20
HETATM   20  N   UNK N   1      31.181  16.406   3.275  0.00  0.00    -0.024 N 
HETATM   21  O   UNK N   1      30.047  16.464   2.613  0.00  0.00    -0.516 OA
HETATM   22  O   UNK N   1      32.115  17.047   2.894  0.00  0.00    -0.516 OA
ENDBRANCH  15  20
ENDBRANCH   1  12
TORSDOF 8
ENDMDL
MODEL 7
REMARK VINA RESULT:      -4.9      2.590      6.384
REMARK  8 active torsions:
REMARK  status: ('A' for Active; 'I' for Inactive)
REMARK    1  A    between atoms: C_2  and  N_1 
REMARK    2  A    between atoms: C_2  and  C_3 
REMARK    3  A    between atoms: C_2  and  C_14 
REMARK    4  A    between atoms: C_3  and  C_4 
REMARK    5  A    between atoms: C_4  and  C_5 
REMARK    6  A    between atoms: C_5  and  N_6 
REMARK       I    between atoms: N_6  and  C_7 
REMARK       I    between atoms: C_7  and  N_10 
REMARK    7  A    between atoms: N_10  and  N_11 
REMARK    8  A    between atoms: C_14  and  O_15 
ROOT
HETATM    1  C   UNK N   1      36.082  12.569  12.550  0.00  0.00     0.138 C 
ENDROOT
BRANCH   1   2
HETATM    2  C   UNK N   1      34.862  13.132  11.827  0.00  0.00     0.023 C 
BRANCH   2   3
HETATM    3  C   UNK N   1      35.236  13.618  10.437  0.00  0.00     0.037 C 
BRANCH   3   4
HETATM    4  C   UNK N   1      34.681  15.004  10.133  0.00  0.00     0.173 C 
BRANCH   4   5
HETATM    5  N   UNK N   1      33.329  15.085  10.661  0.00  0.00    -0.418 N 
HETATM    6  H   UNK N   1      32.534  14.850  10.067  0.00  0.00     0.150 HD
HETATM    7  H   UNK N   1      33.176  15.378  11.626  0.00  0.00     0.150 HD
ENDBRANCH   4   5
BRANCH   4   8
HETATM    8  C   UNK N   1      35.545  16.076  10.743  0.00  0.00     0.163 C 
HETATM    9  O   UNK N   1      36.760  15.993  10.675  0.00  0.00    -0.648 OA
BRANCH   8  10
HETATM   10  O   UNK N   1      34.985  17.140  11.356  0.00  0.00    -0.775 OA
HETATM   11  H   UNK N   1      34.617  17.842  10.856  0.00  0.00     0.167 HD
ENDBRANCH   8  10
ENDBRANCH   4   8
ENDBRANCH   3   4
ENDBRANCH   2   3
ENDBRANCH   1   2
BRANCH   1  12
HETATM   12  N   UNK N   1      36.034  12.828  13.976  0.00  0.00    -0.225 N 
HETATM   13  C   UNK N   1      36.468  14.048  14.569  0.00  0.00     0.691 C 
HETATM   14  N   UNK N   1      36.767  15.054  13.829  0.00  0.00    -0.233 N 
HETATM   15  N   UNK N   1      36.610  14.118  15.987  0.00  0.00    -0.072 N 
HETATM   16  H   UNK N   1      37.182  15.858  14.219  0.00  0.00     0.174 HD
ATOM     17  HN  UNK N   1      36.575  15.020  12.829  1.00  0.00     0.174 HD
HETATM   18  H   UNK N   1      36.398  13.314  16.513  0.00  0.00     0.212 HD
HETATM   19  H   UNK N   1      35.682  12.123  14.566  0.00  0.00     0.177 HD
BRANCH  15  20
HETATM   20  N   UNK N   1      37.027  15.245  16.668  0.00  0.00    -0.024 N 
HETATM   21  O   UNK N   1      36.472  15.550  17.819  0.00  0.00    -0.516 OA
HETATM   22  O   UNK N   1      37.877  15.957  16.220  0.00  0.00    -0.516 OA
ENDBRANCH  15  20
ENDBRANCH   1  12
TORSDOF 8
ENDMDL
MODEL 8
REMARK VINA RESULT:      -4.8     17.525     20.321
REMARK  8 active torsions:
REMARK  status: ('A' for Active; 'I' for Inactive)
REMARK    1  A    between atoms: C_2  and  N_1 
REMARK    2  A    between atoms: C_2  and  C_3 
REMARK    3  A    between atoms: C_2  and  C_14 
REMARK    4  A    between atoms: C_3  and  C_4 
REMARK    5  A    between atoms: C_4  and  C_5 
REMARK    6  A    between atoms: C_5  and  N_6 
REMARK       I    between atoms: N_6  and  C_7 
REMARK       I    between atoms: C_7  and  N_10 
REMARK    7  A    between atoms: N_10  and  N_11 
REMARK    8  A    between atoms: C_14  and  O_15 
ROOT
HETATM    1  C   UNK N   1      27.975  25.152  -5.400  0.00  0.00     0.138 C 
ENDROOT
BRANCH   1   2
HETATM    2  C   UNK N   1      29.137  24.876  -4.451  0.00  0.00     0.023 C 
BRANCH   2   3
HETATM    3  C   UNK N   1      28.875  23.627  -3.626  0.00  0.00     0.037 C 
BRANCH   3   4
HETATM    4  C   UNK N   1      30.017  22.622  -3.708  0.00  0.00     0.173 C 
BRANCH   4   5
HETATM    5  N   UNK N   1      30.897  23.011  -4.797  0.00  0.00    -0.418 N 
HETATM    6  H   UNK N   1      31.461  22.307  -5.274  0.00  0.00     0.150 HD
HETATM    7  H   UNK N   1      30.952  23.988  -5.084  0.00  0.00     0.150 HD
ENDBRANCH   4   5
BRANCH   4   8
HETATM    8  C   UNK N   1      30.783  22.570  -2.411  0.00  0.00     0.163 C 
HETATM    9  O   UNK N   1      30.323  23.094  -1.410  0.00  0.00    -0.648 OA
BRANCH   8  10
HETATM   10  O   UNK N   1      31.971  21.935  -2.343  0.00  0.00    -0.775 OA
HETATM   11  H   UNK N   1      32.070  21.158  -1.828  0.00  0.00     0.167 HD
ENDBRANCH   8  10
ENDBRANCH   4   8
ENDBRANCH   3   4
ENDBRANCH   2   3
ENDBRANCH   1   2
BRANCH   1  12
HETATM   12  N   UNK N   1      27.608  23.975  -6.164  0.00  0.00    -0.225 N 
HETATM   13  C   UNK N   1      26.261  23.593  -6.422  0.00  0.00     0.691 C 
HETATM   14  N   UNK N   1      25.297  24.387  -6.125  0.00  0.00    -0.233 N 
HETATM   15  N   UNK N   1      25.999  22.300  -6.968  0.00  0.00    -0.072 N 
HETATM   16  H   UNK N   1      24.361  24.086  -6.187  0.00  0.00     0.174 HD
ATOM     17  HN  UNK N   1      25.501  25.339  -5.823  1.00  0.00     0.174 HD
HETATM   18  H   UNK N   1      26.766  21.712  -7.152  0.00  0.00     0.212 HD
HETATM   19  H   UNK N   1      28.329  23.411  -6.524  0.00  0.00     0.177 HD
BRANCH  15  20
HETATM   20  N   UNK N   1      24.734  21.823  -7.252  0.00  0.00    -0.024 N 
HETATM   21  O   UNK N   1      24.048  22.354  -8.240  0.00  0.00    -0.516 OA
HETATM   22  O   UNK N   1      24.246  20.944  -6.605  0.00  0.00    -0.516 OA
ENDBRANCH  15  20
ENDBRANCH   1  12
TORSDOF 8
ENDMDL
MODEL 9
REMARK VINA RESULT:      -4.8      6.731      7.826
REMARK  8 active torsions:
REMARK  status: ('A' for Active; 'I' for Inactive)
REMARK    1  A    between atoms: C_2  and  N_1 
REMARK    2  A    between atoms: C_2  and  C_3 
REMARK    3  A    between atoms: C_2  and  C_14 
REMARK    4  A    between atoms: C_3  and  C_4 
REMARK    5  A    between atoms: C_4  and  C_5 
REMARK    6  A    between atoms: C_5  and  N_6 
REMARK       I    between atoms: N_6  and  C_7 
REMARK       I    between atoms: C_7  and  N_10 
REMARK    7  A    between atoms: N_10  and  N_11 
REMARK    8  A    between atoms: C_14  and  O_15 
ROOT
HETATM    1  C   UNK N   1      29.313  16.134   5.977  0.00  0.00     0.138 C 
ENDROOT
BRANCH   1   2
HETATM    2  C   UNK N   1      28.335  16.844   6.908  0.00  0.00     0.023 C 
BRANCH   2   3
HETATM    3  C   UNK N   1      28.681  18.318   7.031  0.00  0.00     0.037 C 
BRANCH   3   4
HETATM    4  C   UNK N   1      28.721  18.791   8.479  0.00  0.00     0.173 C 
BRANCH   4   5
HETATM    5  N   UNK N   1      27.476  18.410   9.124  0.00  0.00    -0.418 N 
HETATM    6  H   UNK N   1      26.874  19.123   9.534  0.00  0.00     0.150 HD
HETATM    7  H   UNK N   1      27.205  17.427   9.167  0.00  0.00     0.150 HD
ENDBRANCH   4   5
BRANCH   4   8
HETATM    8  C   UNK N   1      29.893  18.189   9.210  0.00  0.00     0.163 C 
HETATM    9  O   UNK N   1      31.025  18.339   8.778  0.00  0.00    -0.648 OA
BRANCH   8  10
HETATM   10  O   UNK N   1      29.705  17.494  10.350  0.00  0.00    -0.775 OA
HETATM   11  H   UNK N   1      28.883  17.526  10.801  0.00  0.00     0.167 HD
ENDBRANCH   8  10
ENDBRANCH   4   8
ENDBRANCH   3   4
ENDBRANCH   2   3
ENDBRANCH   1   2
BRANCH   1  12
HETATM   12  N   UNK N   1      30.607  15.936   6.599  0.00  0.00    -0.225 N 
HETATM   13  C   UNK N   1      31.804  16.556   6.141  0.00  0.00     0.691 C 
HETATM   14  N   UNK N   1      31.753  17.470   5.240  0.00  0.00    -0.233 N 
HETATM   15  N   UNK N   1      33.058  16.113   6.660  0.00  0.00    -0.072 N 
HETATM   16  H   UNK N   1      32.578  17.818   4.831  0.00  0.00     0.174 HD
ATOM     17  HN  UNK N   1      30.849  17.839   4.946  1.00  0.00     0.174 HD
HETATM   18  H   UNK N   1      33.053  15.389   7.326  0.00  0.00     0.212 HD
HETATM   19  H   UNK N   1      30.661  15.341   7.382  0.00  0.00     0.177 HD
BRANCH  15  20
HETATM   20  N   UNK N   1      34.279  16.638   6.284  0.00  0.00    -0.024 N 
HETATM   21  O   UNK N   1      35.207  15.841   5.804  0.00  0.00    -0.516 OA
HETATM   22  O   UNK N   1      34.512  17.805   6.400  0.00  0.00    -0.516 OA
ENDBRANCH  15  20
ENDBRANCH   1  12
TORSDOF 8
ENDMDL
