MODEL 1
REMARK VINA RESULT:      -4.2      0.000      0.000
REMARK  18 active torsions:
REMARK  status: ('A' for Active; 'I' for Inactive)
REMARK    1  A    between atoms: C_2  and  C_3 
REMARK    2  A    between atoms: C_3  and  C_4 
REMARK    3  A    between atoms: C_4  and  C_5 
REMARK    4  A    between atoms: C_5  and  C_6 
REMARK    5  A    between atoms: C_6  and  C_7 
REMARK    6  A    between atoms: C_7  and  C_8 
REMARK    7  A    between atoms: C_8  and  C_9 
REMARK    8  A    between atoms: C_9  and  C_10 
REMARK    9  A    between atoms: C_10  and  N_11 
REMARK   10  A    between atoms: N_11  and  C_14 
REMARK   11  A    between atoms: C_14  and  C_15 
REMARK   12  A    between atoms: C_15  and  C_16 
REMARK   13  A    between atoms: C_16  and  C_17 
REMARK   14  A    between atoms: C_17  and  C_18 
REMARK   15  A    between atoms: C_18  and  C_19 
REMARK   16  A    between atoms: C_19  and  C_20 
REMARK   17  A    between atoms: C_20  and  C_21 
REMARK   18  A    between atoms: C_21  and  C_22 
ROOT
HETATM    1  N   UNK N   1      26.921  27.908  -4.222  0.00  0.00    -0.075 N 
HETATM    2  C   UNK N   1      26.286  29.106  -3.686  0.00  0.00     0.272 C 
HETATM    3  C   UNK N   1      28.363  28.107  -4.312  0.00  0.00     0.272 C 
ENDROOT
BRANCH   1   4
HETATM    4  C   UNK N   1      26.629  26.756  -3.360  0.00  0.00     0.236 C 
BRANCH   4   5
HETATM    5  C   UNK N   1      26.172  25.524  -4.148  0.00  0.00     0.028 C 
BRANCH   5   6
HETATM    6  C   UNK N   1      26.869  24.269  -3.653  0.00  0.00     0.002 C 
BRANCH   6   7
HETATM    7  C   UNK N   1      28.357  24.338  -3.942  0.00  0.00     0.000 C 
BRANCH   7   8
HETATM    8  C   UNK N   1      29.110  23.495  -2.940  0.00  0.00     0.000 C 
BRANCH   8   9
HETATM    9  C   UNK N   1      30.370  22.959  -3.583  0.00  0.00     0.000 C 
BRANCH   9  10
HETATM   10  C   UNK N   1      30.373  21.449  -3.490  0.00  0.00     0.000 C 
BRANCH  10  11
HETATM   11  C   UNK N   1      30.736  20.864  -4.837  0.00  0.00    -0.000 C 
BRANCH  11  12
HETATM   12  C   UNK N   1      29.788  21.402  -5.886  0.00  0.00    -0.005 C 
HETATM   13  C   UNK N   1      29.690  20.416  -7.031  0.00  0.00     0.005 C 
ENDBRANCH  11  12
ENDBRANCH  10  11
ENDBRANCH   9  10
ENDBRANCH   8   9
ENDBRANCH   7   8
ENDBRANCH   6   7
ENDBRANCH   5   6
ENDBRANCH   4   5
ENDBRANCH   1   4
BRANCH   1  14
HETATM   14  C   UNK N   1      26.374  27.604  -5.550  0.00  0.00     0.236 C 
BRANCH  14  15
HETATM   15  C   UNK N   1      27.354  27.930  -6.684  0.00  0.00     0.028 C 
BRANCH  15  16
HETATM   16  C   UNK N   1      27.474  26.767  -7.652  0.00  0.00     0.002 C 
BRANCH  16  17
HETATM   17  C   UNK N   1      28.779  26.022  -7.431  0.00  0.00     0.000 C 
BRANCH  17  18
HETATM   18  C   UNK N   1      28.536  24.535  -7.553  0.00  0.00     0.000 C 
BRANCH  18  19
HETATM   19  C   UNK N   1      27.047  24.266  -7.562  0.00  0.00     0.000 C 
BRANCH  19  20
HETATM   20  C   UNK N   1      26.809  22.791  -7.323  0.00  0.00     0.000 C 
BRANCH  20  21
HETATM   21  C   UNK N   1      25.479  22.602  -6.627  0.00  0.00    -0.000 C 
BRANCH  21  22
HETATM   22  C   UNK N   1      24.747  21.436  -7.255  0.00  0.00    -0.005 C 
HETATM   23  C   UNK N   1      25.643  20.772  -8.278  0.00  0.00     0.005 C 
ENDBRANCH  21  22
ENDBRANCH  20  21
ENDBRANCH  19  20
ENDBRANCH  18  19
ENDBRANCH  17  18
ENDBRANCH  16  17
ENDBRANCH  15  16
ENDBRANCH  14  15
ENDBRANCH   1  14
TORSDOF 18
ENDMDL
MODEL 2
REMARK VINA RESULT:      -4.2      2.082      6.681
REMARK  18 active torsions:
REMARK  status: ('A' for Active; 'I' for Inactive)
REMARK    1  A    between atoms: C_2  and  C_3 
REMARK    2  A    between atoms: C_3  and  C_4 
REMARK    3  A    between atoms: C_4  and  C_5 
REMARK    4  A    between atoms: C_5  and  C_6 
REMARK    5  A    between atoms: C_6  and  C_7 
REMARK    6  A    between atoms: C_7  and  C_8 
REMARK    7  A    between atoms: C_8  and  C_9 
REMARK    8  A    between atoms: C_9  and  C_10 
REMARK    9  A    between atoms: C_10  and  N_11 
REMARK   10  A    between atoms: N_11  and  C_14 
REMARK   11  A    between atoms: C_14  and  C_15 
REMARK   12  A    between atoms: C_15  and  C_16 
REMARK   13  A    between atoms: C_16  and  C_17 
REMARK   14  A    between atoms: C_17  and  C_18 
REMARK   15  A    between atoms: C_18  and  C_19 
REMARK   16  A    between atoms: C_19  and  C_20 
REMARK   17  A    between atoms: C_20  and  C_21 
REMARK   18  A    between atoms: C_21  and  C_22 
ROOT
HETATM    1  N   UNK N   1      26.579  21.975  -8.054  0.00  0.00    -0.075 N 
HETATM    2  C   UNK N   1      25.284  21.404  -7.700  0.00  0.00     0.272 C 
HETATM    3  C   UNK N   1      26.467  22.728  -9.297  0.00  0.00     0.272 C 
ENDROOT
BRANCH   1   4
HETATM    4  C   UNK N   1      27.050  22.855  -6.978  0.00  0.00     0.236 C 
BRANCH   4   5
HETATM    5  C   UNK N   1      25.924  23.686  -6.354  0.00  0.00     0.028 C 
BRANCH   5   6
HETATM    6  C   UNK N   1      26.198  23.964  -4.887  0.00  0.00     0.002 C 
BRANCH   6   7
HETATM    7  C   UNK N   1      26.089  25.450  -4.598  0.00  0.00     0.000 C 
BRANCH   7   8
HETATM    8  C   UNK N   1      25.219  26.109  -5.643  0.00  0.00     0.000 C 
BRANCH   8   9
HETATM    9  C   UNK N   1      24.915  27.529  -5.218  0.00  0.00     0.000 C 
BRANCH   9  10
HETATM   10  C   UNK N   1      25.630  27.824  -3.918  0.00  0.00     0.000 C 
BRANCH  10  11
HETATM   11  C   UNK N   1      26.306  29.175  -4.012  0.00  0.00    -0.000 C 
BRANCH  11  12
HETATM   12  C   UNK N   1      27.368  29.126  -5.089  0.00  0.00    -0.005 C 
HETATM   13  C   UNK N   1      28.558  28.337  -4.587  0.00  0.00     0.005 C 
ENDBRANCH  11  12
ENDBRANCH  10  11
ENDBRANCH   9  10
ENDBRANCH   8   9
ENDBRANCH   7   8
ENDBRANCH   6   7
ENDBRANCH   5   6
ENDBRANCH   4   5
ENDBRANCH   1   4
BRANCH   1  14
HETATM   14  C   UNK N   1      27.572  20.905  -8.205  0.00  0.00     0.236 C 
BRANCH  14  15
HETATM   15  C   UNK N   1      28.894  21.218  -7.497  0.00  0.00     0.028 C 
BRANCH  15  16
HETATM   16  C   UNK N   1      29.706  19.955  -7.272  0.00  0.00     0.002 C 
BRANCH  16  17
HETATM   17  C   UNK N   1      30.678  20.144  -6.121  0.00  0.00     0.000 C 
BRANCH  17  18
HETATM   18  C   UNK N   1      30.196  21.270  -5.235  0.00  0.00     0.000 C 
BRANCH  18  19
HETATM   19  C   UNK N   1      30.526  20.953  -3.793  0.00  0.00     0.000 C 
BRANCH  19  20
HETATM   20  C   UNK N   1      30.805  22.243  -3.054  0.00  0.00     0.000 C 
BRANCH  20  21
HETATM   21  C   UNK N   1      29.498  22.937  -2.741  0.00  0.00    -0.000 C 
BRANCH  21  22
HETATM   22  C   UNK N   1      29.507  24.320  -3.355  0.00  0.00    -0.005 C 
HETATM   23  C   UNK N   1      30.930  24.717  -3.683  0.00  0.00     0.005 C 
ENDBRANCH  21  22
ENDBRANCH  20  21
ENDBRANCH  19  20
ENDBRANCH  18  19
ENDBRANCH  17  18
ENDBRANCH  16  17
ENDBRANCH  15  16
ENDBRANCH  14  15
ENDBRANCH   1  14
TORSDOF 18
ENDMDL
MODEL 3
REMARK VINA RESULT:      -4.2     17.149     21.242
REMARK  18 active torsions:
REMARK  status: ('A' for Active; 'I' for Inactive)
REMARK    1  A    between atoms: C_2  and  C_3 
REMARK    2  A    between atoms: C_3  and  C_4 
REMARK    3  A    between atoms: C_4  and  C_5 
REMARK    4  A    between atoms: C_5  and  C_6 
REMARK    5  A    between atoms: C_6  and  C_7 
REMARK    6  A    between atoms: C_7  and  C_8 
REMARK    7  A    between atoms: C_8  and  C_9 
REMARK    8  A    between atoms: C_9  and  C_10 
REMARK    9  A    between atoms: C_10  and  N_11 
REMARK   10  A    between atoms: N_11  and  C_14 
REMARK   11  A    between atoms: C_14  and  C_15 
REMARK   12  A    between atoms: C_15  and  C_16 
REMARK   13  A    between atoms: C_16  and  C_17 
REMARK   14  A    between atoms: C_17  and  C_18 
REMARK   15  A    between atoms: C_18  and  C_19 
REMARK   16  A    between atoms: C_19  and  C_20 
REMARK   17  A    between atoms: C_20  and  C_21 
REMARK   18  A    between atoms: C_21  and  C_22 
ROOT
HETATM    1  N   UNK N   1      34.843  13.697   9.838  0.00  0.00    -0.075 N 
HETATM    2  C   UNK N   1      33.884  13.037   8.959  0.00  0.00     0.272 C 
HETATM    3  C   UNK N   1      36.104  13.901   9.135  0.00  0.00     0.272 C 
ENDROOT
BRANCH   1   4
HETATM    4  C   UNK N   1      34.307  14.988  10.285  0.00  0.00     0.236 C 
BRANCH   4   5
HETATM    5  C   UNK N   1      33.801  15.855   9.127  0.00  0.00     0.028 C 
BRANCH   5   6
HETATM    6  C   UNK N   1      34.355  17.265   9.217  0.00  0.00     0.002 C 
BRANCH   6   7
HETATM    7  C   UNK N   1      34.365  17.921   7.849  0.00  0.00     0.000 C 
BRANCH   7   8
HETATM    8  C   UNK N   1      34.195  16.868   6.779  0.00  0.00     0.000 C 
BRANCH   8   9
HETATM    9  C   UNK N   1      33.261  17.388   5.708  0.00  0.00     0.000 C 
BRANCH   9  10
HETATM   10  C   UNK N   1      31.996  16.557   5.705  0.00  0.00     0.000 C 
BRANCH  10  11
HETATM   11  C   UNK N   1      30.865  17.365   6.303  0.00  0.00    -0.000 C 
BRANCH  11  12
HETATM   12  C   UNK N   1      30.552  16.835   7.686  0.00  0.00    -0.005 C 
HETATM   13  C   UNK N   1      30.715  17.947   8.699  0.00  0.00     0.005 C 
ENDBRANCH  11  12
ENDBRANCH  10  11
ENDBRANCH   9  10
ENDBRANCH   8   9
ENDBRANCH   7   8
ENDBRANCH   6   7
ENDBRANCH   5   6
ENDBRANCH   4   5
ENDBRANCH   1   4
BRANCH   1  14
HETATM   14  C   UNK N   1      35.066  12.881  11.037  0.00  0.00     0.236 C 
BRANCH  14  15
HETATM   15  C   UNK N   1      35.143  13.718  12.319  0.00  0.00     0.028 C 
BRANCH  15  16
HETATM   16  C   UNK N   1      36.416  13.419  13.090  0.00  0.00     0.002 C 
BRANCH  16  17
HETATM   17  C   UNK N   1      36.223  13.706  14.569  0.00  0.00     0.000 C 
BRANCH  17  18
HETATM   18  C   UNK N   1      36.522  12.458  15.367  0.00  0.00     0.000 C 
BRANCH  18  19
HETATM   19  C   UNK N   1      35.299  12.064  16.165  0.00  0.00     0.000 C 
BRANCH  19  20
HETATM   20  C   UNK N   1      34.777  10.740  15.652  0.00  0.00     0.000 C 
BRANCH  20  21
HETATM   21  C   UNK N   1      33.628  10.987  14.699  0.00  0.00    -0.000 C 
BRANCH  21  22
HETATM   22  C   UNK N   1      33.939  10.346  13.364  0.00  0.00    -0.005 C 
HETATM   23  C   UNK N   1      35.229   9.562  13.470  0.00  0.00     0.005 C 
ENDBRANCH  21  22
ENDBRANCH  20  21
ENDBRANCH  19  20
ENDBRANCH  18  19
ENDBRANCH  17  18
ENDBRANCH  16  17
ENDBRANCH  15  16
ENDBRANCH  14  15
ENDBRANCH   1  14
TORSDOF 18
ENDMDL
MODEL 4
REMARK VINA RESULT:      -4.2      1.689      4.489
REMARK  18 active torsions:
REMARK  status: ('A' for Active; 'I' for Inactive)
REMARK    1  A    between atoms: C_2  and  C_3 
REMARK    2  A    between atoms: C_3  and  C_4 
REMARK    3  A    between atoms: C_4  and  C_5 
REMARK    4  A    between atoms: C_5  and  C_6 
REMARK    5  A    between atoms: C_6  and  C_7 
REMARK    6  A    between atoms: C_7  and  C_8 
REMARK    7  A    between atoms: C_8  and  C_9 
REMARK    8  A    between atoms: C_9  and  C_10 
REMARK    9  A    between atoms: C_10  and  N_11 
REMARK   10  A    between atoms: N_11  and  C_14 
REMARK   11  A    between atoms: C_14  and  C_15 
REMARK   12  A    between atoms: C_15  and  C_16 
REMARK   13  A    between atoms: C_16  and  C_17 
REMARK   14  A    between atoms: C_17  and  C_18 
REMARK   15  A    between atoms: C_18  and  C_19 
REMARK   16  A    between atoms: C_19  and  C_20 
REMARK   17  A    between atoms: C_20  and  C_21 
REMARK   18  A    between atoms: C_21  and  C_22 
ROOT
HETATM    1  N   UNK N   1      27.679  29.496  -3.554  0.00  0.00    -0.075 N 
HETATM    2  C   UNK N   1      28.234  30.218  -4.693  0.00  0.00     0.272 C 
HETATM    3  C   UNK N   1      27.943  30.231  -2.322  0.00  0.00     0.272 C 
ENDROOT
BRANCH   1   4
HETATM    4  C   UNK N   1      26.232  29.319  -3.729  0.00  0.00     0.236 C 
BRANCH   4   5
HETATM    5  C   UNK N   1      25.817  27.845  -3.793  0.00  0.00     0.028 C 
BRANCH   5   6
HETATM    6  C   UNK N   1      25.102  27.535  -5.096  0.00  0.00     0.002 C 
BRANCH   6   7
HETATM    7  C   UNK N   1      26.101  27.396  -6.230  0.00  0.00     0.000 C 
BRANCH   7   8
HETATM    8  C   UNK N   1      25.613  26.358  -7.213  0.00  0.00     0.000 C 
BRANCH   8   9
HETATM    9  C   UNK N   1      26.618  25.229  -7.290  0.00  0.00     0.000 C 
BRANCH   9  10
HETATM   10  C   UNK N   1      26.150  24.086  -6.416  0.00  0.00     0.000 C 
BRANCH  10  11
HETATM   11  C   UNK N   1      27.144  23.873  -5.295  0.00  0.00    -0.000 C 
BRANCH  11  12
HETATM   12  C   UNK N   1      26.512  24.285  -3.984  0.00  0.00    -0.005 C 
HETATM   13  C   UNK N   1      27.467  23.986  -2.848  0.00  0.00     0.005 C 
ENDBRANCH  11  12
ENDBRANCH  10  11
ENDBRANCH   9  10
ENDBRANCH   8   9
ENDBRANCH   7   8
ENDBRANCH   6   7
ENDBRANCH   5   6
ENDBRANCH   4   5
ENDBRANCH   1   4
BRANCH   1  14
HETATM   14  C   UNK N   1      28.273  28.156  -3.474  0.00  0.00     0.236 C 
BRANCH  14  15
HETATM   15  C   UNK N   1      29.377  27.932  -4.514  0.00  0.00     0.028 C 
BRANCH  15  16
HETATM   16  C   UNK N   1      29.667  26.453  -4.693  0.00  0.00     0.002 C 
BRANCH  16  17
HETATM   17  C   UNK N   1      30.594  25.955  -3.599  0.00  0.00     0.000 C 
BRANCH  17  18
HETATM   18  C   UNK N   1      31.439  24.821  -4.133  0.00  0.00     0.000 C 
BRANCH  18  19
HETATM   19  C   UNK N   1      31.125  23.554  -3.369  0.00  0.00     0.000 C 
BRANCH  19  20
HETATM   20  C   UNK N   1      31.331  22.363  -4.278  0.00  0.00     0.000 C 
BRANCH  20  21
HETATM   21  C   UNK N   1      29.996  21.716  -4.571  0.00  0.00    -0.000 C 
BRANCH  21  22
HETATM   22  C   UNK N   1      29.946  21.307  -6.027  0.00  0.00    -0.005 C 
HETATM   23  C   UNK N   1      30.074  22.537  -6.900  0.00  0.00     0.005 C 
ENDBRANCH  21  22
ENDBRANCH  20  21
ENDBRANCH  19  20
ENDBRANCH  18  19
ENDBRANCH  17  18
ENDBRANCH  16  17
ENDBRANCH  15  16
ENDBRANCH  14  15
ENDBRANCH   1  14
TORSDOF 18
ENDMDL
MODEL 5
REMARK VINA RESULT:      -4.1     11.456     14.388
REMARK  18 active torsions:
REMARK  status: ('A' for Active; 'I' for Inactive)
REMARK    1  A    between atoms: C_2  and  C_3 
REMARK    2  A    between atoms: C_3  and  C_4 
REMARK    3  A    between atoms: C_4  and  C_5 
REMARK    4  A    between atoms: C_5  and  C_6 
REMARK    5  A    between atoms: C_6  and  C_7 
REMARK    6  A    between atoms: C_7  and  C_8 
REMARK    7  A    between atoms: C_8  and  C_9 
REMARK    8  A    between atoms: C_9  and  C_10 
REMARK    9  A    between atoms: C_10  and  N_11 
REMARK   10  A    between atoms: N_11  and  C_14 
REMARK   11  A    between atoms: C_14  and  C_15 
REMARK   12  A    between atoms: C_15  and  C_16 
REMARK   13  A    between atoms: C_16  and  C_17 
REMARK   14  A    between atoms: C_17  and  C_18 
REMARK   15  A    between atoms: C_18  and  C_19 
REMARK   16  A    between atoms: C_19  and  C_20 
REMARK   17  A    between atoms: C_20  and  C_21 
REMARK   18  A    between atoms: C_21  and  C_22 
ROOT
HETATM    1  N   UNK N   1      32.918  17.416   7.998  0.00  0.00    -0.075 N 
HETATM    2  C   UNK N   1      33.184  16.213   8.779  0.00  0.00     0.272 C 
HETATM    3  C   UNK N   1      34.131  18.219   7.893  0.00  0.00     0.272 C 
ENDROOT
BRANCH   1   4
HETATM    4  C   UNK N   1      32.446  17.050   6.658  0.00  0.00     0.236 C 
BRANCH   4   5
HETATM    5  C   UNK N   1      33.455  17.394   5.557  0.00  0.00     0.028 C 
BRANCH   5   6
HETATM    6  C   UNK N   1      32.749  17.785   4.271  0.00  0.00     0.002 C 
BRANCH   6   7
HETATM    7  C   UNK N   1      31.309  17.307   4.290  0.00  0.00     0.000 C 
BRANCH   7   8
HETATM    8  C   UNK N   1      31.064  16.383   3.119  0.00  0.00     0.000 C 
BRANCH   8   9
HETATM    9  C   UNK N   1      29.923  15.446   3.450  0.00  0.00     0.000 C 
BRANCH   9  10
HETATM   10  C   UNK N   1      28.879  15.529   2.359  0.00  0.00     0.000 C 
BRANCH  10  11
HETATM   11  C   UNK N   1      27.674  14.701   2.754  0.00  0.00    -0.000 C 
BRANCH  11  12
HETATM   12  C   UNK N   1      26.484  15.126   1.922  0.00  0.00    -0.005 C 
HETATM   13  C   UNK N   1      25.480  15.835   2.804  0.00  0.00     0.005 C 
ENDBRANCH  11  12
ENDBRANCH  10  11
ENDBRANCH   9  10
ENDBRANCH   8   9
ENDBRANCH   7   8
ENDBRANCH   6   7
ENDBRANCH   5   6
ENDBRANCH   4   5
ENDBRANCH   1   4
BRANCH   1  14
HETATM   14  C   UNK N   1      31.853  18.200   8.634  0.00  0.00     0.236 C 
BRANCH  14  15
HETATM   15  C   UNK N   1      30.511  17.461   8.666  0.00  0.00     0.028 C 
BRANCH  15  16
HETATM   16  C   UNK N   1      29.350  18.431   8.540  0.00  0.00     0.002 C 
BRANCH  16  17
HETATM   17  C   UNK N   1      28.134  17.733   7.958  0.00  0.00     0.000 C 
BRANCH  17  18
HETATM   18  C   UNK N   1      28.575  16.767   6.881  0.00  0.00     0.000 C 
BRANCH  18  19
HETATM   19  C   UNK N   1      27.533  16.723   5.785  0.00  0.00     0.000 C 
BRANCH  19  20
HETATM   20  C   UNK N   1      27.005  18.121   5.549  0.00  0.00     0.000 C 
BRANCH  20  21
HETATM   21  C   UNK N   1      27.501  18.627   4.212  0.00  0.00    -0.000 C 
BRANCH  21  22
HETATM   22  C   UNK N   1      27.731  20.120   4.297  0.00  0.00    -0.005 C 
HETATM   23  C   UNK N   1      27.599  20.569   5.736  0.00  0.00     0.005 C 
ENDBRANCH  21  22
ENDBRANCH  20  21
ENDBRANCH  19  20
ENDBRANCH  18  19
ENDBRANCH  17  18
ENDBRANCH  16  17
ENDBRANCH  15  16
ENDBRANCH  14  15
ENDBRANCH   1  14
TORSDOF 18
ENDMDL
MODEL 6
REMARK VINA RESULT:      -4.1      1.488      2.351
REMARK  18 active torsions:
REMARK  status: ('A' for Active; 'I' for Inactive)
REMARK    1  A    between atoms: C_2  and  C_3 
REMARK    2  A    between atoms: C_3  and  C_4 
REMARK    3  A    between atoms: C_4  and  C_5 
REMARK    4  A    between atoms: C_5  and  C_6 
REMARK    5  A    between atoms: C_6  and  C_7 
REMARK    6  A    between atoms: C_7  and  C_8 
REMARK    7  A    between atoms: C_8  and  C_9 
REMARK    8  A    between atoms: C_9  and  C_10 
REMARK    9  A    between atoms: C_10  and  N_11 
REMARK   10  A    between atoms: N_11  and  C_14 
REMARK   11  A    between atoms: C_14  and  C_15 
REMARK   12  A    between atoms: C_15  and  C_16 
REMARK   13  A    between atoms: C_16  and  C_17 
REMARK   14  A    between atoms: C_17  and  C_18 
REMARK   15  A    between atoms: C_18  and  C_19 
REMARK   16  A    between atoms: C_19  and  C_20 
REMARK   17  A    between atoms: C_20  and  C_21 
REMARK   18  A    between atoms: C_21  and  C_22 
ROOT
HETATM    1  N   UNK N   1      26.788  28.881  -4.061  0.00  0.00    -0.075 N 
HETATM    2  C   UNK N   1      26.313  30.207  -3.685  0.00  0.00     0.272 C 
HETATM    3  C   UNK N   1      27.902  28.491  -3.204  0.00  0.00     0.272 C 
ENDROOT
BRANCH   1   4
HETATM    4  C   UNK N   1      25.699  27.904  -3.938  0.00  0.00     0.236 C 
BRANCH   4   5
HETATM    5  C   UNK N   1      25.224  27.371  -5.295  0.00  0.00     0.028 C 
BRANCH   5   6
HETATM    6  C   UNK N   1      25.248  25.853  -5.324  0.00  0.00     0.002 C 
BRANCH   6   7
HETATM    7  C   UNK N   1      26.195  25.317  -4.266  0.00  0.00     0.000 C 
BRANCH   7   8
HETATM    8  C   UNK N   1      27.357  24.617  -4.930  0.00  0.00     0.000 C 
BRANCH   8   9
HETATM    9  C   UNK N   1      28.639  24.982  -4.213  0.00  0.00     0.000 C 
BRANCH   9  10
HETATM   10  C   UNK N   1      29.612  23.829  -4.317  0.00  0.00     0.000 C 
BRANCH  10  11
HETATM   11  C   UNK N   1      30.638  23.938  -3.209  0.00  0.00    -0.000 C 
BRANCH  11  12
HETATM   12  C   UNK N   1      31.085  22.551  -2.805  0.00  0.00    -0.005 C 
HETATM   13  C   UNK N   1      30.320  21.521  -3.609  0.00  0.00     0.005 C 
ENDBRANCH  11  12
ENDBRANCH  10  11
ENDBRANCH   9  10
ENDBRANCH   8   9
ENDBRANCH   7   8
ENDBRANCH   6   7
ENDBRANCH   5   6
ENDBRANCH   4   5
ENDBRANCH   1   4
BRANCH   1  14
HETATM   14  C   UNK N   1      27.215  28.881  -5.465  0.00  0.00     0.236 C 
BRANCH  14  15
HETATM   15  C   UNK N   1      28.727  28.693  -5.627  0.00  0.00     0.028 C 
BRANCH  15  16
HETATM   16  C   UNK N   1      29.041  27.750  -6.774  0.00  0.00     0.002 C 
BRANCH  16  17
HETATM   17  C   UNK N   1      27.852  27.639  -7.712  0.00  0.00     0.000 C 
BRANCH  17  18
HETATM   18  C   UNK N   1      27.742  26.219  -8.220  0.00  0.00     0.000 C 
BRANCH  18  19
HETATM   19  C   UNK N   1      26.348  25.983  -8.759  0.00  0.00     0.000 C 
BRANCH  19  20
HETATM   20  C   UNK N   1      26.271  24.587  -9.336  0.00  0.00     0.000 C 
BRANCH  20  21
HETATM   21  C   UNK N   1      25.237  23.785  -8.577  0.00  0.00    -0.000 C 
BRANCH  21  22
HETATM   22  C   UNK N   1      25.932  22.714  -7.765  0.00  0.00    -0.005 C 
HETATM   23  C   UNK N   1      24.920  21.676  -7.329  0.00  0.00     0.005 C 
ENDBRANCH  21  22
ENDBRANCH  20  21
ENDBRANCH  19  20
ENDBRANCH  18  19
ENDBRANCH  17  18
ENDBRANCH  16  17
ENDBRANCH  15  16
ENDBRANCH  14  15
ENDBRANCH   1  14
TORSDOF 18
ENDMDL
MODEL 7
REMARK VINA RESULT:      -4.1      1.473      2.446
REMARK  18 active torsions:
REMARK  status: ('A' for Active; 'I' for Inactive)
REMARK    1  A    between atoms: C_2  and  C_3 
REMARK    2  A    between atoms: C_3  and  C_4 
REMARK    3  A    between atoms: C_4  and  C_5 
REMARK    4  A    between atoms: C_5  and  C_6 
REMARK    5  A    between atoms: C_6  and  C_7 
REMARK    6  A    between atoms: C_7  and  C_8 
REMARK    7  A    between atoms: C_8  and  C_9 
REMARK    8  A    between atoms: C_9  and  C_10 
REMARK    9  A    between atoms: C_10  and  N_11 
REMARK   10  A    between atoms: N_11  and  C_14 
REMARK   11  A    between atoms: C_14  and  C_15 
REMARK   12  A    between atoms: C_15  and  C_16 
REMARK   13  A    between atoms: C_16  and  C_17 
REMARK   14  A    between atoms: C_17  and  C_18 
REMARK   15  A    between atoms: C_18  and  C_19 
REMARK   16  A    between atoms: C_19  and  C_20 
REMARK   17  A    between atoms: C_20  and  C_21 
REMARK   18  A    between atoms: C_21  and  C_22 
ROOT
HETATM    1  N   UNK N   1      27.799  29.054  -4.169  0.00  0.00    -0.075 N 
HETATM    2  C   UNK N   1      27.328  28.814  -2.809  0.00  0.00     0.272 C 
HETATM    3  C   UNK N   1      28.142  30.462  -4.335  0.00  0.00     0.272 C 
ENDROOT
BRANCH   1   4
HETATM    4  C   UNK N   1      28.974  28.219  -4.447  0.00  0.00     0.236 C 
BRANCH   4   5
HETATM    5  C   UNK N   1      28.863  27.461  -5.775  0.00  0.00     0.028 C 
BRANCH   5   6
HETATM    6  C   UNK N   1      29.079  25.972  -5.573  0.00  0.00     0.002 C 
BRANCH   6   7
HETATM    7  C   UNK N   1      29.219  25.650  -4.097  0.00  0.00     0.000 C 
BRANCH   7   8
HETATM    8  C   UNK N   1      28.173  24.637  -3.695  0.00  0.00     0.000 C 
BRANCH   8   9
HETATM    9  C   UNK N   1      28.852  23.436  -3.072  0.00  0.00     0.000 C 
BRANCH   9  10
HETATM   10  C   UNK N   1      30.312  23.755  -2.841  0.00  0.00     0.000 C 
BRANCH  10  11
HETATM   11  C   UNK N   1      31.168  22.719  -3.539  0.00  0.00    -0.000 C 
BRANCH  11  12
HETATM   12  C   UNK N   1      30.341  21.477  -3.789  0.00  0.00    -0.005 C 
HETATM   13  C   UNK N   1      30.707  20.891  -5.135  0.00  0.00     0.005 C 
ENDBRANCH  11  12
ENDBRANCH  10  11
ENDBRANCH   9  10
ENDBRANCH   8   9
ENDBRANCH   7   8
ENDBRANCH   6   7
ENDBRANCH   5   6
ENDBRANCH   4   5
ENDBRANCH   1   4
BRANCH   1  14
HETATM   14  C   UNK N   1      26.759  28.675  -5.132  0.00  0.00     0.236 C 
BRANCH  14  15
HETATM   15  C   UNK N   1      25.571  27.965  -4.474  0.00  0.00     0.028 C 
BRANCH  15  16
HETATM   16  C   UNK N   1      24.742  27.218  -5.504  0.00  0.00     0.002 C 
BRANCH  16  17
HETATM   17  C   UNK N   1      25.406  25.903  -5.870  0.00  0.00     0.000 C 
BRANCH  17  18
HETATM   18  C   UNK N   1      25.789  25.922  -7.332  0.00  0.00     0.000 C 
BRANCH  18  19
HETATM   19  C   UNK N   1      26.088  24.512  -7.793  0.00  0.00     0.000 C 
BRANCH  19  20
HETATM   20  C   UNK N   1      26.153  23.600  -6.588  0.00  0.00     0.000 C 
BRANCH  20  21
HETATM   21  C   UNK N   1      27.359  22.694  -6.706  0.00  0.00    -0.000 C 
BRANCH  21  22
HETATM   22  C   UNK N   1      27.142  21.717  -7.841  0.00  0.00    -0.005 C 
HETATM   23  C   UNK N   1      28.445  21.014  -8.156  0.00  0.00     0.005 C 
ENDBRANCH  21  22
ENDBRANCH  20  21
ENDBRANCH  19  20
ENDBRANCH  18  19
ENDBRANCH  17  18
ENDBRANCH  16  17
ENDBRANCH  15  16
ENDBRANCH  14  15
ENDBRANCH   1  14
TORSDOF 18
ENDMDL
MODEL 8
REMARK VINA RESULT:      -4.0      2.004      3.525
REMARK  18 active torsions:
REMARK  status: ('A' for Active; 'I' for Inactive)
REMARK    1  A    between atoms: C_2  and  C_3 
REMARK    2  A    between atoms: C_3  and  C_4 
REMARK    3  A    between atoms: C_4  and  C_5 
REMARK    4  A    between atoms: C_5  and  C_6 
REMARK    5  A    between atoms: C_6  and  C_7 
REMARK    6  A    between atoms: C_7  and  C_8 
REMARK    7  A    between atoms: C_8  and  C_9 
REMARK    8  A    between atoms: C_9  and  C_10 
REMARK    9  A    between atoms: C_10  and  N_11 
REMARK   10  A    between atoms: N_11  and  C_14 
REMARK   11  A    between atoms: C_14  and  C_15 
REMARK   12  A    between atoms: C_15  and  C_16 
REMARK   13  A    between atoms: C_16  and  C_17 
REMARK   14  A    between atoms: C_17  and  C_18 
REMARK   15  A    between atoms: C_18  and  C_19 
REMARK   16  A    between atoms: C_19  and  C_20 
REMARK   17  A    between atoms: C_20  and  C_21 
REMARK   18  A    between atoms: C_21  and  C_22 
ROOT
HETATM    1  N   UNK N   1      29.856  28.081  -4.426  0.00  0.00    -0.075 N 
HETATM    2  C   UNK N   1      31.257  28.438  -4.235  0.00  0.00     0.272 C 
HETATM    3  C   UNK N   1      29.510  28.167  -5.840  0.00  0.00     0.272 C 
ENDROOT
BRANCH   1   4
HETATM    4  C   UNK N   1      29.613  26.719  -3.935  0.00  0.00     0.236 C 
BRANCH   4   5
HETATM    5  C   UNK N   1      30.909  25.945  -3.665  0.00  0.00     0.028 C 
BRANCH   5   6
HETATM    6  C   UNK N   1      30.741  24.471  -3.985  0.00  0.00     0.002 C 
BRANCH   6   7
HETATM    7  C   UNK N   1      30.486  23.678  -2.716  0.00  0.00     0.000 C 
BRANCH   7   8
HETATM    8  C   UNK N   1      30.482  22.201  -3.031  0.00  0.00     0.000 C 
BRANCH   8   9
HETATM    9  C   UNK N   1      31.287  21.955  -4.288  0.00  0.00     0.000 C 
BRANCH   9  10
HETATM   10  C   UNK N   1      30.878  20.628  -4.889  0.00  0.00     0.000 C 
BRANCH  10  11
HETATM   11  C   UNK N   1      30.395  20.847  -6.307  0.00  0.00    -0.000 C 
BRANCH  11  12
HETATM   12  C   UNK N   1      29.250  21.836  -6.296  0.00  0.00    -0.005 C 
HETATM   13  C   UNK N   1      29.462  22.865  -7.386  0.00  0.00     0.005 C 
ENDBRANCH  11  12
ENDBRANCH  10  11
ENDBRANCH   9  10
ENDBRANCH   8   9
ENDBRANCH   7   8
ENDBRANCH   6   7
ENDBRANCH   5   6
ENDBRANCH   4   5
ENDBRANCH   1   4
BRANCH   1  14
HETATM   14  C   UNK N   1      28.999  28.982  -3.646  0.00  0.00     0.236 C 
BRANCH  14  15
HETATM   15  C   UNK N   1      27.686  29.319  -4.361  0.00  0.00     0.028 C 
BRANCH  15  16
HETATM   16  C   UNK N   1      26.494  29.094  -3.449  0.00  0.00     0.002 C 
BRANCH  16  17
HETATM   17  C   UNK N   1      25.748  27.833  -3.849  0.00  0.00     0.000 C 
BRANCH  17  18
HETATM   18  C   UNK N   1      25.789  27.680  -5.352  0.00  0.00     0.000 C 
BRANCH  18  19
HETATM   19  C   UNK N   1      24.861  26.560  -5.770  0.00  0.00     0.000 C 
BRANCH  19  20
HETATM   20  C   UNK N   1      25.677  25.442  -6.380  0.00  0.00     0.000 C 
BRANCH  20  21
HETATM   21  C   UNK N   1      25.712  24.267  -5.429  0.00  0.00    -0.000 C 
BRANCH  21  22
HETATM   22  C   UNK N   1      27.074  24.193  -4.774  0.00  0.00    -0.005 C 
HETATM   23  C   UNK N   1      26.916  24.291  -3.272  0.00  0.00     0.005 C 
ENDBRANCH  21  22
ENDBRANCH  20  21
ENDBRANCH  19  20
ENDBRANCH  18  19
ENDBRANCH  17  18
ENDBRANCH  16  17
ENDBRANCH  15  16
ENDBRANCH  14  15
ENDBRANCH   1  14
TORSDOF 18
ENDMDL
MODEL 9
REMARK VINA RESULT:      -3.9     19.621     23.687
REMARK  18 active torsions:
REMARK  status: ('A' for Active; 'I' for Inactive)
REMARK    1  A    between atoms: C_2  and  C_3 
REMARK    2  A    between atoms: C_3  and  C_4 
REMARK    3  A    between atoms: C_4  and  C_5 
REMARK    4  A    between atoms: C_5  and  C_6 
REMARK    5  A    between atoms: C_6  and  C_7 
REMARK    6  A    between atoms: C_7  and  C_8 
REMARK    7  A    between atoms: C_8  and  C_9 
REMARK    8  A    between atoms: C_9  and  C_10 
REMARK    9  A    between atoms: C_10  and  N_11 
REMARK   10  A    between atoms: N_11  and  C_14 
REMARK   11  A    between atoms: C_14  and  C_15 
REMARK   12  A    between atoms: C_15  and  C_16 
REMARK   13  A    between atoms: C_16  and  C_17 
REMARK   14  A    between atoms: C_17  and  C_18 
REMARK   15  A    between atoms: C_18  and  C_19 
REMARK   16  A    between atoms: C_19  and  C_20 
REMARK   17  A    between atoms: C_20  and  C_21 
REMARK   18  A    between atoms: C_21  and  C_22 
ROOT
HETATM    1  N   UNK N   1      35.469  13.124  11.786  0.00  0.00    -0.075 N 
HETATM    2  C   UNK N   1      35.351  12.142  10.714  0.00  0.00     0.272 C 
HETATM    3  C   UNK N   1      36.874  13.428  12.030  0.00  0.00     0.272 C 
ENDROOT
BRANCH   1   4
HETATM    4  C   UNK N   1      34.749  14.351  11.424  0.00  0.00     0.236 C 
BRANCH   4   5
HETATM    5  C   UNK N   1      35.547  15.622  11.736  0.00  0.00     0.028 C 
BRANCH   5   6
HETATM    6  C   UNK N   1      35.377  16.657  10.638  0.00  0.00     0.002 C 
BRANCH   6   7
HETATM    7  C   UNK N   1      34.585  16.078   9.481  0.00  0.00     0.000 C 
BRANCH   7   8
HETATM    8  C   UNK N   1      34.546  17.072   8.343  0.00  0.00     0.000 C 
BRANCH   8   9
HETATM    9  C   UNK N   1      33.229  17.817   8.373  0.00  0.00     0.000 C 
BRANCH   9  10
HETATM   10  C   UNK N   1      32.162  16.967   7.720  0.00  0.00     0.000 C 
BRANCH  10  11
HETATM   11  C   UNK N   1      30.940  16.924   8.612  0.00  0.00    -0.000 C 
BRANCH  11  12
HETATM   12  C   UNK N   1      30.252  18.271   8.578  0.00  0.00    -0.005 C 
HETATM   13  C   UNK N   1      29.453  18.460   9.850  0.00  0.00     0.005 C 
ENDBRANCH  11  12
ENDBRANCH  10  11
ENDBRANCH   9  10
ENDBRANCH   8   9
ENDBRANCH   7   8
ENDBRANCH   6   7
ENDBRANCH   5   6
ENDBRANCH   4   5
ENDBRANCH   1   4
BRANCH   1  14
HETATM   14  C   UNK N   1      34.850  12.604  13.011  0.00  0.00     0.236 C 
BRANCH  14  15
HETATM   15  C   UNK N   1      35.535  13.112  14.284  0.00  0.00     0.028 C 
BRANCH  15  16
HETATM   16  C   UNK N   1      34.656  12.893  15.502  0.00  0.00     0.002 C 
BRANCH  16  17
HETATM   17  C   UNK N   1      35.505  12.601  16.727  0.00  0.00     0.000 C 
BRANCH  17  18
HETATM   18  C   UNK N   1      35.264  13.667  17.772  0.00  0.00     0.000 C 
BRANCH  18  19
HETATM   19  C   UNK N   1      35.153  13.020  19.135  0.00  0.00     0.000 C 
BRANCH  19  20
HETATM   20  C   UNK N   1      35.301  11.522  18.986  0.00  0.00     0.000 C 
BRANCH  20  21
HETATM   21  C   UNK N   1      36.028  10.966  20.190  0.00  0.00    -0.000 C 
BRANCH  21  22
HETATM   22  C   UNK N   1      37.048   9.947  19.732  0.00  0.00    -0.005 C 
HETATM   23  C   UNK N   1      36.624   9.375  18.396  0.00  0.00     0.005 C 
ENDBRANCH  21  22
ENDBRANCH  20  21
ENDBRANCH  19  20
ENDBRANCH  18  19
ENDBRANCH  17  18
ENDBRANCH  16  17
ENDBRANCH  15  16
ENDBRANCH  14  15
ENDBRANCH   1  14
TORSDOF 18
ENDMDL
