MODEL 1
REMARK VINA RESULT:      -5.8      0.000      0.000
REMARK  12 active torsions:
REMARK  status: ('A' for Active; 'I' for Inactive)
REMARK    1  A    between atoms: C_4  and  C_2 
REMARK    2  A    between atoms: O_15  and  C_2 
REMARK    3  A    between atoms: O_16  and  C_3 
REMARK    4  A    between atoms: C_6  and  C_4 
REMARK    5  A    between atoms: C_4  and  O_17 
REMARK    6  A    between atoms: C_5  and  N_13 
REMARK    7  A    between atoms: C_8  and  C_6 
REMARK    8  A    between atoms: C_6  and  O_18 
REMARK    9  A    between atoms: C_7  and  O_19 
REMARK   10  A    between atoms: C_11  and  C_10 
REMARK   11  A    between atoms: O_21  and  C_10 
REMARK   12  A    between atoms: C_11  and  O_22 
ROOT
HETATM    1  C   UNK N   1      23.043  18.535   4.724  0.00  0.00     0.146 C 
HETATM    2  C   UNK N   1      23.151  16.989   4.701  0.00  0.00     0.183 C 
HETATM    3  C   UNK N   1      21.634  19.094   4.339  0.00  0.00     0.182 C 
HETATM    4  C   UNK N   1      21.796  16.361   4.375  0.00  0.00     0.274 C 
HETATM    5  C   UNK N   1      20.589  17.046   5.089  0.00  0.00     0.285 C 
HETATM    6  F   UNK N   1      21.810  14.990   4.578  0.00  0.00    -0.240 F 
HETATM    7  O   UNK N   1      20.650  18.476   5.157  0.00  0.00    -0.334 OA
ENDROOT
BRANCH   3   8
HETATM    8  C   UNK N   1      21.090  19.202   2.872  0.00  0.00     0.180 C 
BRANCH   8   9
HETATM    9  C   UNK N   1      21.573  20.404   2.035  0.00  0.00     0.173 C 
BRANCH   9  10
HETATM   10  C   UNK N   1      20.473  20.988   1.154  0.00  0.00     0.198 C 
BRANCH  10  11
HETATM   11  O   UNK N   1      20.625  20.548  -0.163  0.00  0.00    -0.398 OA
HETATM   12  H   UNK N   1      21.494  20.438  -0.581  0.00  0.00     0.209 HD
ENDBRANCH  10  11
ENDBRANCH   9  10
BRANCH   9  13
HETATM   13  O   UNK N   1      22.099  21.393   2.868  0.00  0.00    -0.391 OA
HETATM   14  H   UNK N   1      21.820  21.907   3.641  0.00  0.00     0.210 HD
ENDBRANCH   9  13
ENDBRANCH   8   9
BRANCH   8  15
HETATM   15  O   UNK N   1      19.696  19.274   2.959  0.00  0.00    -0.390 OA
HETATM   16  H   UNK N   1      19.109  19.969   2.621  0.00  0.00     0.210 HD
ENDBRANCH   8  15
ENDBRANCH   3   8
BRANCH   1  17
HETATM   17  N   UNK N   1      24.116  19.189   3.994  0.00  0.00    -0.365 N 
HETATM   18  C   UNK N   1      25.225  19.570   4.532  0.00  0.00     0.107 C 
HETATM   19  C   UNK N   1      26.263  20.225   3.688  0.00  0.00     0.097 C 
ATOM     20  HN  UNK N   1      23.984  19.357   2.996  1.00  0.00     0.161 HD
BRANCH  18  21
HETATM   21  O   UNK N   1      25.455  19.402   5.850  0.00  0.00    -0.350 OA
HETATM   22  H   UNK N   1      25.104  19.994   6.486  0.00  0.00     0.219 HD
ENDBRANCH  18  21
ENDBRANCH   1  17
BRANCH   2  23
HETATM   23  O   UNK N   1      23.625  16.529   5.933  0.00  0.00    -0.390 OA
HETATM   24  H   UNK N   1      23.322  16.851   6.796  0.00  0.00     0.210 HD
ENDBRANCH   2  23
BRANCH   5  25
HETATM   25  C   UNK N   1      20.434  16.541   6.507  0.00  0.00     0.208 C 
HETATM   26  O   UNK N   1      19.644  15.647   6.759  0.00  0.00    -0.646 OA
BRANCH  25  27
HETATM   27  O   UNK N   1      21.140  17.099   7.509  0.00  0.00    -0.772 OA
HETATM   28  H   UNK N   1      20.877  17.302   8.385  0.00  0.00     0.167 HD
ENDBRANCH  25  27
ENDBRANCH   5  25
BRANCH   5  29
HETATM   29  O   UNK N   1      19.437  16.695   4.373  0.00  0.00    -0.355 OA
HETATM   30  H   UNK N   1      18.525  16.740   4.700  0.00  0.00     0.213 HD
ENDBRANCH   5  29
TORSDOF 12
ENDMDL
MODEL 2
REMARK VINA RESULT:      -5.7     10.881     13.717
REMARK  12 active torsions:
REMARK  status: ('A' for Active; 'I' for Inactive)
REMARK    1  A    between atoms: C_4  and  C_2 
REMARK    2  A    between atoms: O_15  and  C_2 
REMARK    3  A    between atoms: O_16  and  C_3 
REMARK    4  A    between atoms: C_6  and  C_4 
REMARK    5  A    between atoms: C_4  and  O_17 
REMARK    6  A    between atoms: C_5  and  N_13 
REMARK    7  A    between atoms: C_8  and  C_6 
REMARK    8  A    between atoms: C_6  and  O_18 
REMARK    9  A    between atoms: C_7  and  O_19 
REMARK   10  A    between atoms: C_11  and  C_10 
REMARK   11  A    between atoms: O_21  and  C_10 
REMARK   12  A    between atoms: C_11  and  O_22 
ROOT
HETATM    1  C   UNK N   1      34.751  15.451   7.909  0.00  0.00     0.146 C 
HETATM    2  C   UNK N   1      35.467  14.110   8.209  0.00  0.00     0.183 C 
HETATM    3  C   UNK N   1      33.680  15.867   8.969  0.00  0.00     0.182 C 
HETATM    4  C   UNK N   1      34.999  13.539   9.547  0.00  0.00     0.274 C 
HETATM    5  C   UNK N   1      34.841  14.607  10.675  0.00  0.00     0.285 C 
HETATM    6  F   UNK N   1      35.787  12.472   9.949  0.00  0.00    -0.240 F 
HETATM    7  O   UNK N   1      34.276  15.856  10.260  0.00  0.00    -0.334 OA
ENDROOT
BRANCH   3   8
HETATM    8  C   UNK N   1      32.237  15.261   9.062  0.00  0.00     0.180 C 
BRANCH   8   9
HETATM    9  C   UNK N   1      31.136  15.949   8.231  0.00  0.00     0.173 C 
BRANCH   9  10
HETATM   10  C   UNK N   1      31.274  17.469   8.213  0.00  0.00     0.198 C 
BRANCH  10  11
HETATM   11  O   UNK N   1      30.829  18.009   9.421  0.00  0.00    -0.398 OA
HETATM   12  H   UNK N   1      30.073  18.615   9.477  0.00  0.00     0.209 HD
ENDBRANCH  10  11
ENDBRANCH   9  10
BRANCH   9  13
HETATM   13  O   UNK N   1      31.130  15.449   6.928  0.00  0.00    -0.391 OA
HETATM   14  H   UNK N   1      30.490  15.308   6.213  0.00  0.00     0.210 HD
ENDBRANCH   9  13
ENDBRANCH   8   9
BRANCH   8  15
HETATM   15  O   UNK N   1      31.857  15.319  10.407  0.00  0.00    -0.390 OA
HETATM   16  H   UNK N   1      30.961  15.279  10.780  0.00  0.00     0.210 HD
ENDBRANCH   8  15
ENDBRANCH   3   8
BRANCH   1  17
HETATM   17  N   UNK N   1      34.243  15.530   6.550  0.00  0.00    -0.365 N 
HETATM   18  C   UNK N   1      34.102  16.633   5.896  0.00  0.00     0.107 C 
HETATM   19  C   UNK N   1      33.579  16.599   4.502  0.00  0.00     0.097 C 
ATOM     20  HN  UNK N   1      33.982  14.660   6.085  1.00  0.00     0.161 HD
BRANCH  18  21
HETATM   21  O   UNK N   1      34.403  17.821   6.460  0.00  0.00    -0.350 OA
HETATM   22  H   UNK N   1      33.753  18.486   6.572  0.00  0.00     0.219 HD
ENDBRANCH  18  21
ENDBRANCH   1  17
BRANCH   2  23
HETATM   23  O   UNK N   1      36.852  14.303   8.213  0.00  0.00    -0.390 OA
HETATM   24  H   UNK N   1      37.365  14.631   7.458  0.00  0.00     0.210 HD
ENDBRANCH   2  23
BRANCH   5  25
HETATM   25  C   UNK N   1      36.173  14.919  11.323  0.00  0.00     0.208 C 
HETATM   26  O   UNK N   1      36.528  14.316  12.322  0.00  0.00    -0.646 OA
BRANCH  25  27
HETATM   27  O   UNK N   1      36.963  15.889  10.823  0.00  0.00    -0.772 OA
HETATM   28  H   UNK N   1      37.291  16.664  11.235  0.00  0.00     0.167 HD
ENDBRANCH  25  27
ENDBRANCH   5  25
BRANCH   5  29
HETATM   29  O   UNK N   1      34.002  14.053  11.650  0.00  0.00    -0.355 OA
HETATM   30  H   UNK N   1      34.193  13.272  12.192  0.00  0.00     0.213 HD
ENDBRANCH   5  29
TORSDOF 12
ENDMDL
MODEL 3
REMARK VINA RESULT:      -5.6     13.990     16.474
REMARK  12 active torsions:
REMARK  status: ('A' for Active; 'I' for Inactive)
REMARK    1  A    between atoms: C_4  and  C_2 
REMARK    2  A    between atoms: O_15  and  C_2 
REMARK    3  A    between atoms: O_16  and  C_3 
REMARK    4  A    between atoms: C_6  and  C_4 
REMARK    5  A    between atoms: C_4  and  O_17 
REMARK    6  A    between atoms: C_5  and  N_13 
REMARK    7  A    between atoms: C_8  and  C_6 
REMARK    8  A    between atoms: C_6  and  O_18 
REMARK    9  A    between atoms: C_7  and  O_19 
REMARK   10  A    between atoms: C_11  and  C_10 
REMARK   11  A    between atoms: O_21  and  C_10 
REMARK   12  A    between atoms: C_11  and  O_22 
ROOT
HETATM    1  C   UNK N   1      34.309  12.967  10.566  0.00  0.00     0.146 C 
HETATM    2  C   UNK N   1      34.968  13.355   9.217  0.00  0.00     0.183 C 
HETATM    3  C   UNK N   1      34.928  13.670  11.817  0.00  0.00     0.182 C 
HETATM    4  C   UNK N   1      36.043  14.419   9.432  0.00  0.00     0.274 C 
HETATM    5  C   UNK N   1      35.643  15.532  10.450  0.00  0.00     0.285 C 
HETATM    6  F   UNK N   1      36.480  14.949   8.228  0.00  0.00    -0.240 F 
HETATM    7  O   UNK N   1      34.931  15.075  11.607  0.00  0.00    -0.334 OA
ENDROOT
BRANCH   3   8
HETATM    8  C   UNK N   1      36.276  13.248  12.498  0.00  0.00     0.180 C 
BRANCH   8   9
HETATM    9  C   UNK N   1      36.215  12.082  13.505  0.00  0.00     0.173 C 
BRANCH   9  10
HETATM   10  C   UNK N   1      34.910  12.055  14.296  0.00  0.00     0.198 C 
BRANCH  10  11
HETATM   11  O   UNK N   1      34.811  13.189  15.104  0.00  0.00    -0.398 OA
HETATM   12  H   UNK N   1      35.561  13.538  15.610  0.00  0.00     0.209 HD
ENDBRANCH  10  11
ENDBRANCH   9  10
BRANCH   9  13
HETATM   13  O   UNK N   1      36.407  10.866  12.849  0.00  0.00    -0.391 OA
HETATM   14  H   UNK N   1      35.974  10.000  12.795  0.00  0.00     0.210 HD
ENDBRANCH   9  13
ENDBRANCH   8   9
BRANCH   8  15
HETATM   15  O   UNK N   1      36.761  14.373  13.174  0.00  0.00    -0.390 OA
HETATM   16  H   UNK N   1      36.626  14.618  14.103  0.00  0.00     0.210 HD
ENDBRANCH   8  15
ENDBRANCH   3   8
BRANCH   1  17
HETATM   17  N   UNK N   1      34.184  11.531  10.742  0.00  0.00    -0.365 N 
HETATM   18  C   UNK N   1      33.205  10.830  10.277  0.00  0.00     0.107 C 
HETATM   19  C   UNK N   1      33.179   9.359  10.510  0.00  0.00     0.097 C 
ATOM     20  HN  UNK N   1      34.913  11.047  11.266  1.00  0.00     0.161 HD
BRANCH  18  21
HETATM   21  O   UNK N   1      32.194  11.409   9.597  0.00  0.00    -0.350 OA
HETATM   22  H   UNK N   1      32.281  12.267   9.231  0.00  0.00     0.219 HD
ENDBRANCH  18  21
ENDBRANCH   1  17
BRANCH   2  23
HETATM   23  O   UNK N   1      33.991  13.812   8.326  0.00  0.00    -0.390 OA
HETATM   24  H   UNK N   1      33.050  13.907   8.540  0.00  0.00     0.210 HD
ENDBRANCH   2  23
BRANCH   5  25
HETATM   25  C   UNK N   1      34.785  16.592   9.793  0.00  0.00     0.208 C 
HETATM   26  O   UNK N   1      35.263  17.674   9.496  0.00  0.00    -0.646 OA
BRANCH  25  27
HETATM   27  O   UNK N   1      33.477  16.364   9.564  0.00  0.00    -0.772 OA
HETATM   28  H   UNK N   1      32.818  16.036  10.143  0.00  0.00     0.167 HD
ENDBRANCH  25  27
ENDBRANCH   5  25
BRANCH   5  29
HETATM   29  O   UNK N   1      36.829  16.139  10.882  0.00  0.00    -0.355 OA
HETATM   30  H   UNK N   1      37.536  15.713  11.393  0.00  0.00     0.213 HD
ENDBRANCH   5  29
TORSDOF 12
ENDMDL
MODEL 4
REMARK VINA RESULT:      -5.5     10.940     14.135
REMARK  12 active torsions:
REMARK  status: ('A' for Active; 'I' for Inactive)
REMARK    1  A    between atoms: C_4  and  C_2 
REMARK    2  A    between atoms: O_15  and  C_2 
REMARK    3  A    between atoms: O_16  and  C_3 
REMARK    4  A    between atoms: C_6  and  C_4 
REMARK    5  A    between atoms: C_4  and  O_17 
REMARK    6  A    between atoms: C_5  and  N_13 
REMARK    7  A    between atoms: C_8  and  C_6 
REMARK    8  A    between atoms: C_6  and  O_18 
REMARK    9  A    between atoms: C_7  and  O_19 
REMARK   10  A    between atoms: C_11  and  C_10 
REMARK   11  A    between atoms: O_21  and  C_10 
REMARK   12  A    between atoms: C_11  and  O_22 
ROOT
HETATM    1  C   UNK N   1      34.813  14.880   7.806  0.00  0.00     0.146 C 
HETATM    2  C   UNK N   1      34.827  16.307   7.199  0.00  0.00     0.183 C 
HETATM    3  C   UNK N   1      33.779  14.675   8.960  0.00  0.00     0.182 C 
HETATM    4  C   UNK N   1      33.742  17.172   7.839  0.00  0.00     0.274 C 
HETATM    5  C   UNK N   1      32.385  16.433   8.059  0.00  0.00     0.285 C 
HETATM    6  F   UNK N   1      33.578  18.368   7.158  0.00  0.00    -0.240 F 
HETATM    7  O   UNK N   1      32.493  15.077   8.508  0.00  0.00    -0.334 OA
ENDROOT
BRANCH   3   8
HETATM    8  C   UNK N   1      33.984  15.164  10.435  0.00  0.00     0.180 C 
BRANCH   8   9
HETATM    9  C   UNK N   1      35.035  14.417  11.280  0.00  0.00     0.173 C 
BRANCH   9  10
HETATM   10  C   UNK N   1      36.094  15.348  11.862  0.00  0.00     0.198 C 
BRANCH  10  11
HETATM   11  O   UNK N   1      36.831  15.943  10.836  0.00  0.00    -0.398 OA
HETATM   12  H   UNK N   1      36.985  16.900  10.789  0.00  0.00     0.209 HD
ENDBRANCH  10  11
ENDBRANCH   9  10
BRANCH   9  13
HETATM   13  O   UNK N   1      34.412  13.697  12.300  0.00  0.00    -0.391 OA
HETATM   14  H   UNK N   1      34.602  12.927  12.859  0.00  0.00     0.210 HD
ENDBRANCH   9  13
ENDBRANCH   8   9
BRANCH   8  15
HETATM   15  O   UNK N   1      32.749  15.040  11.080  0.00  0.00    -0.390 OA
HETATM   16  H   UNK N   1      32.554  15.139  12.026  0.00  0.00     0.210 HD
ENDBRANCH   8  15
ENDBRANCH   3   8
BRANCH   1  17
HETATM   17  N   UNK N   1      36.139  14.402   8.158  0.00  0.00    -0.365 N 
HETATM   18  C   UNK N   1      36.967  13.885   7.314  0.00  0.00     0.107 C 
HETATM   19  C   UNK N   1      38.306  13.433   7.782  0.00  0.00     0.097 C 
ATOM     20  HN  UNK N   1      36.433  14.479   9.132  1.00  0.00     0.161 HD
BRANCH  18  21
HETATM   21  O   UNK N   1      36.633  13.729   6.016  0.00  0.00    -0.350 OA
HETATM   22  H   UNK N   1      36.112  14.366   5.567  0.00  0.00     0.219 HD
ENDBRANCH  18  21
ENDBRANCH   1  17
BRANCH   2  23
HETATM   23  O   UNK N   1      34.648  16.235   5.814  0.00  0.00    -0.390 OA
HETATM   24  H   UNK N   1      34.816  15.446   5.276  0.00  0.00     0.210 HD
ENDBRANCH   2  23
BRANCH   5  25
HETATM   25  C   UNK N   1      31.561  16.415   6.790  0.00  0.00     0.208 C 
HETATM   26  O   UNK N   1      30.695  17.253   6.605  0.00  0.00    -0.646 OA
BRANCH  25  27
HETATM   27  O   UNK N   1      31.751  15.450   5.868  0.00  0.00    -0.772 OA
HETATM   28  H   UNK N   1      32.098  14.586   5.972  0.00  0.00     0.167 HD
ENDBRANCH  25  27
ENDBRANCH   5  25
BRANCH   5  29
HETATM   29  O   UNK N   1      31.677  17.156   9.027  0.00  0.00    -0.355 OA
HETATM   30  H   UNK N   1      32.063  17.667   9.756  0.00  0.00     0.213 HD
ENDBRANCH   5  29
TORSDOF 12
ENDMDL
MODEL 5
REMARK VINA RESULT:      -5.5      2.443      3.782
REMARK  12 active torsions:
REMARK  status: ('A' for Active; 'I' for Inactive)
REMARK    1  A    between atoms: C_4  and  C_2 
REMARK    2  A    between atoms: O_15  and  C_2 
REMARK    3  A    between atoms: O_16  and  C_3 
REMARK    4  A    between atoms: C_6  and  C_4 
REMARK    5  A    between atoms: C_4  and  O_17 
REMARK    6  A    between atoms: C_5  and  N_13 
REMARK    7  A    between atoms: C_8  and  C_6 
REMARK    8  A    between atoms: C_6  and  O_18 
REMARK    9  A    between atoms: C_7  and  O_19 
REMARK   10  A    between atoms: C_11  and  C_10 
REMARK   11  A    between atoms: O_21  and  C_10 
REMARK   12  A    between atoms: C_11  and  O_22 
ROOT
HETATM    1  C   UNK N   1      20.730  17.865   4.662  0.00  0.00     0.146 C 
HETATM    2  C   UNK N   1      21.838  17.445   5.661  0.00  0.00     0.183 C 
HETATM    3  C   UNK N   1      19.706  16.737   4.314  0.00  0.00     0.182 C 
HETATM    4  C   UNK N   1      21.612  16.011   6.139  0.00  0.00     0.274 C 
HETATM    5  C   UNK N   1      20.120  15.669   6.443  0.00  0.00     0.285 C 
HETATM    6  F   UNK N   1      22.445  15.693   7.201  0.00  0.00    -0.240 F 
HETATM    7  O   UNK N   1      19.168  16.210   5.519  0.00  0.00    -0.334 OA
ENDROOT
BRANCH   3   8
HETATM    8  C   UNK N   1      19.984  15.560   3.316  0.00  0.00     0.180 C 
BRANCH   8   9
HETATM    9  C   UNK N   1      20.112  15.925   1.823  0.00  0.00     0.173 C 
BRANCH   9  10
HETATM   10  C   UNK N   1      19.713  14.777   0.900  0.00  0.00     0.198 C 
BRANCH  10  11
HETATM   11  O   UNK N   1      18.377  14.911   0.513  0.00  0.00    -0.398 OA
HETATM   12  H   UNK N   1      18.078  15.594  -0.108  0.00  0.00     0.209 HD
ENDBRANCH  10  11
ENDBRANCH   9  10
BRANCH   9  13
HETATM   13  O   UNK N   1      19.354  17.061   1.537  0.00  0.00    -0.391 OA
HETATM   14  H   UNK N   1      18.823  17.406   0.802  0.00  0.00     0.210 HD
ENDBRANCH   9  13
ENDBRANCH   8   9
BRANCH   8  15
HETATM   15  O   UNK N   1      18.924  14.656   3.446  0.00  0.00    -0.390 OA
HETATM   16  H   UNK N   1      18.958  13.686   3.431  0.00  0.00     0.210 HD
ENDBRANCH   8  15
ENDBRANCH   3   8
BRANCH   1  17
HETATM   17  N   UNK N   1      21.256  18.521   3.476  0.00  0.00    -0.365 N 
HETATM   18  C   UNK N   1      21.053  19.763   3.189  0.00  0.00     0.107 C 
HETATM   19  C   UNK N   1      21.646  20.336   1.950  0.00  0.00     0.097 C 
ATOM     20  HN  UNK N   1      21.819  17.966   2.831  1.00  0.00     0.161 HD
BRANCH  18  21
HETATM   21  O   UNK N   1      20.296  20.547   3.984  0.00  0.00    -0.350 OA
HETATM   22  H   UNK N   1      20.282  21.478   3.879  0.00  0.00     0.219 HD
ENDBRANCH  18  21
ENDBRANCH   1  17
BRANCH   2  23
HETATM   23  O   UNK N   1      21.861  18.329   6.743  0.00  0.00    -0.390 OA
HETATM   24  H   UNK N   1      21.188  19.005   6.918  0.00  0.00     0.210 HD
ENDBRANCH   2  23
BRANCH   5  25
HETATM   25  C   UNK N   1      19.719  16.147   7.822  0.00  0.00     0.208 C 
HETATM   26  O   UNK N   1      19.510  15.345   8.716  0.00  0.00    -0.646 OA
BRANCH  25  27
HETATM   27  O   UNK N   1      19.554  17.462   8.065  0.00  0.00    -0.772 OA
HETATM   28  H   UNK N   1      20.145  18.175   7.923  0.00  0.00     0.167 HD
ENDBRANCH  25  27
ENDBRANCH   5  25
BRANCH   5  29
HETATM   29  O   UNK N   1      20.006  14.273   6.416  0.00  0.00    -0.355 OA
HETATM   30  H   UNK N   1      20.080  13.678   7.179  0.00  0.00     0.213 HD
ENDBRANCH   5  29
TORSDOF 12
ENDMDL
MODEL 6
REMARK VINA RESULT:      -5.4      7.098     10.402
REMARK  12 active torsions:
REMARK  status: ('A' for Active; 'I' for Inactive)
REMARK    1  A    between atoms: C_4  and  C_2 
REMARK    2  A    between atoms: O_15  and  C_2 
REMARK    3  A    between atoms: O_16  and  C_3 
REMARK    4  A    between atoms: C_6  and  C_4 
REMARK    5  A    between atoms: C_4  and  O_17 
REMARK    6  A    between atoms: C_5  and  N_13 
REMARK    7  A    between atoms: C_8  and  C_6 
REMARK    8  A    between atoms: C_6  and  O_18 
REMARK    9  A    between atoms: C_7  and  O_19 
REMARK   10  A    between atoms: C_11  and  C_10 
REMARK   11  A    between atoms: O_21  and  C_10 
REMARK   12  A    between atoms: C_11  and  O_22 
ROOT
HETATM    1  C   UNK N   1      30.566  17.039   6.163  0.00  0.00     0.146 C 
HETATM    2  C   UNK N   1      31.313  15.682   6.096  0.00  0.00     0.183 C 
HETATM    3  C   UNK N   1      30.574  17.715   7.572  0.00  0.00     0.182 C 
HETATM    4  C   UNK N   1      31.962  15.359   7.441  0.00  0.00     0.274 C 
HETATM    5  C   UNK N   1      32.637  16.585   8.132  0.00  0.00     0.285 C 
HETATM    6  F   UNK N   1      32.824  14.278   7.343  0.00  0.00    -0.240 F 
HETATM    7  O   UNK N   1      31.916  17.819   8.030  0.00  0.00    -0.334 OA
ENDROOT
BRANCH   3   8
HETATM    8  C   UNK N   1      29.653  17.292   8.768  0.00  0.00     0.180 C 
BRANCH   8   9
HETATM    9  C   UNK N   1      28.195  17.793   8.738  0.00  0.00     0.173 C 
BRANCH   9  10
HETATM   10  C   UNK N   1      28.053  19.151   8.055  0.00  0.00     0.198 C 
BRANCH  10  11
HETATM   11  O   UNK N   1      27.339  19.020   6.862  0.00  0.00    -0.398 OA
HETATM   12  H   UNK N   1      26.392  19.219   6.795  0.00  0.00     0.209 HD
ENDBRANCH  10  11
ENDBRANCH   9  10
BRANCH   9  13
HETATM   13  O   UNK N   1      27.373  16.852   8.116  0.00  0.00    -0.391 OA
HETATM   14  H   UNK N   1      26.749  16.157   8.376  0.00  0.00     0.210 HD
ENDBRANCH   9  13
ENDBRANCH   8   9
BRANCH   8  15
HETATM   15  O   UNK N   1      30.250  17.780   9.935  0.00  0.00    -0.390 OA
HETATM   16  H   UNK N   1      31.103  17.527  10.323  0.00  0.00     0.210 HD
ENDBRANCH   8  15
ENDBRANCH   3   8
BRANCH   1  17
HETATM   17  N   UNK N   1      29.235  16.982   5.583  0.00  0.00    -0.365 N 
HETATM   18  C   UNK N   1      28.996  17.069   4.318  0.00  0.00     0.107 C 
HETATM   19  C   UNK N   1      27.591  16.992   3.830  0.00  0.00     0.097 C 
ATOM     20  HN  UNK N   1      28.442  16.868   6.215  1.00  0.00     0.161 HD
BRANCH  18  21
HETATM   21  O   UNK N   1      29.996  17.247   3.430  0.00  0.00    -0.350 OA
HETATM   22  H   UNK N   1      30.231  18.101   3.125  0.00  0.00     0.219 HD
ENDBRANCH  18  21
ENDBRANCH   1  17
BRANCH   2  23
HETATM   23  O   UNK N   1      32.273  15.719   5.080  0.00  0.00    -0.390 OA
HETATM   24  H   UNK N   1      32.074  15.826   4.137  0.00  0.00     0.210 HD
ENDBRANCH   2  23
BRANCH   5  25
HETATM   25  C   UNK N   1      34.021  16.835   7.572  0.00  0.00     0.208 C 
HETATM   26  O   UNK N   1      34.992  16.284   8.062  0.00  0.00    -0.646 OA
BRANCH  25  27
HETATM   27  O   UNK N   1      34.197  17.695   6.551  0.00  0.00    -0.772 OA
HETATM   28  H   UNK N   1      33.561  18.177   6.059  0.00  0.00     0.167 HD
ENDBRANCH  25  27
ENDBRANCH   5  25
BRANCH   5  29
HETATM   29  O   UNK N   1      32.768  16.270   9.490  0.00  0.00    -0.355 OA
HETATM   30  H   UNK N   1      33.432  16.628  10.100  0.00  0.00     0.213 HD
ENDBRANCH   5  29
TORSDOF 12
ENDMDL
MODEL 7
REMARK VINA RESULT:      -5.2     12.203     13.357
REMARK  12 active torsions:
REMARK  status: ('A' for Active; 'I' for Inactive)
REMARK    1  A    between atoms: C_4  and  C_2 
REMARK    2  A    between atoms: O_15  and  C_2 
REMARK    3  A    between atoms: O_16  and  C_3 
REMARK    4  A    between atoms: C_6  and  C_4 
REMARK    5  A    between atoms: C_4  and  O_17 
REMARK    6  A    between atoms: C_5  and  N_13 
REMARK    7  A    between atoms: C_8  and  C_6 
REMARK    8  A    between atoms: C_6  and  O_18 
REMARK    9  A    between atoms: C_7  and  O_19 
REMARK   10  A    between atoms: C_11  and  C_10 
REMARK   11  A    between atoms: O_21  and  C_10 
REMARK   12  A    between atoms: C_11  and  O_22 
ROOT
HETATM    1  C   UNK N   1      28.996  25.202  -4.267  0.00  0.00     0.146 C 
HETATM    2  C   UNK N   1      30.533  25.406  -4.230  0.00  0.00     0.183 C 
HETATM    3  C   UNK N   1      28.539  23.795  -4.769  0.00  0.00     0.182 C 
HETATM    4  C   UNK N   1      31.254  24.119  -4.630  0.00  0.00     0.274 C 
HETATM    5  C   UNK N   1      30.626  22.824  -4.027  0.00  0.00     0.285 C 
HETATM    6  F   UNK N   1      32.615  24.202  -4.381  0.00  0.00    -0.240 F 
HETATM    7  O   UNK N   1      29.193  22.793  -4.002  0.00  0.00    -0.334 OA
ENDROOT
BRANCH   3   8
HETATM    8  C   UNK N   1      28.508  23.353  -6.274  0.00  0.00     0.180 C 
BRANCH   8   9
HETATM    9  C   UNK N   1      27.199  23.606  -7.049  0.00  0.00     0.173 C 
BRANCH   9  10
HETATM   10  C   UNK N   1      25.955  23.293  -6.222  0.00  0.00     0.198 C 
BRANCH  10  11
HETATM   11  O   UNK N   1      25.238  24.463  -5.966  0.00  0.00    -0.398 OA
HETATM   12  H   UNK N   1      24.301  24.564  -6.198  0.00  0.00     0.209 HD
ENDBRANCH  10  11
ENDBRANCH   9  10
BRANCH   9  13
HETATM   13  O   UNK N   1      27.155  24.924  -7.506  0.00  0.00    -0.391 OA
HETATM   14  H   UNK N   1      27.507  25.789  -7.245  0.00  0.00     0.210 HD
ENDBRANCH   9  13
ENDBRANCH   8   9
BRANCH   8  15
HETATM   15  O   UNK N   1      28.762  21.978  -6.300  0.00  0.00    -0.390 OA
HETATM   16  H   UNK N   1      29.048  21.435  -7.053  0.00  0.00     0.210 HD
ENDBRANCH   8  15
ENDBRANCH   3   8
BRANCH   1  17
HETATM   17  N   UNK N   1      28.298  26.284  -4.941  0.00  0.00    -0.365 N 
HETATM   18  C   UNK N   1      27.136  26.722  -4.588  0.00  0.00     0.107 C 
HETATM   19  C   UNK N   1      26.513  27.842  -5.345  0.00  0.00     0.097 C 
ATOM     20  HN  UNK N   1      28.753  26.723  -5.741  1.00  0.00     0.161 HD
BRANCH  18  21
HETATM   21  O   UNK N   1      26.467  26.169  -3.556  0.00  0.00    -0.350 OA
HETATM   22  H   UNK N   1      26.183  25.276  -3.581  0.00  0.00     0.219 HD
ENDBRANCH  18  21
ENDBRANCH   1  17
BRANCH   2  23
HETATM   23  O   UNK N   1      30.926  25.816  -2.953  0.00  0.00    -0.390 OA
HETATM   24  H   UNK N   1      31.719  25.501  -2.492  0.00  0.00     0.210 HD
ENDBRANCH   2  23
BRANCH   5  25
HETATM   25  C   UNK N   1      31.098  22.596  -2.607  0.00  0.00     0.208 C 
HETATM   26  O   UNK N   1      32.053  21.872  -2.384  0.00  0.00    -0.646 OA
BRANCH  25  27
HETATM   27  O   UNK N   1      30.446  23.164  -1.574  0.00  0.00    -0.772 OA
HETATM   28  H   UNK N   1      30.788  23.590  -0.813  0.00  0.00     0.167 HD
ENDBRANCH  25  27
ENDBRANCH   5  25
BRANCH   5  29
HETATM   29  O   UNK N   1      31.069  21.750  -4.810  0.00  0.00    -0.355 OA
HETATM   30  H   UNK N   1      31.825  21.174  -4.616  0.00  0.00     0.213 HD
ENDBRANCH   5  29
TORSDOF 12
ENDMDL
MODEL 8
REMARK VINA RESULT:      -5.2      8.999     11.840
REMARK  12 active torsions:
REMARK  status: ('A' for Active; 'I' for Inactive)
REMARK    1  A    between atoms: C_4  and  C_2 
REMARK    2  A    between atoms: O_15  and  C_2 
REMARK    3  A    between atoms: O_16  and  C_3 
REMARK    4  A    between atoms: C_6  and  C_4 
REMARK    5  A    between atoms: C_4  and  O_17 
REMARK    6  A    between atoms: C_5  and  N_13 
REMARK    7  A    between atoms: C_8  and  C_6 
REMARK    8  A    between atoms: C_6  and  O_18 
REMARK    9  A    between atoms: C_7  and  O_19 
REMARK   10  A    between atoms: C_11  and  C_10 
REMARK   11  A    between atoms: O_21  and  C_10 
REMARK   12  A    between atoms: C_11  and  O_22 
ROOT
HETATM    1  C   UNK N   1      31.406  16.888   6.592  0.00  0.00     0.146 C 
HETATM    2  C   UNK N   1      30.734  15.526   6.280  0.00  0.00     0.183 C 
HETATM    3  C   UNK N   1      32.944  16.931   6.320  0.00  0.00     0.182 C 
HETATM    4  C   UNK N   1      31.750  14.549   5.691  0.00  0.00     0.274 C 
HETATM    5  C   UNK N   1      32.724  15.192   4.654  0.00  0.00     0.285 C 
HETATM    6  F   UNK N   1      31.132  13.414   5.189  0.00  0.00    -0.240 F 
HETATM    7  O   UNK N   1      33.192  16.505   4.987  0.00  0.00    -0.334 OA
ENDROOT
BRANCH   3   8
HETATM    8  C   UNK N   1      34.033  16.318   7.267  0.00  0.00     0.180 C 
BRANCH   8   9
HETATM    9  C   UNK N   1      34.457  17.166   8.484  0.00  0.00     0.173 C 
BRANCH   9  10
HETATM   10  C   UNK N   1      34.509  18.659   8.172  0.00  0.00     0.198 C 
BRANCH  10  11
HETATM   11  O   UNK N   1      35.553  19.263   8.876  0.00  0.00    -0.398 OA
HETATM   12  H   UNK N   1      35.890  18.912   9.716  0.00  0.00     0.209 HD
ENDBRANCH  10  11
ENDBRANCH   9  10
BRANCH   9  13
HETATM   13  O   UNK N   1      33.602  16.927   9.560  0.00  0.00    -0.391 OA
HETATM   14  H   UNK N   1      32.785  17.299   9.927  0.00  0.00     0.210 HD
ENDBRANCH   9  13
ENDBRANCH   8   9
BRANCH   8  15
HETATM   15  O   UNK N   1      35.171  16.091   6.486  0.00  0.00    -0.390 OA
HETATM   16  H   UNK N   1      35.235  15.611   5.645  0.00  0.00     0.210 HD
ENDBRANCH   8  15
ENDBRANCH   3   8
BRANCH   1  17
HETATM   17  N   UNK N   1      31.062  17.400   7.908  0.00  0.00    -0.365 N 
HETATM   18  C   UNK N   1      29.944  17.984   8.184  0.00  0.00     0.107 C 
HETATM   19  C   UNK N   1      29.691  18.466   9.570  0.00  0.00     0.097 C 
ATOM     20  HN  UNK N   1      31.745  17.294   8.657  1.00  0.00     0.161 HD
BRANCH  18  21
HETATM   21  O   UNK N   1      29.007  18.181   7.234  0.00  0.00    -0.350 OA
HETATM   22  H   UNK N   1      28.262  18.727   7.391  0.00  0.00     0.219 HD
ENDBRANCH  18  21
ENDBRANCH   1  17
BRANCH   2  23
HETATM   23  O   UNK N   1      29.664  15.716   5.401  0.00  0.00    -0.390 OA
HETATM   24  H   UNK N   1      28.735  15.538   5.615  0.00  0.00     0.210 HD
ENDBRANCH   2  23
BRANCH   5  25
HETATM   25  C   UNK N   1      32.083  15.284   3.286  0.00  0.00     0.208 C 
HETATM   26  O   UNK N   1      32.325  14.445   2.435  0.00  0.00    -0.646 OA
BRANCH  25  27
HETATM   27  O   UNK N   1      31.269  16.314   2.984  0.00  0.00    -0.772 OA
HETATM   28  H   UNK N   1      30.725  16.445   2.232  0.00  0.00     0.167 HD
ENDBRANCH  25  27
ENDBRANCH   5  25
BRANCH   5  29
HETATM   29  O   UNK N   1      33.837  14.347   4.557  0.00  0.00    -0.355 OA
HETATM   30  H   UNK N   1      34.723  14.600   4.256  0.00  0.00     0.213 HD
ENDBRANCH   5  29
TORSDOF 12
ENDMDL
MODEL 9
REMARK VINA RESULT:      -5.2     11.696     14.079
REMARK  12 active torsions:
REMARK  status: ('A' for Active; 'I' for Inactive)
REMARK    1  A    between atoms: C_4  and  C_2 
REMARK    2  A    between atoms: O_15  and  C_2 
REMARK    3  A    between atoms: O_16  and  C_3 
REMARK    4  A    between atoms: C_6  and  C_4 
REMARK    5  A    between atoms: C_4  and  O_17 
REMARK    6  A    between atoms: C_5  and  N_13 
REMARK    7  A    between atoms: C_8  and  C_6 
REMARK    8  A    between atoms: C_6  and  O_18 
REMARK    9  A    between atoms: C_7  and  O_19 
REMARK   10  A    between atoms: C_11  and  C_10 
REMARK   11  A    between atoms: O_21  and  C_10 
REMARK   12  A    between atoms: C_11  and  O_22 
ROOT
HETATM    1  C   UNK N   1      34.762  15.298   9.266  0.00  0.00     0.146 C 
HETATM    2  C   UNK N   1      33.788  16.494   9.426  0.00  0.00     0.183 C 
HETATM    3  C   UNK N   1      34.312  14.230   8.217  0.00  0.00     0.182 C 
HETATM    4  C   UNK N   1      32.629  16.378   8.437  0.00  0.00     0.274 C 
HETATM    5  C   UNK N   1      33.053  15.906   7.011  0.00  0.00     0.285 C 
HETATM    6  F   UNK N   1      31.878  17.542   8.397  0.00  0.00    -0.240 F 
HETATM    7  O   UNK N   1      34.049  14.876   6.979  0.00  0.00    -0.334 OA
ENDROOT
BRANCH   3   8
HETATM    8  C   UNK N   1      33.214  13.140   8.472  0.00  0.00     0.180 C 
BRANCH   8   9
HETATM    9  C   UNK N   1      33.630  11.910   9.303  0.00  0.00     0.173 C 
BRANCH   9  10
HETATM   10  C   UNK N   1      33.109  10.600   8.718  0.00  0.00     0.198 C 
BRANCH  10  11
HETATM   11  O   UNK N   1      31.811  10.352   9.170  0.00  0.00    -0.398 OA
HETATM   12  H   UNK N   1      31.547  10.476  10.095  0.00  0.00     0.209 HD
ENDBRANCH  10  11
ENDBRANCH   9  10
BRANCH   9  13
HETATM   13  O   UNK N   1      35.019  11.862   9.432  0.00  0.00    -0.391 OA
HETATM   14  H   UNK N   1      35.739  12.457   9.692  0.00  0.00     0.210 HD
ENDBRANCH   9  13
ENDBRANCH   8   9
BRANCH   8  15
HETATM   15  O   UNK N   1      32.791  12.687   7.218  0.00  0.00    -0.390 OA
HETATM   16  H   UNK N   1      32.215  13.139   6.580  0.00  0.00     0.210 HD
ENDBRANCH   8  15
ENDBRANCH   3   8
BRANCH   1  17
HETATM   17  N   UNK N   1      35.141  14.702  10.536  0.00  0.00    -0.365 N 
HETATM   18  C   UNK N   1      36.095  15.145  11.283  0.00  0.00     0.107 C 
HETATM   19  C   UNK N   1      36.395  14.461  12.572  0.00  0.00     0.097 C 
ATOM     20  HN  UNK N   1      34.622  13.884  10.855  1.00  0.00     0.161 HD
BRANCH  18  21
HETATM   21  O   UNK N   1      36.838  16.207  10.910  0.00  0.00    -0.350 OA
HETATM   22  H   UNK N   1      36.914  16.456  10.010  0.00  0.00     0.219 HD
ENDBRANCH  18  21
ENDBRANCH   1  17
BRANCH   2  23
HETATM   23  O   UNK N   1      34.479  17.695   9.239  0.00  0.00    -0.390 OA
HETATM   24  H   UNK N   1      34.058  18.561   9.120  0.00  0.00     0.210 HD
ENDBRANCH   2  23
BRANCH   5  25
HETATM   25  C   UNK N   1      33.584  17.060   6.188  0.00  0.00     0.208 C 
HETATM   26  O   UNK N   1      34.662  17.562   6.455  0.00  0.00    -0.646 OA
BRANCH  25  27
HETATM   27  O   UNK N   1      32.854  17.567   5.175  0.00  0.00    -0.772 OA
HETATM   28  H   UNK N   1      32.062  17.245   4.791  0.00  0.00     0.167 HD
ENDBRANCH  25  27
ENDBRANCH   5  25
BRANCH   5  29
HETATM   29  O   UNK N   1      31.902  15.416   6.382  0.00  0.00    -0.355 OA
HETATM   30  H   UNK N   1      31.764  14.509   6.067  0.00  0.00     0.213 HD
ENDBRANCH   5  29
TORSDOF 12
ENDMDL
