REMARK  22 active torsions:
REMARK  status: ('A' for Active; 'I' for Inactive)
REMARK    1  A    between atoms: C_19  and  C_12 
REMARK    2  A    between atoms: C_20  and  C_12 
REMARK    3  A    between atoms: C_28  and  C_19 
REMARK    4  A    between atoms: C_31  and  C_20 
REMARK    5  A    between atoms: C_29  and  C_23 
REMARK    6  A    between atoms: C_36  and  C_23 
REMARK    7  A    between atoms: C_32  and  C_24 
REMARK    8  A    between atoms: C_35  and  C_24 
REMARK    9  A    between atoms: C_30  and  C_26 
REMARK   10  A    between atoms: O_52  and  C_26 
REMARK   11  A    between atoms: C_31  and  C_27 
REMARK   12  A    between atoms: P_53  and  C_27 
REMARK   13  A    between atoms: C_31  and  C_38 
REMARK   14  A    between atoms: C_37  and  C_35 
REMARK   15  A    between atoms: C_35  and  N_43 
REMARK   16  A    between atoms: C_36  and  N_45 
REMARK   17  A    between atoms: P_53  and  C_36 
REMARK   18  A    between atoms: O_47  and  C_37 
REMARK   19  A    between atoms: C_38  and  O_48 
REMARK   20  A    between atoms: C_39  and  O_49 
REMARK   21  A    between atoms: O_52  and  C_39 
REMARK   22  A    between atoms: P_53  and  O_50 
ROOT
HETATM    1  C   UNK N   1      -0.767  -2.216  -0.918  0.00  0.00     0.069 C 
ENDROOT
BRANCH   1   2
HETATM    2  C   UNK N   1       0.461  -2.372  -1.819  0.00  0.00     0.013 C 
BRANCH   2   3
HETATM    3  C   UNK N   1       0.912  -3.819  -2.050  0.00  0.00     0.005 C 
BRANCH   3   4
HETATM    4  C   UNK N   1       1.448  -4.510  -0.791  0.00  0.00     0.038 C 
BRANCH   4   5
HETATM    5  C   UNK N   1       2.631  -3.828  -0.169  0.00  0.00    -0.058 A 
HETATM    6  C   UNK N   1       2.544  -2.513   0.317  0.00  0.00     0.007 A 
HETATM    7  C   UNK N   1       3.645  -1.907   0.922  0.00  0.00     0.001 A 
HETATM    8  C   UNK N   1       4.841  -2.615   1.054  0.00  0.00     0.000 A 
HETATM    9  C   UNK N   1       4.931  -3.928   0.582  0.00  0.00     0.001 A 
HETATM   10  C   UNK N   1       3.827  -4.534  -0.026  0.00  0.00     0.007 A 
ENDBRANCH   4   5
ENDBRANCH   3   4
ENDBRANCH   2   3
ENDBRANCH   1   2
BRANCH   1  11
HETATM   11  C   UNK N   1      -0.440  -2.792   0.466  0.00  0.00     0.109 C 
BRANCH  11  12
HETATM   12  P   UNK N   1      -1.917  -3.335   1.403  0.00  0.00     0.122 P 
HETATM   13  O   UNK N   1      -2.675  -2.026   1.756  0.00  0.00    -0.672 OA
BRANCH  12  14
HETATM   14  C   UNK N   1      -3.102  -4.479   0.523  0.00  0.00     0.172 C 
BRANCH  14  15
HETATM   15  C   UNK N   1      -3.063  -5.820   1.257  0.00  0.00     0.073 C 
BRANCH  15  16
HETATM   16  C   UNK N   1      -3.015  -7.026   0.370  0.00  0.00    -0.056 A 
HETATM   17  C   UNK N   1      -1.856  -7.815   0.347  0.00  0.00     0.007 A 
HETATM   18  C   UNK N   1      -1.806  -8.972  -0.438  0.00  0.00     0.001 A 
HETATM   19  C   UNK N   1      -2.918  -9.351  -1.194  0.00  0.00     0.000 A 
HETATM   20  C   UNK N   1      -4.078  -8.569  -1.171  0.00  0.00     0.001 A 
HETATM   21  C   UNK N   1      -4.128  -7.408  -0.390  0.00  0.00     0.007 A 
ENDBRANCH  15  16
ENDBRANCH  14  15
BRANCH  14  22
HETATM   22  N   UNK N   1      -4.397  -3.848   0.616  0.00  0.00    -0.337 N 
HETATM   23  C   UNK N   1      -4.704  -2.814  -0.101  0.00  0.00     0.259 C 
ATOM     24  HN  UNK N   1      -5.088  -4.226   1.264  1.00  0.00     0.164 HD
BRANCH  23  25
HETATM   25  O   UNK N   1      -3.905  -2.415  -1.113  0.00  0.00    -0.327 OA
HETATM   26  H   UNK N   1      -3.388  -2.756  -1.816  0.00  0.00     0.221 HD
ENDBRANCH  23  25
BRANCH  23  27
HETATM   27  O   UNK N   1      -5.789  -2.072   0.178  0.00  0.00    -0.312 OA
BRANCH  27  28
HETATM   28  C   UNK N   1      -6.628  -2.375   1.217  0.00  0.00     0.218 C 
BRANCH  28  29
HETATM   29  C   UNK N   1      -7.856  -2.871   0.591  0.00  0.00    -0.034 A 
HETATM   30  C   UNK N   1      -8.071  -4.247   0.511  0.00  0.00     0.009 A 
HETATM   31  C   UNK N   1      -9.154  -4.735  -0.217  0.00  0.00     0.001 A 
HETATM   32  C   UNK N   1     -10.012  -3.846  -0.873  0.00  0.00     0.000 A 
HETATM   33  C   UNK N   1      -9.790  -2.467  -0.795  0.00  0.00     0.001 A 
HETATM   34  C   UNK N   1      -8.703  -1.980  -0.072  0.00  0.00     0.009 A 
ENDBRANCH  28  29
ENDBRANCH  27  28
ENDBRANCH  23  27
ENDBRANCH  14  22
ENDBRANCH  12  14
BRANCH  12  35
HETATM   35  O   UNK N   1      -1.502  -3.917   2.986  0.00  0.00    -0.348 OA
HETATM   36  H   UNK N   1      -1.667  -4.281   3.869  0.00  0.00     0.218 HD
ENDBRANCH  12  35
ENDBRANCH  11  12
ENDBRANCH   1  11
BRANCH   1  37
HETATM   37  C   UNK N   1      -1.036  -0.740  -0.806  0.00  0.00     0.116 C 
HETATM   38  N   UNK N   1      -0.145  -0.021  -0.221  0.00  0.00    -0.362 N 
ATOM     39  HN  UNK N   1       0.613  -0.534   0.230  1.00  0.00     0.162 HD
BRANCH  38  40
HETATM   40  C   UNK N   1      -0.076   1.414  -0.118  0.00  0.00     0.161 C 
BRANCH  40  41
HETATM   41  C   UNK N   1       1.120   1.651   0.788  0.00  0.00     0.074 C 
BRANCH  41  42
HETATM   42  C   UNK N   1       2.079   2.667   0.293  0.00  0.00    -0.028 A 
HETATM   43  C   UNK N   1       1.920   4.044   0.308  0.00  0.00     0.096 A 
HETATM   44  N   UNK N   1       3.041   4.630  -0.183  0.00  0.00    -0.365 N 
HETATM   45  C   UNK N   1       3.881   3.626  -0.497  0.00  0.00     0.042 A 
HETATM   46  H   UNK N   1       3.207   5.595  -0.289  0.00  0.00     0.165 HD
HETATM   47  C   UNK N   1       5.163   3.738  -1.028  0.00  0.00     0.030 A 
HETATM   48  C   UNK N   1       3.322   2.415  -0.220  0.00  0.00    -0.002 A 
HETATM   49  C   UNK N   1       5.874   2.549  -1.282  0.00  0.00     0.002 A 
HETATM   50  C   UNK N   1       5.291   1.292  -1.000  0.00  0.00     0.001 A 
HETATM   51  C   UNK N   1       3.995   1.217  -0.457  0.00  0.00     0.014 A 
ENDBRANCH  41  42
ENDBRANCH  40  41
BRANCH  40  52
HETATM   52  C   UNK N   1      -1.298   2.049   0.493  0.00  0.00     0.132 C 
HETATM   53  N   UNK N   1      -1.950   2.942  -0.158  0.00  0.00    -0.382 N 
HETATM   54  H   UNK N   1      -1.607   3.717  -0.658  0.00  0.00     0.158 HD
ATOM     55  HN  UNK N   1      -2.964   2.832  -0.158  1.00  0.00     0.158 HD
BRANCH  52  56
HETATM   56  O   UNK N   1      -1.687   1.719   1.740  0.00  0.00    -0.348 OA
HETATM   57  H   UNK N   1      -2.021   1.838   2.607  0.00  0.00     0.219 HD
ENDBRANCH  52  56
ENDBRANCH  40  52
ENDBRANCH  38  40
BRANCH  37  58
HETATM   58  O   UNK N   1      -2.142  -0.186  -1.348  0.00  0.00    -0.349 OA
HETATM   59  H   UNK N   1      -2.193   0.671  -1.723  0.00  0.00     0.219 HD
ENDBRANCH  37  58
ENDBRANCH   1  37
TORSDOF 22
