REMARK  11 active torsions:
REMARK  status: ('A' for Active; 'I' for Inactive)
REMARK    1  A    between atoms: C_2  and  C_1 
REMARK    2  A    between atoms: C_4  and  C_1 
REMARK    3  A    between atoms: C_6  and  C_2 
REMARK    4  A    between atoms: C_5  and  C_3 
REMARK    5  A    between atoms: C_7  and  C_3 
REMARK    6  A    between atoms: N_14  and  C_4 
REMARK    7  A    between atoms: N_13  and  C_5 
REMARK    8  A    between atoms: C_8  and  C_6 
REMARK    9  A    between atoms: C_6  and  N_13 
REMARK   10  A    between atoms: O_16  and  C_7 
REMARK   11  A    between atoms: O_18  and  C_8 
REMARK       I    between atoms: N_12  and  C_9 
REMARK       I    between atoms: N_14  and  C_9 
ROOT
HETATM    1  C   UNK N   1      -2.145  -2.347  -0.430  0.00  0.00     0.175 C 
ENDROOT
BRANCH   1   2
HETATM    2  C   UNK N   1      -1.346  -3.394   0.372  0.00  0.00     0.037 C 
BRANCH   2   3
HETATM    3  C   UNK N   1       0.092  -2.996   0.690  0.00  0.00     0.023 C 
BRANCH   3   4
HETATM    4  C   UNK N   1       0.888  -2.665  -0.560  0.00  0.00     0.138 C 
BRANCH   4   5
HETATM    5  N   UNK N   1       2.164  -2.129  -0.170  0.00  0.00    -0.227 N 
HETATM    6  C   UNK N   1       3.284  -2.974   0.023  0.00  0.00     0.665 C 
HETATM    7  N   UNK N   1       4.390  -2.479   0.434  0.00  0.00    -0.235 N 
HETATM    8  N   UNK N   1       3.181  -4.365  -0.210  0.00  0.00    -0.235 N 
HETATM    9  H   UNK N   1       5.145  -3.026   0.750  0.00  0.00     0.174 HD
ATOM     10  HN  UNK N   1       4.494  -1.465   0.434  1.00  0.00     0.174 HD
HETATM   11  H   UNK N   1       2.306  -4.787  -0.373  0.00  0.00     0.174 HD
HETATM   12  H   UNK N   1       3.995  -4.919  -0.210  0.00  0.00     0.174 HD
HETATM   13  H   UNK N   1       2.261  -1.159  -0.035  0.00  0.00     0.177 HD
ENDBRANCH   4   5
ENDBRANCH   3   4
ENDBRANCH   2   3
ENDBRANCH   1   2
BRANCH   1  14
HETATM   14  C   UNK N   1      -2.110  -0.960   0.190  0.00  0.00     0.163 C 
HETATM   15  O   UNK N   1      -3.143  -0.383   0.489  0.00  0.00    -0.648 OA
BRANCH  14  16
HETATM   16  O   UNK N   1      -0.931  -0.334   0.375  0.00  0.00    -0.775 OA
HETATM   17  H   UNK N   1      -0.144  -0.825   0.504  0.00  0.00     0.167 HD
ENDBRANCH  14  16
ENDBRANCH   1  14
BRANCH   1  18
HETATM   18  N   UNK N   1      -3.521  -2.819  -0.639  0.00  0.00    -0.408 N 
HETATM   19  H   UNK N   1      -3.951  -2.950  -1.555  0.00  0.00     0.154 HD
BRANCH  18  20
HETATM   20  C   UNK N   1      -4.197  -3.078   0.632  0.00  0.00     0.125 C 
BRANCH  20  21
HETATM   21  C   UNK N   1      -5.633  -3.514   0.381  0.00  0.00     0.129 C 
BRANCH  21  22
HETATM   22  C   UNK N   1      -6.533  -2.376  -0.003  0.00  0.00     0.140 C 
HETATM   23  O   UNK N   1      -7.705  -2.598  -0.251  0.00  0.00    -0.650 OA
BRANCH  22  24
HETATM   24  O   UNK N   1      -6.066  -1.113  -0.072  0.00  0.00    -0.776 OA
HETATM   25  H   UNK N   1      -5.144  -0.954  -0.120  0.00  0.00     0.167 HD
ENDBRANCH  22  24
ENDBRANCH  21  22
ENDBRANCH  20  21
ENDBRANCH  18  20
ENDBRANCH   1  18
TORSDOF 11
