MODEL 1
REMARK VINA RESULT:      -6.8      0.000      0.000
REMARK  19 active torsions:
REMARK  status: ('A' for Active; 'I' for Inactive)
REMARK    1  A    between atoms: C_14  and  C_13 
REMARK    2  A    between atoms: C_22  and  C_13 
REMARK    3  A    between atoms: C_23  and  C_14 
REMARK    4  A    between atoms: C_20  and  C_15 
REMARK    5  A    between atoms: C_21  and  C_15 
REMARK    6  A    between atoms: C_24  and  C_16 
REMARK    7  A    between atoms: C_25  and  C_17 
REMARK    8  A    between atoms: C_26  and  C_18 
REMARK    9  A    between atoms: C_18  and  N_30 
REMARK   10  A    between atoms: C_27  and  C_19 
REMARK   11  A    between atoms: N_31  and  C_19 
REMARK   12  A    between atoms: C_22  and  C_21 
REMARK   13  A    between atoms: C_21  and  N_32 
REMARK   14  A    between atoms: C_22  and  O_35 
REMARK       I    between atoms: N_33  and  C_23 
REMARK   15  A    between atoms: C_28  and  C_24 
REMARK   16  A    between atoms: C_24  and  N_33 
REMARK   17  A    between atoms: C_29  and  C_25 
REMARK   18  A    between atoms: C_25  and  N_34 
REMARK       I    between atoms: N_31  and  C_26 
REMARK       I    between atoms: N_32  and  C_27 
REMARK       I    between atoms: N_34  and  C_28 
REMARK   19  A    between atoms: O_41  and  C_29 
ROOT
HETATM    1  C   UNK N   1      26.835  25.103  -3.868  0.00  0.00     0.141 C 
ENDROOT
BRANCH   1   2
HETATM    2  C   UNK N   1      28.353  25.000  -3.992  0.00  0.00     0.043 C 
BRANCH   2   3
HETATM    3  C   UNK N   1      29.035  26.337  -3.818  0.00  0.00     0.105 C 
BRANCH   3   4
HETATM    4  C   UNK N   1      30.511  26.186  -3.683  0.00  0.00     0.218 C 
HETATM    5  N   UNK N   1      31.161  25.379  -4.563  0.00  0.00    -0.347 N 
HETATM    6  H   UNK N   1      30.594  24.797  -5.120  0.00  0.00     0.163 HD
HETATM    7  O   UNK N   1      31.120  26.846  -2.858  0.00  0.00    -0.274 OA
BRANCH   5   8
HETATM    8  C   UNK N   1      32.593  25.278  -4.778  0.00  0.00     0.180 C 
BRANCH   8   9
HETATM    9  C   UNK N   1      33.157  26.231  -5.861  0.00  0.00     0.009 C 
HETATM   10  C   UNK N   1      33.594  27.588  -5.336  0.00  0.00     0.012 C 
HETATM   11  C   UNK N   1      32.165  26.452  -6.992  0.00  0.00     0.012 C 
ENDBRANCH   8   9
BRANCH   8  12
HETATM   12  C   UNK N   1      33.012  23.840  -4.965  0.00  0.00     0.241 C 
HETATM   13  N   UNK N   1      32.274  22.851  -4.427  0.00  0.00    -0.345 N 
HETATM   14  H   UNK N   1      31.510  23.117  -3.865  0.00  0.00     0.163 HD
HETATM   15  O   UNK N   1      33.998  23.575  -5.651  0.00  0.00    -0.271 OA
BRANCH  13  16
HETATM   16  C   UNK N   1      32.501  21.423  -4.597  0.00  0.00     0.187 C 
BRANCH  16  17
HETATM   17  C   UNK N   1      31.175  20.620  -4.673  0.00  0.00     0.010 C 
HETATM   18  C   UNK N   1      30.781  20.148  -6.061  0.00  0.00     0.012 C 
HETATM   19  C   UNK N   1      30.009  21.317  -3.991  0.00  0.00     0.012 C 
ENDBRANCH  16  17
BRANCH  16  20
HETATM   20  C   UNK N   1      33.312  20.915  -3.418  0.00  0.00     0.281 C 
HETATM   21  O   UNK N   1      33.015  21.273  -2.284  0.00  0.00    -0.263 OA
BRANCH  20  22
HETATM   22  O   UNK N   1      34.365  20.075  -3.574  0.00  0.00    -0.325 OA
HETATM   23  C   UNK N   1      34.274  18.836  -4.163  0.00  0.00     0.213 C 
ENDBRANCH  20  22
ENDBRANCH  16  20
ENDBRANCH  13  16
ENDBRANCH   8  12
ENDBRANCH   5   8
ENDBRANCH   3   4
ENDBRANCH   2   3
ENDBRANCH   1   2
BRANCH   1  24
HETATM   24  C   UNK N   1      26.217  25.145  -5.279  0.00  0.00     0.117 C 
BRANCH  24  25
HETATM   25  C   UNK N   1      25.369  26.429  -5.391  0.00  0.00     0.066 C 
BRANCH  25  26
HETATM   26  C   UNK N   1      26.075  27.739  -5.230  0.00  0.00    -0.056 A 
HETATM   27  C   UNK N   1      27.055  28.154  -6.140  0.00  0.00     0.007 A 
HETATM   28  C   UNK N   1      27.714  29.374  -5.946  0.00  0.00     0.001 A 
HETATM   29  C   UNK N   1      27.402  30.171  -4.839  0.00  0.00     0.000 A 
HETATM   30  C   UNK N   1      26.429  29.753  -3.929  0.00  0.00     0.001 A 
HETATM   31  C   UNK N   1      25.766  28.541  -4.128  0.00  0.00     0.007 A 
ENDBRANCH  25  26
ENDBRANCH  24  25
BRANCH  24  32
HETATM   32  N   UNK N   1      25.411  23.965  -5.537  0.00  0.00    -0.352 N 
HETATM   33  C   UNK N   1      25.581  23.006  -6.497  0.00  0.00     0.240 C 
HETATM   34  O   UNK N   1      24.791  22.074  -6.503  0.00  0.00    -0.271 OA
HETATM   35  H   UNK N   1      24.639  23.838  -4.939  0.00  0.00     0.163 HD
BRANCH  33  36
HETATM   36  C   UNK N   1      26.679  23.004  -7.573  0.00  0.00     0.172 C 
HETATM   37  C   UNK N   1      28.100  22.835  -7.077  0.00  0.00     0.042 C 
BRANCH  36  38
HETATM   38  N   UNK N   1      26.640  24.285  -8.245  0.00  0.00    -0.346 N 
HETATM   39  C   UNK N   1      25.873  24.574  -9.325  0.00  0.00     0.240 C 
HETATM   40  O   UNK N   1      25.209  23.702  -9.870  0.00  0.00    -0.271 OA
HETATM   41  H   UNK N   1      27.215  25.002  -7.891  0.00  0.00     0.163 HD
BRANCH  39  42
HETATM   42  C   UNK N   1      25.834  25.981  -9.855  0.00  0.00     0.163 C 
HETATM   43  C   UNK N   1      24.693  26.144 -10.840  0.00  0.00     0.041 C 
BRANCH  42  44
HETATM   44  N   UNK N   1      27.084  26.321 -10.518  0.00  0.00    -0.419 N 
HETATM   45  H   UNK N   1      27.788  25.625 -10.762  0.00  0.00     0.150 HD
HETATM   46  H   UNK N   1      27.263  27.298 -10.750  0.00  0.00     0.150 HD
ENDBRANCH  42  44
ENDBRANCH  39  42
ENDBRANCH  36  38
ENDBRANCH  33  36
ENDBRANCH  24  32
ENDBRANCH   1  24
BRANCH   1  47
HETATM   47  O   UNK N   1      26.396  23.998  -3.144  0.00  0.00    -0.393 OA
HETATM   48  H   UNK N   1      27.001  23.345  -2.758  0.00  0.00     0.210 HD
ENDBRANCH   1  47
TORSDOF 19
ENDMDL
MODEL 2
REMARK VINA RESULT:      -6.8     12.340     15.259
REMARK  19 active torsions:
REMARK  status: ('A' for Active; 'I' for Inactive)
REMARK    1  A    between atoms: C_14  and  C_13 
REMARK    2  A    between atoms: C_22  and  C_13 
REMARK    3  A    between atoms: C_23  and  C_14 
REMARK    4  A    between atoms: C_20  and  C_15 
REMARK    5  A    between atoms: C_21  and  C_15 
REMARK    6  A    between atoms: C_24  and  C_16 
REMARK    7  A    between atoms: C_25  and  C_17 
REMARK    8  A    between atoms: C_26  and  C_18 
REMARK    9  A    between atoms: C_18  and  N_30 
REMARK   10  A    between atoms: C_27  and  C_19 
REMARK   11  A    between atoms: N_31  and  C_19 
REMARK   12  A    between atoms: C_22  and  C_21 
REMARK   13  A    between atoms: C_21  and  N_32 
REMARK   14  A    between atoms: C_22  and  O_35 
REMARK       I    between atoms: N_33  and  C_23 
REMARK   15  A    between atoms: C_28  and  C_24 
REMARK   16  A    between atoms: C_24  and  N_33 
REMARK   17  A    between atoms: C_29  and  C_25 
REMARK   18  A    between atoms: C_25  and  N_34 
REMARK       I    between atoms: N_31  and  C_26 
REMARK       I    between atoms: N_32  and  C_27 
REMARK       I    between atoms: N_34  and  C_28 
REMARK   19  A    between atoms: O_41  and  C_29 
ROOT
HETATM    1  C   UNK N   1      20.841  18.634   2.496  0.00  0.00     0.141 C 
ENDROOT
BRANCH   1   2
HETATM    2  C   UNK N   1      20.949  19.275   3.877  0.00  0.00     0.043 C 
BRANCH   2   3
HETATM    3  C   UNK N   1      22.037  18.648   4.718  0.00  0.00     0.105 C 
BRANCH   3   4
HETATM    4  C   UNK N   1      23.366  18.738   4.049  0.00  0.00     0.218 C 
HETATM    5  N   UNK N   1      24.206  17.674   4.138  0.00  0.00    -0.347 N 
HETATM    6  H   UNK N   1      23.964  16.981   4.794  0.00  0.00     0.163 HD
HETATM    7  O   UNK N   1      23.641  19.710   3.366  0.00  0.00    -0.274 OA
BRANCH   5   8
HETATM    8  C   UNK N   1      25.419  17.439   3.375  0.00  0.00     0.180 C 
BRANCH   8   9
HETATM    9  C   UNK N   1      25.735  15.948   3.099  0.00  0.00     0.009 C 
HETATM   10  C   UNK N   1      25.912  15.606   1.630  0.00  0.00     0.012 C 
HETATM   11  C   UNK N   1      24.674  15.028   3.681  0.00  0.00     0.012 C 
ENDBRANCH   8   9
BRANCH   8  12
HETATM   12  C   UNK N   1      26.582  18.203   3.959  0.00  0.00     0.241 C 
HETATM   13  N   UNK N   1      27.289  17.676   4.976  0.00  0.00    -0.345 N 
HETATM   14  H   UNK N   1      26.969  16.821   5.348  0.00  0.00     0.163 HD
HETATM   15  O   UNK N   1      26.911  19.283   3.469  0.00  0.00    -0.271 OA
BRANCH  13  16
HETATM   16  C   UNK N   1      28.484  18.250   5.577  0.00  0.00     0.187 C 
BRANCH  16  17
HETATM   17  C   UNK N   1      29.531  17.169   5.955  0.00  0.00     0.010 C 
HETATM   18  C   UNK N   1      30.895  17.332   5.309  0.00  0.00     0.012 C 
HETATM   19  C   UNK N   1      29.021  15.748   5.782  0.00  0.00     0.012 C 
ENDBRANCH  16  17
BRANCH  16  20
HETATM   20  C   UNK N   1      28.082  19.002   6.834  0.00  0.00     0.281 C 
HETATM   21  O   UNK N   1      28.551  18.662   7.915  0.00  0.00    -0.263 OA
BRANCH  20  22
HETATM   22  O   UNK N   1      27.213  20.043   6.807  0.00  0.00    -0.325 OA
HETATM   23  C   UNK N   1      27.510  21.272   6.267  0.00  0.00     0.213 C 
ENDBRANCH  20  22
ENDBRANCH  16  20
ENDBRANCH  13  16
ENDBRANCH   8  12
ENDBRANCH   5   8
ENDBRANCH   3   4
ENDBRANCH   2   3
ENDBRANCH   1   2
BRANCH   1  24
HETATM   24  C   UNK N   1      20.532  17.134   2.660  0.00  0.00     0.117 C 
BRANCH  24  25
HETATM   25  C   UNK N   1      20.267  16.544   1.260  0.00  0.00     0.066 C 
BRANCH  25  26
HETATM   26  C   UNK N   1      20.623  15.107   1.037  0.00  0.00    -0.056 A 
HETATM   27  C   UNK N   1      19.637  14.142   0.792  0.00  0.00     0.007 A 
HETATM   28  C   UNK N   1      20.003  12.803   0.612  0.00  0.00     0.001 A 
HETATM   29  C   UNK N   1      21.348  12.427   0.690  0.00  0.00     0.000 A 
HETATM   30  C   UNK N   1      22.329  13.389   0.941  0.00  0.00     0.001 A 
HETATM   31  C   UNK N   1      21.965  14.725   1.110  0.00  0.00     0.007 A 
ENDBRANCH  25  26
ENDBRANCH  24  25
BRANCH  24  32
HETATM   32  N   UNK N   1      19.394  16.924   3.538  0.00  0.00    -0.352 N 
HETATM   33  C   UNK N   1      19.279  16.071   4.601  0.00  0.00     0.240 C 
HETATM   34  O   UNK N   1      18.227  16.090   5.222  0.00  0.00    -0.271 OA
HETATM   35  H   UNK N   1      18.599  17.469   3.341  0.00  0.00     0.163 HD
BRANCH  33  36
HETATM   36  C   UNK N   1      20.359  15.086   5.077  0.00  0.00     0.172 C 
HETATM   37  C   UNK N   1      20.243  13.666   4.560  0.00  0.00     0.042 C 
BRANCH  36  38
HETATM   38  N   UNK N   1      20.268  14.995   6.518  0.00  0.00    -0.346 N 
HETATM   39  C   UNK N   1      21.188  15.483   7.388  0.00  0.00     0.240 C 
HETATM   40  O   UNK N   1      22.235  15.968   6.981  0.00  0.00    -0.271 OA
HETATM   41  H   UNK N   1      19.479  14.545   6.897  0.00  0.00     0.163 HD
BRANCH  39  42
HETATM   42  C   UNK N   1      20.915  15.430   8.865  0.00  0.00     0.163 C 
HETATM   43  C   UNK N   1      21.304  14.076   9.427  0.00  0.00     0.041 C 
BRANCH  42  44
HETATM   44  N   UNK N   1      19.507  15.670   9.143  0.00  0.00    -0.419 N 
HETATM   45  H   UNK N   1      18.827  15.878   8.413  0.00  0.00     0.150 HD
HETATM   46  H   UNK N   1      19.186  15.628  10.111  0.00  0.00     0.150 HD
ENDBRANCH  42  44
ENDBRANCH  39  42
ENDBRANCH  36  38
ENDBRANCH  33  36
ENDBRANCH  24  32
ENDBRANCH   1  24
BRANCH   1  47
HETATM   47  O   UNK N   1      19.833  19.297   1.802  0.00  0.00    -0.393 OA
HETATM   48  H   UNK N   1      18.961  18.907   1.635  0.00  0.00     0.210 HD
ENDBRANCH   1  47
TORSDOF 19
ENDMDL
MODEL 3
REMARK VINA RESULT:      -6.8     12.762     15.510
REMARK  19 active torsions:
REMARK  status: ('A' for Active; 'I' for Inactive)
REMARK    1  A    between atoms: C_14  and  C_13 
REMARK    2  A    between atoms: C_22  and  C_13 
REMARK    3  A    between atoms: C_23  and  C_14 
REMARK    4  A    between atoms: C_20  and  C_15 
REMARK    5  A    between atoms: C_21  and  C_15 
REMARK    6  A    between atoms: C_24  and  C_16 
REMARK    7  A    between atoms: C_25  and  C_17 
REMARK    8  A    between atoms: C_26  and  C_18 
REMARK    9  A    between atoms: C_18  and  N_30 
REMARK   10  A    between atoms: C_27  and  C_19 
REMARK   11  A    between atoms: N_31  and  C_19 
REMARK   12  A    between atoms: C_22  and  C_21 
REMARK   13  A    between atoms: C_21  and  N_32 
REMARK   14  A    between atoms: C_22  and  O_35 
REMARK       I    between atoms: N_33  and  C_23 
REMARK   15  A    between atoms: C_28  and  C_24 
REMARK   16  A    between atoms: C_24  and  N_33 
REMARK   17  A    between atoms: C_29  and  C_25 
REMARK   18  A    between atoms: C_25  and  N_34 
REMARK       I    between atoms: N_31  and  C_26 
REMARK       I    between atoms: N_32  and  C_27 
REMARK       I    between atoms: N_34  and  C_28 
REMARK   19  A    between atoms: O_41  and  C_29 
ROOT
HETATM    1  C   UNK N   1      20.288  18.592   2.563  0.00  0.00     0.141 C 
ENDROOT
BRANCH   1   2
HETATM    2  C   UNK N   1      21.109  19.197   3.699  0.00  0.00     0.043 C 
BRANCH   2   3
HETATM    3  C   UNK N   1      22.564  19.368   3.328  0.00  0.00     0.105 C 
BRANCH   3   4
HETATM    4  C   UNK N   1      23.465  18.790   4.365  0.00  0.00     0.218 C 
HETATM    5  N   UNK N   1      24.796  18.723   4.098  0.00  0.00    -0.347 N 
HETATM    6  H   UNK N   1      25.062  18.887   3.165  0.00  0.00     0.163 HD
HETATM    7  O   UNK N   1      23.019  18.474   5.455  0.00  0.00    -0.274 OA
BRANCH   5   8
HETATM    8  C   UNK N   1      25.871  18.439   5.031  0.00  0.00     0.180 C 
BRANCH   8   9
HETATM    9  C   UNK N   1      27.125  19.333   4.870  0.00  0.00     0.009 C 
HETATM   10  C   UNK N   1      27.435  20.203   6.076  0.00  0.00     0.012 C 
HETATM   11  C   UNK N   1      27.028  20.228   3.645  0.00  0.00     0.012 C 
ENDBRANCH   8   9
BRANCH   8  12
HETATM   12  C   UNK N   1      26.184  16.962   5.064  0.00  0.00     0.241 C 
HETATM   13  N   UNK N   1      25.603  16.134   4.177  0.00  0.00    -0.345 N 
HETATM   14  H   UNK N   1      24.931  16.525   3.571  0.00  0.00     0.163 HD
HETATM   15  O   UNK N   1      27.008  16.530   5.869  0.00  0.00    -0.271 OA
BRANCH  13  16
HETATM   16  C   UNK N   1      25.873  14.711   4.028  0.00  0.00     0.187 C 
BRANCH  16  17
HETATM   17  C   UNK N   1      25.746  14.237   2.556  0.00  0.00     0.010 C 
HETATM   18  C   UNK N   1      26.671  13.100   2.158  0.00  0.00     0.012 C 
HETATM   19  C   UNK N   1      25.825  15.373   1.548  0.00  0.00     0.012 C 
ENDBRANCH  16  17
BRANCH  16  20
HETATM   20  C   UNK N   1      24.882  13.936   4.878  0.00  0.00     0.281 C 
HETATM   21  O   UNK N   1      23.877  13.467   4.354  0.00  0.00    -0.263 OA
BRANCH  20  22
HETATM   22  O   UNK N   1      25.065  13.743   6.208  0.00  0.00    -0.325 OA
HETATM   23  C   UNK N   1      24.514  12.698   6.912  0.00  0.00     0.213 C 
ENDBRANCH  20  22
ENDBRANCH  16  20
ENDBRANCH  13  16
ENDBRANCH   8  12
ENDBRANCH   5   8
ENDBRANCH   3   4
ENDBRANCH   2   3
ENDBRANCH   1   2
BRANCH   1  24
HETATM   24  C   UNK N   1      20.178  17.070   2.777  0.00  0.00     0.117 C 
BRANCH  24  25
HETATM   25  C   UNK N   1      19.928  16.412   1.405  0.00  0.00     0.066 C 
BRANCH  25  26
HETATM   26  C   UNK N   1      20.524  15.059   1.169  0.00  0.00    -0.056 A 
HETATM   27  C   UNK N   1      21.909  14.854   1.228  0.00  0.00     0.007 A 
HETATM   28  C   UNK N   1      22.435  13.581   0.978  0.00  0.00     0.001 A 
HETATM   29  C   UNK N   1      21.582  12.519   0.659  0.00  0.00     0.000 A 
HETATM   30  C   UNK N   1      20.202  12.727   0.595  0.00  0.00     0.001 A 
HETATM   31  C   UNK N   1      19.677  13.994   0.853  0.00  0.00     0.007 A 
ENDBRANCH  25  26
ENDBRANCH  24  25
BRANCH  24  32
HETATM   32  N   UNK N   1      19.117  16.745   3.713  0.00  0.00    -0.352 N 
HETATM   33  C   UNK N   1      19.148  15.888   4.779  0.00  0.00     0.240 C 
HETATM   34  O   UNK N   1      18.134  15.798   5.454  0.00  0.00    -0.271 OA
HETATM   35  H   UNK N   1      18.259  17.203   3.559  0.00  0.00     0.163 HD
BRANCH  33  36
HETATM   36  C   UNK N   1      20.350  15.025   5.196  0.00  0.00     0.172 C 
HETATM   37  C   UNK N   1      20.393  13.621   4.626  0.00  0.00     0.042 C 
BRANCH  36  38
HETATM   38  N   UNK N   1      20.304  14.870   6.634  0.00  0.00    -0.346 N 
HETATM   39  C   UNK N   1      21.303  15.215   7.485  0.00  0.00     0.240 C 
HETATM   40  O   UNK N   1      22.380  15.609   7.056  0.00  0.00    -0.271 OA
HETATM   41  H   UNK N   1      19.487  14.486   7.024  0.00  0.00     0.163 HD
BRANCH  39  42
HETATM   42  C   UNK N   1      21.083  15.116   8.968  0.00  0.00     0.163 C 
HETATM   43  C   UNK N   1      21.648  13.814   9.501  0.00  0.00     0.041 C 
BRANCH  42  44
HETATM   44  N   UNK N   1      19.664  15.183   9.289  0.00  0.00    -0.419 N 
HETATM   45  H   UNK N   1      18.933  15.004   8.601  0.00  0.00     0.150 HD
HETATM   46  H   UNK N   1      19.390  15.418  10.243  0.00  0.00     0.150 HD
ENDBRANCH  42  44
ENDBRANCH  39  42
ENDBRANCH  36  38
ENDBRANCH  33  36
ENDBRANCH  24  32
ENDBRANCH   1  24
BRANCH   1  47
HETATM   47  O   UNK N   1      19.039  19.207   2.574  0.00  0.00    -0.393 OA
HETATM   48  H   UNK N   1      18.374  19.068   1.882  0.00  0.00     0.210 HD
ENDBRANCH   1  47
TORSDOF 19
ENDMDL
MODEL 4
REMARK VINA RESULT:      -6.6      2.082      3.628
REMARK  19 active torsions:
REMARK  status: ('A' for Active; 'I' for Inactive)
REMARK    1  A    between atoms: C_14  and  C_13 
REMARK    2  A    between atoms: C_22  and  C_13 
REMARK    3  A    between atoms: C_23  and  C_14 
REMARK    4  A    between atoms: C_20  and  C_15 
REMARK    5  A    between atoms: C_21  and  C_15 
REMARK    6  A    between atoms: C_24  and  C_16 
REMARK    7  A    between atoms: C_25  and  C_17 
REMARK    8  A    between atoms: C_26  and  C_18 
REMARK    9  A    between atoms: C_18  and  N_30 
REMARK   10  A    between atoms: C_27  and  C_19 
REMARK   11  A    between atoms: N_31  and  C_19 
REMARK   12  A    between atoms: C_22  and  C_21 
REMARK   13  A    between atoms: C_21  and  N_32 
REMARK   14  A    between atoms: C_22  and  O_35 
REMARK       I    between atoms: N_33  and  C_23 
REMARK   15  A    between atoms: C_28  and  C_24 
REMARK   16  A    between atoms: C_24  and  N_33 
REMARK   17  A    between atoms: C_29  and  C_25 
REMARK   18  A    between atoms: C_25  and  N_34 
REMARK       I    between atoms: N_31  and  C_26 
REMARK       I    between atoms: N_32  and  C_27 
REMARK       I    between atoms: N_34  and  C_28 
REMARK   19  A    between atoms: O_41  and  C_29 
ROOT
HETATM    1  C   UNK N   1      26.877  24.922  -3.803  0.00  0.00     0.141 C 
ENDROOT
BRANCH   1   2
HETATM    2  C   UNK N   1      28.363  24.577  -3.873  0.00  0.00     0.043 C 
BRANCH   2   3
HETATM    3  C   UNK N   1      28.740  23.469  -2.917  0.00  0.00     0.105 C 
BRANCH   3   4
HETATM    4  C   UNK N   1      30.214  23.250  -2.887  0.00  0.00     0.218 C 
HETATM    5  N   UNK N   1      30.893  23.270  -4.064  0.00  0.00    -0.347 N 
HETATM    6  H   UNK N   1      30.347  23.242  -4.883  0.00  0.00     0.163 HD
HETATM    7  O   UNK N   1      30.794  23.148  -1.820  0.00  0.00    -0.274 OA
BRANCH   5   8
HETATM    8  C   UNK N   1      32.331  23.330  -4.253  0.00  0.00     0.180 C 
BRANCH   8   9
HETATM    9  C   UNK N   1      32.798  24.254  -5.405  0.00  0.00     0.009 C 
HETATM   10  C   UNK N   1      34.117  24.961  -5.147  0.00  0.00     0.012 C 
HETATM   11  C   UNK N   1      31.751  25.301  -5.748  0.00  0.00     0.012 C 
ENDBRANCH   8   9
BRANCH   8  12
HETATM   12  C   UNK N   1      32.928  21.944  -4.313  0.00  0.00     0.241 C 
HETATM   13  N   UNK N   1      33.560  21.534  -5.428  0.00  0.00    -0.345 N 
HETATM   14  H   UNK N   1      33.548  22.146  -6.201  0.00  0.00     0.163 HD
HETATM   15  O   UNK N   1      32.879  21.215  -3.323  0.00  0.00    -0.271 OA
BRANCH  13  16
HETATM   16  C   UNK N   1      34.258  20.269  -5.601  0.00  0.00     0.187 C 
BRANCH  16  17
HETATM   17  C   UNK N   1      35.790  20.458  -5.758  0.00  0.00     0.010 C 
HETATM   18  C   UNK N   1      36.522  20.906  -4.506  0.00  0.00     0.012 C 
HETATM   19  C   UNK N   1      36.172  21.329  -6.945  0.00  0.00     0.012 C 
ENDBRANCH  16  17
BRANCH  16  20
HETATM   20  C   UNK N   1      33.721  19.582  -6.844  0.00  0.00     0.281 C 
HETATM   21  O   UNK N   1      34.130  18.464  -7.139  0.00  0.00    -0.263 OA
BRANCH  20  22
HETATM   22  O   UNK N   1      32.799  20.164  -7.650  0.00  0.00    -0.325 OA
HETATM   23  C   UNK N   1      33.046  20.533  -8.952  0.00  0.00     0.213 C 
ENDBRANCH  20  22
ENDBRANCH  16  20
ENDBRANCH  13  16
ENDBRANCH   8  12
ENDBRANCH   5   8
ENDBRANCH   3   4
ENDBRANCH   2   3
ENDBRANCH   1   2
BRANCH   1  24
HETATM   24  C   UNK N   1      26.317  25.024  -5.235  0.00  0.00     0.117 C 
BRANCH  24  25
HETATM   25  C   UNK N   1      25.437  26.288  -5.316  0.00  0.00     0.066 C 
BRANCH  25  26
HETATM   26  C   UNK N   1      26.104  27.609  -5.089  0.00  0.00    -0.056 A 
HETATM   27  C   UNK N   1      25.768  28.415  -3.993  0.00  0.00     0.007 A 
HETATM   28  C   UNK N   1      26.393  29.655  -3.824  0.00  0.00     0.001 A 
HETATM   29  C   UNK N   1      27.342  30.096  -4.753  0.00  0.00     0.000 A 
HETATM   30  C   UNK N   1      27.670  29.294  -5.849  0.00  0.00     0.001 A 
HETATM   31  C   UNK N   1      27.054  28.053  -6.012  0.00  0.00     0.007 A 
ENDBRANCH  25  26
ENDBRANCH  24  25
BRANCH  24  32
HETATM   32  N   UNK N   1      25.558  23.837  -5.589  0.00  0.00    -0.352 N 
HETATM   33  C   UNK N   1      25.670  23.049  -6.701  0.00  0.00     0.240 C 
HETATM   34  O   UNK N   1      24.941  22.071  -6.770  0.00  0.00    -0.271 OA
HETATM   35  H   UNK N   1      24.870  23.563  -4.941  0.00  0.00     0.163 HD
BRANCH  33  36
HETATM   36  C   UNK N   1      26.632  23.293  -7.875  0.00  0.00     0.172 C 
HETATM   37  C   UNK N   1      25.998  23.402  -9.247  0.00  0.00     0.042 C 
BRANCH  36  38
HETATM   38  N   UNK N   1      27.539  22.167  -7.943  0.00  0.00    -0.346 N 
HETATM   39  C   UNK N   1      28.754  22.110  -7.343  0.00  0.00     0.240 C 
HETATM   40  O   UNK N   1      29.209  23.085  -6.761  0.00  0.00    -0.271 OA
HETATM   41  H   UNK N   1      27.252  21.383  -8.465  0.00  0.00     0.163 HD
BRANCH  39  42
HETATM   42  C   UNK N   1      29.547  20.834  -7.392  0.00  0.00     0.163 C 
HETATM   43  C   UNK N   1      28.665  19.679  -7.823  0.00  0.00     0.041 C 
BRANCH  42  44
HETATM   44  N   UNK N   1      30.122  20.530  -6.089  0.00  0.00    -0.419 N 
HETATM   45  H   UNK N   1      29.851  19.714  -5.542  0.00  0.00     0.150 HD
HETATM   46  H   UNK N   1      30.828  21.160  -5.708  0.00  0.00     0.150 HD
ENDBRANCH  42  44
ENDBRANCH  39  42
ENDBRANCH  36  38
ENDBRANCH  33  36
ENDBRANCH  24  32
ENDBRANCH   1  24
BRANCH   1  47
HETATM   47  O   UNK N   1      26.247  23.921  -3.071  0.00  0.00    -0.393 OA
HETATM   48  H   UNK N   1      26.313  22.980  -3.296  0.00  0.00     0.210 HD
ENDBRANCH   1  47
TORSDOF 19
ENDMDL
MODEL 5
REMARK VINA RESULT:      -6.6      2.126      3.203
REMARK  19 active torsions:
REMARK  status: ('A' for Active; 'I' for Inactive)
REMARK    1  A    between atoms: C_14  and  C_13 
REMARK    2  A    between atoms: C_22  and  C_13 
REMARK    3  A    between atoms: C_23  and  C_14 
REMARK    4  A    between atoms: C_20  and  C_15 
REMARK    5  A    between atoms: C_21  and  C_15 
REMARK    6  A    between atoms: C_24  and  C_16 
REMARK    7  A    between atoms: C_25  and  C_17 
REMARK    8  A    between atoms: C_26  and  C_18 
REMARK    9  A    between atoms: C_18  and  N_30 
REMARK   10  A    between atoms: C_27  and  C_19 
REMARK   11  A    between atoms: N_31  and  C_19 
REMARK   12  A    between atoms: C_22  and  C_21 
REMARK   13  A    between atoms: C_21  and  N_32 
REMARK   14  A    between atoms: C_22  and  O_35 
REMARK       I    between atoms: N_33  and  C_23 
REMARK   15  A    between atoms: C_28  and  C_24 
REMARK   16  A    between atoms: C_24  and  N_33 
REMARK   17  A    between atoms: C_29  and  C_25 
REMARK   18  A    between atoms: C_25  and  N_34 
REMARK       I    between atoms: N_31  and  C_26 
REMARK       I    between atoms: N_32  and  C_27 
REMARK       I    between atoms: N_34  and  C_28 
REMARK   19  A    between atoms: O_41  and  C_29 
ROOT
HETATM    1  C   UNK N   1      26.656  24.867  -4.055  0.00  0.00     0.141 C 
ENDROOT
BRANCH   1   2
HETATM    2  C   UNK N   1      28.137  24.497  -4.008  0.00  0.00     0.043 C 
BRANCH   2   3
HETATM    3  C   UNK N   1      28.510  23.785  -2.729  0.00  0.00     0.105 C 
BRANCH   3   4
HETATM    4  C   UNK N   1      29.819  23.083  -2.855  0.00  0.00     0.218 C 
HETATM    5  N   UNK N   1      30.245  22.729  -4.096  0.00  0.00    -0.347 N 
HETATM    6  H   UNK N   1      29.579  22.790  -4.819  0.00  0.00     0.163 HD
HETATM    7  O   UNK N   1      30.521  22.919  -1.871  0.00  0.00    -0.274 OA
BRANCH   5   8
HETATM    8  C   UNK N   1      31.569  22.274  -4.479  0.00  0.00     0.180 C 
BRANCH   8   9
HETATM    9  C   UNK N   1      32.417  23.316  -5.249  0.00  0.00     0.009 C 
HETATM   10  C   UNK N   1      33.914  23.061  -5.207  0.00  0.00     0.012 C 
HETATM   11  C   UNK N   1      32.158  24.731  -4.757  0.00  0.00     0.012 C 
ENDBRANCH   8   9
BRANCH   8  12
HETATM   12  C   UNK N   1      31.502  20.929  -5.161  0.00  0.00     0.241 C 
HETATM   13  N   UNK N   1      31.365  20.861  -6.499  0.00  0.00    -0.345 N 
HETATM   14  H   UNK N   1      31.245  21.712  -6.980  0.00  0.00     0.163 HD
HETATM   15  O   UNK N   1      31.626  19.901  -4.497  0.00  0.00    -0.271 OA
BRANCH  13  16
HETATM   16  C   UNK N   1      31.377  19.646  -7.300  0.00  0.00     0.187 C 
BRANCH  16  17
HETATM   17  C   UNK N   1      32.536  19.632  -8.332  0.00  0.00     0.010 C 
HETATM   18  C   UNK N   1      32.929  18.260  -8.849  0.00  0.00     0.012 C 
HETATM   19  C   UNK N   1      33.762  20.406  -7.873  0.00  0.00     0.012 C 
ENDBRANCH  16  17
BRANCH  16  20
HETATM   20  C   UNK N   1      30.058  19.542  -8.046  0.00  0.00     0.281 C 
HETATM   21  O   UNK N   1      29.178  18.807  -7.613  0.00  0.00    -0.263 OA
BRANCH  20  22
HETATM   22  O   UNK N   1      29.816  20.236  -9.186  0.00  0.00    -0.325 OA
HETATM   23  C   UNK N   1      29.670  19.648 -10.421  0.00  0.00     0.213 C 
ENDBRANCH  20  22
ENDBRANCH  16  20
ENDBRANCH  13  16
ENDBRANCH   8  12
ENDBRANCH   5   8
ENDBRANCH   3   4
ENDBRANCH   2   3
ENDBRANCH   1   2
BRANCH   1  24
HETATM   24  C   UNK N   1      26.178  24.844  -5.519  0.00  0.00     0.117 C 
BRANCH  24  25
HETATM   25  C   UNK N   1      25.396  26.146  -5.788  0.00  0.00     0.066 C 
BRANCH  25  26
HETATM   26  C   UNK N   1      26.096  27.441  -5.516  0.00  0.00    -0.056 A 
HETATM   27  C   UNK N   1      27.133  27.894  -6.341  0.00  0.00     0.007 A 
HETATM   28  C   UNK N   1      27.784  29.097  -6.045  0.00  0.00     0.001 A 
HETATM   29  C   UNK N   1      27.407  29.840  -4.920  0.00  0.00     0.000 A 
HETATM   30  C   UNK N   1      26.376  29.383  -4.095  0.00  0.00     0.001 A 
HETATM   31  C   UNK N   1      25.722  28.188  -4.397  0.00  0.00     0.007 A 
ENDBRANCH  25  26
ENDBRANCH  24  25
BRANCH  24  32
HETATM   32  N   UNK N   1      25.355  23.677  -5.786  0.00  0.00    -0.352 N 
HETATM   33  C   UNK N   1      25.580  22.654  -6.666  0.00  0.00     0.240 C 
HETATM   34  O   UNK N   1      24.758  21.751  -6.696  0.00  0.00    -0.271 OA
HETATM   35  H   UNK N   1      24.524  23.615  -5.263  0.00  0.00     0.163 HD
BRANCH  33  36
HETATM   36  C   UNK N   1      26.777  22.547  -7.624  0.00  0.00     0.172 C 
HETATM   37  C   UNK N   1      28.148  22.512  -6.978  0.00  0.00     0.042 C 
BRANCH  36  38
HETATM   38  N   UNK N   1      26.768  23.717  -8.475  0.00  0.00    -0.346 N 
HETATM   39  C   UNK N   1      26.131  23.805  -9.670  0.00  0.00     0.240 C 
HETATM   40  O   UNK N   1      25.581  22.826 -10.156  0.00  0.00    -0.271 OA
HETATM   41  H   UNK N   1      27.260  24.510  -8.164  0.00  0.00     0.163 HD
BRANCH  39  42
HETATM   42  C   UNK N   1      26.097  25.118 -10.400  0.00  0.00     0.163 C 
HETATM   43  C   UNK N   1      26.876  26.169  -9.634  0.00  0.00     0.041 C 
BRANCH  42  44
HETATM   44  N   UNK N   1      24.728  25.580 -10.577  0.00  0.00    -0.419 N 
HETATM   45  H   UNK N   1      24.160  25.932  -9.808  0.00  0.00     0.150 HD
HETATM   46  H   UNK N   1      24.320  25.550 -11.511  0.00  0.00     0.150 HD
ENDBRANCH  42  44
ENDBRANCH  39  42
ENDBRANCH  36  38
ENDBRANCH  33  36
ENDBRANCH  24  32
ENDBRANCH   1  24
BRANCH   1  47
HETATM   47  O   UNK N   1      25.967  23.946  -3.271  0.00  0.00    -0.393 OA
HETATM   48  H   UNK N   1      25.513  23.172  -3.640  0.00  0.00     0.210 HD
ENDBRANCH   1  47
TORSDOF 19
ENDMDL
MODEL 6
REMARK VINA RESULT:      -6.6      1.840      3.159
REMARK  19 active torsions:
REMARK  status: ('A' for Active; 'I' for Inactive)
REMARK    1  A    between atoms: C_14  and  C_13 
REMARK    2  A    between atoms: C_22  and  C_13 
REMARK    3  A    between atoms: C_23  and  C_14 
REMARK    4  A    between atoms: C_20  and  C_15 
REMARK    5  A    between atoms: C_21  and  C_15 
REMARK    6  A    between atoms: C_24  and  C_16 
REMARK    7  A    between atoms: C_25  and  C_17 
REMARK    8  A    between atoms: C_26  and  C_18 
REMARK    9  A    between atoms: C_18  and  N_30 
REMARK   10  A    between atoms: C_27  and  C_19 
REMARK   11  A    between atoms: N_31  and  C_19 
REMARK   12  A    between atoms: C_22  and  C_21 
REMARK   13  A    between atoms: C_21  and  N_32 
REMARK   14  A    between atoms: C_22  and  O_35 
REMARK       I    between atoms: N_33  and  C_23 
REMARK   15  A    between atoms: C_28  and  C_24 
REMARK   16  A    between atoms: C_24  and  N_33 
REMARK   17  A    between atoms: C_29  and  C_25 
REMARK   18  A    between atoms: C_25  and  N_34 
REMARK       I    between atoms: N_31  and  C_26 
REMARK       I    between atoms: N_32  and  C_27 
REMARK       I    between atoms: N_34  and  C_28 
REMARK   19  A    between atoms: O_41  and  C_29 
ROOT
HETATM    1  C   UNK N   1      26.712  24.892  -4.096  0.00  0.00     0.141 C 
ENDROOT
BRANCH   1   2
HETATM    2  C   UNK N   1      28.149  24.376  -4.090  0.00  0.00     0.043 C 
BRANCH   2   3
HETATM    3  C   UNK N   1      29.158  25.483  -4.283  0.00  0.00     0.105 C 
BRANCH   3   4
HETATM    4  C   UNK N   1      30.548  25.008  -4.032  0.00  0.00     0.218 C 
HETATM    5  N   UNK N   1      31.424  24.997  -5.071  0.00  0.00    -0.347 N 
HETATM    6  H   UNK N   1      31.038  25.126  -5.968  0.00  0.00     0.163 HD
HETATM    7  O   UNK N   1      30.902  24.727  -2.899  0.00  0.00    -0.274 OA
BRANCH   5   8
HETATM    8  C   UNK N   1      32.864  24.818  -5.012  0.00  0.00     0.180 C 
BRANCH   8   9
HETATM    9  C   UNK N   1      33.689  25.980  -5.619  0.00  0.00     0.009 C 
HETATM   10  C   UNK N   1      35.179  25.904  -5.338  0.00  0.00     0.012 C 
HETATM   11  C   UNK N   1      33.182  27.336  -5.154  0.00  0.00     0.012 C 
ENDBRANCH   8   9
BRANCH   8  12
HETATM   12  C   UNK N   1      33.263  23.459  -5.533  0.00  0.00     0.241 C 
HETATM   13  N   UNK N   1      33.902  22.592  -4.726  0.00  0.00    -0.345 N 
HETATM   14  H   UNK N   1      34.146  22.914  -3.827  0.00  0.00     0.163 HD
HETATM   15  O   UNK N   1      32.957  23.131  -6.679  0.00  0.00    -0.271 OA
BRANCH  13  16
HETATM   16  C   UNK N   1      34.267  21.223  -5.057  0.00  0.00     0.187 C 
BRANCH  16  17
HETATM   17  C   UNK N   1      33.573  20.187  -4.133  0.00  0.00     0.010 C 
HETATM   18  C   UNK N   1      33.339  20.646  -2.704  0.00  0.00     0.012 C 
HETATM   19  C   UNK N   1      34.235  18.819  -4.156  0.00  0.00     0.012 C 
ENDBRANCH  16  17
BRANCH  16  20
HETATM   20  C   UNK N   1      35.771  21.072  -4.916  0.00  0.00     0.281 C 
HETATM   21  O   UNK N   1      36.435  20.719  -5.885  0.00  0.00    -0.263 OA
BRANCH  20  22
HETATM   22  O   UNK N   1      36.415  21.312  -3.746  0.00  0.00    -0.325 OA
HETATM   23  C   UNK N   1      37.560  22.067  -3.646  0.00  0.00     0.213 C 
ENDBRANCH  20  22
ENDBRANCH  16  20
ENDBRANCH  13  16
ENDBRANCH   8  12
ENDBRANCH   5   8
ENDBRANCH   3   4
ENDBRANCH   2   3
ENDBRANCH   1   2
BRANCH   1  24
HETATM   24  C   UNK N   1      26.209  24.960  -5.551  0.00  0.00     0.117 C 
BRANCH  24  25
HETATM   25  C   UNK N   1      25.383  26.253  -5.711  0.00  0.00     0.066 C 
BRANCH  25  26
HETATM   26  C   UNK N   1      26.061  27.549  -5.394  0.00  0.00    -0.056 A 
HETATM   27  C   UNK N   1      27.077  28.059  -6.214  0.00  0.00     0.007 A 
HETATM   28  C   UNK N   1      27.707  29.262  -5.875  0.00  0.00     0.001 A 
HETATM   29  C   UNK N   1      27.333  29.947  -4.715  0.00  0.00     0.000 A 
HETATM   30  C   UNK N   1      26.324  29.435  -3.895  0.00  0.00     0.001 A 
HETATM   31  C   UNK N   1      25.690  28.241  -4.238  0.00  0.00     0.007 A 
ENDBRANCH  25  26
ENDBRANCH  24  25
BRANCH  24  32
HETATM   32  N   UNK N   1      25.417  23.791  -5.889  0.00  0.00    -0.352 N 
HETATM   33  C   UNK N   1      25.677  22.820  -6.816  0.00  0.00     0.240 C 
HETATM   34  O   UNK N   1      24.876  21.901  -6.904  0.00  0.00    -0.271 OA
HETATM   35  H   UNK N   1      24.580  23.682  -5.382  0.00  0.00     0.163 HD
BRANCH  33  36
HETATM   36  C   UNK N   1      26.889  22.789  -7.762  0.00  0.00     0.172 C 
HETATM   37  C   UNK N   1      26.608  22.380  -9.193  0.00  0.00     0.042 C 
BRANCH  36  38
HETATM   38  N   UNK N   1      27.827  21.817  -7.245  0.00  0.00    -0.346 N 
HETATM   39  C   UNK N   1      29.096  22.092  -6.854  0.00  0.00     0.240 C 
HETATM   40  O   UNK N   1      29.568  23.211  -7.008  0.00  0.00    -0.271 OA
HETATM   41  H   UNK N   1      27.521  20.884  -7.172  0.00  0.00     0.163 HD
BRANCH  39  42
HETATM   42  C   UNK N   1      29.930  21.013  -6.221  0.00  0.00     0.163 C 
HETATM   43  C   UNK N   1      30.268  21.378  -4.789  0.00  0.00     0.041 C 
BRANCH  42  44
HETATM   44  N   UNK N   1      31.166  20.809  -6.962  0.00  0.00    -0.419 N 
HETATM   45  H   UNK N   1      31.733  19.967  -6.871  0.00  0.00     0.150 HD
HETATM   46  H   UNK N   1      31.479  21.541  -7.600  0.00  0.00     0.150 HD
ENDBRANCH  42  44
ENDBRANCH  39  42
ENDBRANCH  36  38
ENDBRANCH  33  36
ENDBRANCH  24  32
ENDBRANCH   1  24
BRANCH   1  47
HETATM   47  O   UNK N   1      25.949  24.021  -3.324  0.00  0.00    -0.393 OA
HETATM   48  H   UNK N   1      25.181  24.307  -2.807  0.00  0.00     0.210 HD
ENDBRANCH   1  47
TORSDOF 19
ENDMDL
MODEL 7
REMARK VINA RESULT:      -6.6     15.195     20.482
REMARK  19 active torsions:
REMARK  status: ('A' for Active; 'I' for Inactive)
REMARK    1  A    between atoms: C_14  and  C_13 
REMARK    2  A    between atoms: C_22  and  C_13 
REMARK    3  A    between atoms: C_23  and  C_14 
REMARK    4  A    between atoms: C_20  and  C_15 
REMARK    5  A    between atoms: C_21  and  C_15 
REMARK    6  A    between atoms: C_24  and  C_16 
REMARK    7  A    between atoms: C_25  and  C_17 
REMARK    8  A    between atoms: C_26  and  C_18 
REMARK    9  A    between atoms: C_18  and  N_30 
REMARK   10  A    between atoms: C_27  and  C_19 
REMARK   11  A    between atoms: N_31  and  C_19 
REMARK   12  A    between atoms: C_22  and  C_21 
REMARK   13  A    between atoms: C_21  and  N_32 
REMARK   14  A    between atoms: C_22  and  O_35 
REMARK       I    between atoms: N_33  and  C_23 
REMARK   15  A    between atoms: C_28  and  C_24 
REMARK   16  A    between atoms: C_24  and  N_33 
REMARK   17  A    between atoms: C_29  and  C_25 
REMARK   18  A    between atoms: C_25  and  N_34 
REMARK       I    between atoms: N_31  and  C_26 
REMARK       I    between atoms: N_32  and  C_27 
REMARK       I    between atoms: N_34  and  C_28 
REMARK   19  A    between atoms: O_41  and  C_29 
ROOT
HETATM    1  C   UNK N   1      35.731  15.560  11.205  0.00  0.00     0.141 C 
ENDROOT
BRANCH   1   2
HETATM    2  C   UNK N   1      34.913  15.346   9.934  0.00  0.00     0.043 C 
BRANCH   2   3
HETATM    3  C   UNK N   1      33.491  14.931  10.229  0.00  0.00     0.105 C 
BRANCH   3   4
HETATM    4  C   UNK N   1      32.728  14.662   8.977  0.00  0.00     0.218 C 
HETATM    5  N   UNK N   1      32.690  15.630   8.024  0.00  0.00    -0.347 N 
HETATM    6  H   UNK N   1      33.012  16.520   8.294  0.00  0.00     0.163 HD
HETATM    7  O   UNK N   1      32.232  13.564   8.788  0.00  0.00    -0.274 OA
BRANCH   5   8
HETATM    8  C   UNK N   1      32.232  15.501   6.652  0.00  0.00     0.180 C 
BRANCH   8   9
HETATM    9  C   UNK N   1      33.030  16.336   5.620  0.00  0.00     0.009 C 
HETATM   10  C   UNK N   1      34.053  15.541   4.827  0.00  0.00     0.012 C 
HETATM   11  C   UNK N   1      33.737  17.514   6.270  0.00  0.00     0.012 C 
ENDBRANCH   8   9
BRANCH   8  12
HETATM   12  C   UNK N   1      30.738  15.697   6.560  0.00  0.00     0.241 C 
HETATM   13  N   UNK N   1      30.165  16.768   7.139  0.00  0.00    -0.345 N 
HETATM   14  H   UNK N   1      30.751  17.359   7.667  0.00  0.00     0.163 HD
HETATM   15  O   UNK N   1      30.057  14.903   5.911  0.00  0.00    -0.271 OA
BRANCH  13  16
HETATM   16  C   UNK N   1      28.759  17.136   7.057  0.00  0.00     0.187 C 
BRANCH  16  17
HETATM   17  C   UNK N   1      28.509  18.295   6.057  0.00  0.00     0.010 C 
HETATM   18  C   UNK N   1      27.057  18.703   5.884  0.00  0.00     0.012 C 
HETATM   19  C   UNK N   1      29.171  18.078   4.705  0.00  0.00     0.012 C 
ENDBRANCH  16  17
BRANCH  16  20
HETATM   20  C   UNK N   1      28.289  17.571   8.435  0.00  0.00     0.281 C 
HETATM   21  O   UNK N   1      27.499  16.865   9.052  0.00  0.00    -0.263 OA
BRANCH  20  22
HETATM   22  O   UNK N   1      28.712  18.723   9.012  0.00  0.00    -0.325 OA
HETATM   23  C   UNK N   1      29.765  18.794   9.894  0.00  0.00     0.213 C 
ENDBRANCH  20  22
ENDBRANCH  16  20
ENDBRANCH  13  16
ENDBRANCH   8  12
ENDBRANCH   5   8
ENDBRANCH   3   4
ENDBRANCH   2   3
ENDBRANCH   1   2
BRANCH   1  24
HETATM   24  C   UNK N   1      36.167  14.189  11.759  0.00  0.00     0.117 C 
BRANCH  24  25
HETATM   25  C   UNK N   1      36.127  14.261  13.299  0.00  0.00     0.066 C 
BRANCH  25  26
HETATM   26  C   UNK N   1      35.454  13.139  14.026  0.00  0.00    -0.056 A 
HETATM   27  C   UNK N   1      35.543  13.017  15.418  0.00  0.00     0.007 A 
HETATM   28  C   UNK N   1      34.922  11.942  16.064  0.00  0.00     0.001 A 
HETATM   29  C   UNK N   1      34.225  10.984  15.320  0.00  0.00     0.000 A 
HETATM   30  C   UNK N   1      34.143  11.104  13.930  0.00  0.00     0.001 A 
HETATM   31  C   UNK N   1      34.754  12.181  13.288  0.00  0.00     0.007 A 
ENDBRANCH  25  26
ENDBRANCH  24  25
BRANCH  24  32
HETATM   32  N   UNK N   1      37.492  13.828  11.288  0.00  0.00    -0.352 N 
HETATM   33  C   UNK N   1      37.925  12.633  10.783  0.00  0.00     0.240 C 
HETATM   34  O   UNK N   1      39.088  12.570  10.413  0.00  0.00    -0.271 OA
HETATM   35  H   UNK N   1      38.170  14.540  11.339  0.00  0.00     0.163 HD
BRANCH  33  36
HETATM   36  C   UNK N   1      37.074  11.361  10.646  0.00  0.00     0.172 C 
HETATM   37  C   UNK N   1      37.809  10.045  10.806  0.00  0.00     0.042 C 
BRANCH  36  38
HETATM   38  N   UNK N   1      36.515  11.345   9.311  0.00  0.00    -0.346 N 
HETATM   39  C   UNK N   1      35.190  11.304   9.024  0.00  0.00     0.240 C 
HETATM   40  O   UNK N   1      34.361  11.181   9.916  0.00  0.00    -0.271 OA
HETATM   41  H   UNK N   1      37.144  11.366   8.555  0.00  0.00     0.163 HD
BRANCH  39  42
HETATM   42  C   UNK N   1      34.736  11.415   7.595  0.00  0.00     0.163 C 
HETATM   43  C   UNK N   1      35.169  12.742   7.004  0.00  0.00     0.041 C 
BRANCH  42  44
HETATM   44  N   UNK N   1      33.287  11.304   7.500  0.00  0.00    -0.419 N 
HETATM   45  H   UNK N   1      32.656  11.697   8.197  0.00  0.00     0.150 HD
HETATM   46  H   UNK N   1      32.887  10.813   6.701  0.00  0.00     0.150 HD
ENDBRANCH  42  44
ENDBRANCH  39  42
ENDBRANCH  36  38
ENDBRANCH  33  36
ENDBRANCH  24  32
ENDBRANCH   1  24
BRANCH   1  47
HETATM   47  O   UNK N   1      36.824  16.355  10.873  0.00  0.00    -0.393 OA
HETATM   48  H   UNK N   1      37.404  16.760  11.536  0.00  0.00     0.210 HD
ENDBRANCH   1  47
TORSDOF 19
ENDMDL
MODEL 8
REMARK VINA RESULT:      -6.6     13.590     16.442
REMARK  19 active torsions:
REMARK  status: ('A' for Active; 'I' for Inactive)
REMARK    1  A    between atoms: C_14  and  C_13 
REMARK    2  A    between atoms: C_22  and  C_13 
REMARK    3  A    between atoms: C_23  and  C_14 
REMARK    4  A    between atoms: C_20  and  C_15 
REMARK    5  A    between atoms: C_21  and  C_15 
REMARK    6  A    between atoms: C_24  and  C_16 
REMARK    7  A    between atoms: C_25  and  C_17 
REMARK    8  A    between atoms: C_26  and  C_18 
REMARK    9  A    between atoms: C_18  and  N_30 
REMARK   10  A    between atoms: C_27  and  C_19 
REMARK   11  A    between atoms: N_31  and  C_19 
REMARK   12  A    between atoms: C_22  and  C_21 
REMARK   13  A    between atoms: C_21  and  N_32 
REMARK   14  A    between atoms: C_22  and  O_35 
REMARK       I    between atoms: N_33  and  C_23 
REMARK   15  A    between atoms: C_28  and  C_24 
REMARK   16  A    between atoms: C_24  and  N_33 
REMARK   17  A    between atoms: C_29  and  C_25 
REMARK   18  A    between atoms: C_25  and  N_34 
REMARK       I    between atoms: N_31  and  C_26 
REMARK       I    between atoms: N_32  and  C_27 
REMARK       I    between atoms: N_34  and  C_28 
REMARK   19  A    between atoms: O_41  and  C_29 
ROOT
HETATM    1  C   UNK N   1      24.148  14.837   6.184  0.00  0.00     0.141 C 
ENDROOT
BRANCH   1   2
HETATM    2  C   UNK N   1      25.477  14.086   6.233  0.00  0.00     0.043 C 
BRANCH   2   3
HETATM    3  C   UNK N   1      26.398  14.475   5.100  0.00  0.00     0.105 C 
BRANCH   3   4
HETATM    4  C   UNK N   1      27.642  15.123   5.602  0.00  0.00     0.218 C 
HETATM    5  N   UNK N   1      27.531  16.304   6.266  0.00  0.00    -0.347 N 
HETATM    6  H   UNK N   1      26.657  16.753   6.212  0.00  0.00     0.163 HD
HETATM    7  O   UNK N   1      28.715  14.553   5.495  0.00  0.00    -0.274 OA
BRANCH   5   8
HETATM    8  C   UNK N   1      28.553  16.979   7.046  0.00  0.00     0.180 C 
BRANCH   8   9
HETATM    9  C   UNK N   1      28.043  18.169   7.896  0.00  0.00     0.009 C 
HETATM   10  C   UNK N   1      27.851  19.459   7.117  0.00  0.00     0.012 C 
HETATM   11  C   UNK N   1      28.957  18.453   9.077  0.00  0.00     0.012 C 
ENDBRANCH   8   9
BRANCH   8  12
HETATM   12  C   UNK N   1      29.751  17.318   6.192  0.00  0.00     0.241 C 
HETATM   13  N   UNK N   1      30.972  16.871   6.541  0.00  0.00    -0.345 N 
HETATM   14  H   UNK N   1      31.043  16.385   7.395  0.00  0.00     0.163 HD
HETATM   15  O   UNK N   1      29.598  17.959   5.153  0.00  0.00    -0.271 OA
BRANCH  13  16
HETATM   16  C   UNK N   1      32.197  17.040   5.774  0.00  0.00     0.187 C 
BRANCH  16  17
HETATM   17  C   UNK N   1      32.702  15.704   5.168  0.00  0.00     0.010 C 
HETATM   18  C   UNK N   1      31.970  15.239   3.921  0.00  0.00     0.012 C 
HETATM   19  C   UNK N   1      32.798  14.578   6.185  0.00  0.00     0.012 C 
ENDBRANCH  16  17
BRANCH  16  20
HETATM   20  C   UNK N   1      33.272  17.596   6.691  0.00  0.00     0.281 C 
HETATM   21  O   UNK N   1      34.359  17.915   6.221  0.00  0.00    -0.263 OA
BRANCH  20  22
HETATM   22  O   UNK N   1      33.075  17.753   8.024  0.00  0.00    -0.325 OA
HETATM   23  C   UNK N   1      33.771  17.058   8.986  0.00  0.00     0.213 C 
ENDBRANCH  20  22
ENDBRANCH  16  20
ENDBRANCH  13  16
ENDBRANCH   8  12
ENDBRANCH   5   8
ENDBRANCH   3   4
ENDBRANCH   2   3
ENDBRANCH   1   2
BRANCH   1  24
HETATM   24  C   UNK N   1      23.238  14.322   7.316  0.00  0.00     0.117 C 
BRANCH  24  25
HETATM   25  C   UNK N   1      23.807  12.977   7.812  0.00  0.00     0.066 C 
BRANCH  25  26
HETATM   26  C   UNK N   1      23.547  12.601   9.238  0.00  0.00    -0.056 A 
HETATM   27  C   UNK N   1      22.242  12.458   9.726  0.00  0.00     0.007 A 
HETATM   28  C   UNK N   1      22.033  12.129  11.070  0.00  0.00     0.001 A 
HETATM   29  C   UNK N   1      23.125  11.957  11.928  0.00  0.00     0.000 A 
HETATM   30  C   UNK N   1      24.425  12.106  11.441  0.00  0.00     0.001 A 
HETATM   31  C   UNK N   1      24.633  12.424  10.099  0.00  0.00     0.007 A 
ENDBRANCH  25  26
ENDBRANCH  24  25
BRANCH  24  32
HETATM   32  N   UNK N   1      21.867  14.172   6.862  0.00  0.00    -0.352 N 
HETATM   33  C   UNK N   1      20.873  15.110   6.817  0.00  0.00     0.240 C 
HETATM   34  O   UNK N   1      19.795  14.761   6.359  0.00  0.00    -0.271 OA
HETATM   35  H   UNK N   1      21.620  13.273   6.544  0.00  0.00     0.163 HD
BRANCH  33  36
HETATM   36  C   UNK N   1      20.995  16.565   7.298  0.00  0.00     0.172 C 
HETATM   37  C   UNK N   1      20.086  16.968   8.441  0.00  0.00     0.042 C 
BRANCH  36  38
HETATM   38  N   UNK N   1      20.648  17.427   6.189  0.00  0.00    -0.346 N 
HETATM   39  C   UNK N   1      21.531  18.174   5.479  0.00  0.00     0.240 C 
HETATM   40  O   UNK N   1      22.707  18.232   5.811  0.00  0.00    -0.271 OA
HETATM   41  H   UNK N   1      19.700  17.475   5.929  0.00  0.00     0.163 HD
BRANCH  39  42
HETATM   42  C   UNK N   1      21.058  18.935   4.272  0.00  0.00     0.163 C 
HETATM   43  C   UNK N   1      20.223  18.040   3.377  0.00  0.00     0.041 C 
BRANCH  42  44
HETATM   44  N   UNK N   1      22.185  19.450   3.508  0.00  0.00    -0.419 N 
HETATM   45  H   UNK N   1      22.271  20.430   3.242  0.00  0.00     0.150 HD
HETATM   46  H   UNK N   1      22.921  18.802   3.227  0.00  0.00     0.150 HD
ENDBRANCH  42  44
ENDBRANCH  39  42
ENDBRANCH  36  38
ENDBRANCH  33  36
ENDBRANCH  24  32
ENDBRANCH   1  24
BRANCH   1  47
HETATM   47  O   UNK N   1      24.426  16.193   6.321  0.00  0.00    -0.393 OA
HETATM   48  H   UNK N   1      25.220  16.611   5.951  0.00  0.00     0.210 HD
ENDBRANCH   1  47
TORSDOF 19
ENDMDL
MODEL 9
REMARK VINA RESULT:      -6.6     11.967     15.156
REMARK  19 active torsions:
REMARK  status: ('A' for Active; 'I' for Inactive)
REMARK    1  A    between atoms: C_14  and  C_13 
REMARK    2  A    between atoms: C_22  and  C_13 
REMARK    3  A    between atoms: C_23  and  C_14 
REMARK    4  A    between atoms: C_20  and  C_15 
REMARK    5  A    between atoms: C_21  and  C_15 
REMARK    6  A    between atoms: C_24  and  C_16 
REMARK    7  A    between atoms: C_25  and  C_17 
REMARK    8  A    between atoms: C_26  and  C_18 
REMARK    9  A    between atoms: C_18  and  N_30 
REMARK   10  A    between atoms: C_27  and  C_19 
REMARK   11  A    between atoms: N_31  and  C_19 
REMARK   12  A    between atoms: C_22  and  C_21 
REMARK   13  A    between atoms: C_21  and  N_32 
REMARK   14  A    between atoms: C_22  and  O_35 
REMARK       I    between atoms: N_33  and  C_23 
REMARK   15  A    between atoms: C_28  and  C_24 
REMARK   16  A    between atoms: C_24  and  N_33 
REMARK   17  A    between atoms: C_29  and  C_25 
REMARK   18  A    between atoms: C_25  and  N_34 
REMARK       I    between atoms: N_31  and  C_26 
REMARK       I    between atoms: N_32  and  C_27 
REMARK       I    between atoms: N_34  and  C_28 
REMARK   19  A    between atoms: O_41  and  C_29 
ROOT
HETATM    1  C   UNK N   1      28.478  18.277   8.431  0.00  0.00     0.141 C 
ENDROOT
BRANCH   1   2
HETATM    2  C   UNK N   1      29.797  17.525   8.272  0.00  0.00     0.043 C 
BRANCH   2   3
HETATM    3  C   UNK N   1      30.949  18.240   8.938  0.00  0.00     0.105 C 
BRANCH   3   4
HETATM    4  C   UNK N   1      32.234  17.989   8.226  0.00  0.00     0.218 C 
HETATM    5  N   UNK N   1      32.254  17.052   7.242  0.00  0.00    -0.347 N 
HETATM    6  H   UNK N   1      31.467  16.464   7.184  0.00  0.00     0.163 HD
HETATM    7  O   UNK N   1      33.211  18.678   8.468  0.00  0.00    -0.274 OA
BRANCH   5   8
HETATM    8  C   UNK N   1      33.303  16.820   6.265  0.00  0.00     0.180 C 
BRANCH   8   9
HETATM    9  C   UNK N   1      32.799  16.490   4.837  0.00  0.00     0.009 C 
HETATM   10  C   UNK N   1      32.163  17.662   4.110  0.00  0.00     0.012 C 
HETATM   11  C   UNK N   1      31.811  15.334   4.839  0.00  0.00     0.012 C 
ENDBRANCH   8   9
BRANCH   8  12
HETATM   12  C   UNK N   1      34.321  15.836   6.786  0.00  0.00     0.241 C 
HETATM   13  N   UNK N   1      34.019  15.051   7.838  0.00  0.00    -0.345 N 
HETATM   14  H   UNK N   1      33.149  15.203   8.274  0.00  0.00     0.163 HD
HETATM   15  O   UNK N   1      35.405  15.718   6.216  0.00  0.00    -0.271 OA
BRANCH  13  16
HETATM   16  C   UNK N   1      34.859  14.000   8.391  0.00  0.00     0.187 C 
BRANCH  16  17
HETATM   17  C   UNK N   1      34.175  12.609   8.338  0.00  0.00     0.010 C 
HETATM   18  C   UNK N   1      35.050  11.437   8.748  0.00  0.00     0.012 C 
HETATM   19  C   UNK N   1      33.485  12.326   7.013  0.00  0.00     0.012 C 
ENDBRANCH  16  17
BRANCH  16  20
HETATM   20  C   UNK N   1      35.169  14.336   9.840  0.00  0.00     0.281 C 
HETATM   21  O   UNK N   1      34.246  14.522  10.625  0.00  0.00    -0.263 OA
BRANCH  20  22
HETATM   22  O   UNK N   1      36.440  14.443  10.301  0.00  0.00    -0.325 OA
HETATM   23  C   UNK N   1      37.034  13.517  11.126  0.00  0.00     0.213 C 
ENDBRANCH  20  22
ENDBRANCH  16  20
ENDBRANCH  13  16
ENDBRANCH   8  12
ENDBRANCH   5   8
ENDBRANCH   3   4
ENDBRANCH   2   3
ENDBRANCH   1   2
BRANCH   1  24
HETATM   24  C   UNK N   1      27.809  18.417   7.049  0.00  0.00     0.117 C 
BRANCH  24  25
HETATM   25  C   UNK N   1      28.844  18.023   5.975  0.00  0.00     0.066 C 
BRANCH  25  26
HETATM   26  C   UNK N   1      28.516  16.859   5.095  0.00  0.00    -0.056 A 
HETATM   27  C   UNK N   1      28.140  15.621   5.634  0.00  0.00     0.007 A 
HETATM   28  C   UNK N   1      27.863  14.546   4.782  0.00  0.00     0.001 A 
HETATM   29  C   UNK N   1      27.973  14.702   3.396  0.00  0.00     0.000 A 
HETATM   30  C   UNK N   1      28.354  15.934   2.860  0.00  0.00     0.001 A 
HETATM   31  C   UNK N   1      28.620  17.009   3.709  0.00  0.00     0.007 A 
ENDBRANCH  25  26
ENDBRANCH  24  25
BRANCH  24  32
HETATM   32  N   UNK N   1      27.324  19.769   6.834  0.00  0.00    -0.352 N 
HETATM   33  C   UNK N   1      26.512  20.238   5.838  0.00  0.00     0.240 C 
HETATM   34  O   UNK N   1      26.203  21.420   5.879  0.00  0.00    -0.271 OA
HETATM   35  H   UNK N   1      27.620  20.438   7.493  0.00  0.00     0.163 HD
BRANCH  33  36
HETATM   36  C   UNK N   1      25.959  19.406   4.670  0.00  0.00     0.172 C 
HETATM   37  C   UNK N   1      25.603  20.174   3.413  0.00  0.00     0.042 C 
BRANCH  36  38
HETATM   38  N   UNK N   1      24.732  18.781   5.116  0.00  0.00    -0.346 N 
HETATM   39  C   UNK N   1      24.382  17.494   4.869  0.00  0.00     0.240 C 
HETATM   40  O   UNK N   1      25.072  16.787   4.148  0.00  0.00    -0.271 OA
HETATM   41  H   UNK N   1      24.104  19.331   5.637  0.00  0.00     0.163 HD
BRANCH  39  42
HETATM   42  C   UNK N   1      23.135  16.931   5.492  0.00  0.00     0.163 C 
HETATM   43  C   UNK N   1      22.308  16.199   4.452  0.00  0.00     0.041 C 
BRANCH  42  44
HETATM   44  N   UNK N   1      22.326  17.988   6.082  0.00  0.00    -0.419 N 
HETATM   45  H   UNK N   1      22.197  18.089   7.087  0.00  0.00     0.150 HD
HETATM   46  H   UNK N   1      21.868  18.655   5.461  0.00  0.00     0.150 HD
ENDBRANCH  42  44
ENDBRANCH  39  42
ENDBRANCH  36  38
ENDBRANCH  33  36
ENDBRANCH  24  32
ENDBRANCH   1  24
BRANCH   1  47
HETATM   47  O   UNK N   1      27.685  17.553   9.317  0.00  0.00    -0.393 OA
HETATM   48  H   UNK N   1      27.712  16.586   9.382  0.00  0.00     0.210 HD
ENDBRANCH   1  47
TORSDOF 19
ENDMDL
