REMARK  15 active torsions:
REMARK  status: ('A' for Active; 'I' for Inactive)
REMARK    1  A    between atoms: C_2  and  N_1 
REMARK    2  A    between atoms: C_2  and  C_3 
REMARK    3  A    between atoms: C_2  and  C_17 
REMARK    4  A    between atoms: C_3  and  C_4 
REMARK    5  A    between atoms: C_4  and  C_5 
REMARK    6  A    between atoms: C_5  and  C_6 
REMARK    7  A    between atoms: C_6  and  N_7 
REMARK    8  A    between atoms: C_8  and  N_7 
REMARK    9  A    between atoms: C_8  and  C_9 
REMARK   10  A    between atoms: C_8  and  C_14 
REMARK   11  A    between atoms: C_9  and  C_10 
REMARK   12  A    between atoms: C_10  and  C_11 
REMARK   13  A    between atoms: C_11  and  O_12 
REMARK   14  A    between atoms: C_14  and  O_15 
REMARK   15  A    between atoms: C_17  and  O_18 
ROOT
HETATM    1  N   UNK N   1       9.060   2.996  -0.408  0.00  0.00    -0.408 N 
HETATM    2  H   UNK N   1       9.024   2.674  -1.375  0.00  0.00     0.154 HD
ENDROOT
BRANCH   1   3
HETATM    3  C   UNK N   1      10.104   2.699   0.557  0.00  0.00     0.114 C 
BRANCH   3   4
HETATM    4  C   UNK N   1      11.392   2.372  -0.178  0.00  0.00     0.019 C 
BRANCH   4   5
HETATM    5  C   UNK N   1      11.886   3.571  -0.977  0.00  0.00     0.004 C 
BRANCH   5   6
HETATM    6  C   UNK N   1      12.391   4.657  -0.040  0.00  0.00     0.035 C 
BRANCH   6   7
HETATM    7  C   UNK N   1      13.858   4.978  -0.302  0.00  0.00     0.173 C 
BRANCH   7   8
HETATM    8  N   UNK N   1      14.223   6.152   0.472  0.00  0.00    -0.418 N 
HETATM    9  H   UNK N   1      15.065   6.342   1.016  0.00  0.00     0.150 HD
HETATM   10  H   UNK N   1      13.531   6.901   0.472  0.00  0.00     0.150 HD
ENDBRANCH   7   8
BRANCH   7  11
HETATM   11  C   UNK N   1      14.797   3.848   0.034  0.00  0.00     0.163 C 
HETATM   12  O   UNK N   1      14.375   2.784   0.467  0.00  0.00    -0.648 OA
BRANCH  11  13
HETATM   13  O   UNK N   1      16.120   4.008  -0.146  0.00  0.00    -0.775 OA
HETATM   14  H   UNK N   1      16.677   3.266  -0.272  0.00  0.00     0.167 HD
ENDBRANCH  11  13
ENDBRANCH   7  11
ENDBRANCH   6   7
ENDBRANCH   5   6
ENDBRANCH   4   5
ENDBRANCH   3   4
ENDBRANCH   1   3
BRANCH   1  15
HETATM   15  C   UNK N   1       8.077   3.836   0.253  0.00  0.00     0.176 C 
BRANCH  15  16
HETATM   16  C   UNK N   1       6.702   3.425  -0.245  0.00  0.00     0.046 C 
BRANCH  16  17
HETATM   17  C   UNK N   1       5.608   3.923   0.678  0.00  0.00     0.112 C 
BRANCH  17  18
HETATM   18  C   UNK N   1       4.289   3.423   0.191  0.00  0.00     0.139 C 
HETATM   19  O   UNK N   1       4.072   2.224   0.128  0.00  0.00    -0.650 OA
BRANCH  18  20
HETATM   20  O   UNK N   1       3.338   4.298  -0.181  0.00  0.00    -0.776 OA
HETATM   21  H   UNK N   1       3.534   5.177  -0.440  0.00  0.00     0.167 HD
ENDBRANCH  18  20
ENDBRANCH  17  18
ENDBRANCH  16  17
ENDBRANCH  15  16
BRANCH  15  22
HETATM   22  C   UNK N   1       8.380   5.292  -0.012  0.00  0.00     0.163 C 
HETATM   23  O   UNK N   1       9.446   5.764   0.348  0.00  0.00    -0.648 OA
BRANCH  22  24
HETATM   24  O   UNK N   1       7.486   6.082  -0.640  0.00  0.00    -0.775 OA
HETATM   25  H   UNK N   1       7.651   6.894  -1.077  0.00  0.00     0.167 HD
ENDBRANCH  22  24
ENDBRANCH  15  22
ENDBRANCH   1  15
TORSDOF 15
