MODEL 1
REMARK VINA RESULT:      -4.3      0.000      0.000
REMARK  1 active torsions:
REMARK  status: ('A' for Active; 'I' for Inactive)
REMARK    1  A    between atoms: C_8  and  O_10 
ROOT
HETATM    1  C   UNK N   1      27.207  27.342  -7.270  0.00  0.00     0.310 C 
HETATM    2  C   UNK N   1      25.656  27.798  -4.796  0.00  0.00     0.038 C 
HETATM    3  C   UNK N   1      24.764  26.912  -5.649  0.00  0.00     0.038 C 
HETATM    4  C   UNK N   1      27.122  26.139  -3.705  0.00  0.00     0.067 C 
HETATM    5  C   UNK N   1      25.634  24.649  -5.172  0.00  0.00     0.067 C 
HETATM    6  C   UNK N   1      27.026  27.136  -4.878  0.00  0.00     0.225 C 
HETATM    7  C   UNK N   1      25.699  25.825  -6.167  0.00  0.00     0.225 C 
HETATM    8  C   UNK N   1      26.749  24.703  -4.112  0.00  0.00     0.122 C 
HETATM    9  N   UNK N   1      27.051  26.408  -6.156  0.00  0.00     0.093 N 
ENDROOT
BRANCH   8  10
HETATM   10  O   UNK N   1      26.367  23.975  -2.987  0.00  0.00    -0.395 OA
HETATM   11  H   UNK N   1      27.025  23.692  -2.332  0.00  0.00     0.210 HD
ENDBRANCH   8  10
TORSDOF 1
ENDMDL
MODEL 2
REMARK VINA RESULT:      -4.2     17.114     18.157
REMARK  1 active torsions:
REMARK  status: ('A' for Active; 'I' for Inactive)
REMARK    1  A    between atoms: C_8  and  O_10 
ROOT
HETATM    1  C   UNK N   1      34.018  16.396   5.840  0.00  0.00     0.310 C 
HETATM    2  C   UNK N   1      33.464  18.133   8.165  0.00  0.00     0.038 C 
HETATM    3  C   UNK N   1      32.127  17.487   7.843  0.00  0.00     0.038 C 
HETATM    4  C   UNK N   1      34.534  16.406   9.567  0.00  0.00     0.067 C 
HETATM    5  C   UNK N   1      32.288  15.307   8.994  0.00  0.00     0.067 C 
HETATM    6  C   UNK N   1      34.453  16.974   8.136  0.00  0.00     0.225 C 
HETATM    7  C   UNK N   1      32.460  16.015   7.635  0.00  0.00     0.225 C 
HETATM    8  C   UNK N   1      33.605  15.199   9.782  0.00  0.00     0.122 C 
HETATM    9  N   UNK N   1      33.876  15.969   7.231  0.00  0.00     0.093 N 
ENDROOT
BRANCH   8  10
HETATM   10  O   UNK N   1      33.332  15.046  11.141  0.00  0.00    -0.395 OA
HETATM   11  H   UNK N   1      32.959  15.778  11.657  0.00  0.00     0.210 HD
ENDBRANCH   8  10
TORSDOF 1
ENDMDL
MODEL 3
REMARK VINA RESULT:      -4.1     25.996     26.800
REMARK  1 active torsions:
REMARK  status: ('A' for Active; 'I' for Inactive)
REMARK    1  A    between atoms: C_8  and  O_10 
ROOT
HETATM    1  C   UNK N   1      33.740  10.792  14.719  0.00  0.00     0.310 C 
HETATM    2  C   UNK N   1      35.570  11.116  17.015  0.00  0.00     0.038 C 
HETATM    3  C   UNK N   1      36.429  10.495  15.927  0.00  0.00     0.038 C 
HETATM    4  C   UNK N   1      35.684  13.515  16.442  0.00  0.00     0.067 C 
HETATM    5  C   UNK N   1      37.106  12.457  14.586  0.00  0.00     0.067 C 
HETATM    6  C   UNK N   1      34.825  12.240  16.306  0.00  0.00     0.225 C 
HETATM    7  C   UNK N   1      36.092  11.300  14.676  0.00  0.00     0.225 C 
HETATM    8  C   UNK N   1      36.584  13.759  15.218  0.00  0.00     0.122 C 
HETATM    9  N   UNK N   1      34.741  11.843  14.892  0.00  0.00     0.093 N 
ENDROOT
BRANCH   8  10
HETATM   10  O   UNK N   1      37.656  14.576  15.574  0.00  0.00    -0.395 OA
HETATM   11  H   UNK N   1      37.816  15.414  15.111  0.00  0.00     0.210 HD
ENDBRANCH   8  10
TORSDOF 1
ENDMDL
MODEL 4
REMARK VINA RESULT:      -4.1      2.405      3.205
REMARK  1 active torsions:
REMARK  status: ('A' for Active; 'I' for Inactive)
REMARK    1  A    between atoms: C_8  and  O_10 
ROOT
HETATM    1  C   UNK N   1      27.805  25.251  -5.196  0.00  0.00     0.310 C 
HETATM    2  C   UNK N   1      26.036  27.130  -6.635  0.00  0.00     0.038 C 
HETATM    3  C   UNK N   1      25.147  26.503  -5.575  0.00  0.00     0.038 C 
HETATM    4  C   UNK N   1      27.126  28.948  -5.369  0.00  0.00     0.067 C 
HETATM    5  C   UNK N   1      25.646  27.864  -3.574  0.00  0.00     0.067 C 
HETATM    6  C   UNK N   1      27.307  27.504  -5.880  0.00  0.00     0.225 C 
HETATM    7  C   UNK N   1      25.986  26.549  -4.303  0.00  0.00     0.225 C 
HETATM    8  C   UNK N   1      26.619  29.006  -3.917  0.00  0.00     0.122 C 
HETATM    9  N   UNK N   1      27.391  26.577  -4.742  0.00  0.00     0.093 N 
ENDROOT
BRANCH   8  10
HETATM   10  O   UNK N   1      26.009  30.236  -3.676  0.00  0.00    -0.395 OA
HETATM   11  H   UNK N   1      26.410  31.059  -3.997  0.00  0.00     0.210 HD
ENDBRANCH   8  10
TORSDOF 1
ENDMDL
MODEL 5
REMARK VINA RESULT:      -4.0      1.415      2.004
REMARK  1 active torsions:
REMARK  status: ('A' for Active; 'I' for Inactive)
REMARK    1  A    between atoms: C_8  and  O_10 
ROOT
HETATM    1  C   UNK N   1      28.350  28.338  -4.760  0.00  0.00     0.310 C 
HETATM    2  C   UNK N   1      26.041  27.349  -3.204  0.00  0.00     0.038 C 
HETATM    3  C   UNK N   1      25.422  28.081  -4.383  0.00  0.00     0.038 C 
HETATM    4  C   UNK N   1      26.488  25.122  -4.170  0.00  0.00     0.067 C 
HETATM    5  C   UNK N   1      25.472  26.373  -6.168  0.00  0.00     0.067 C 
HETATM    6  C   UNK N   1      27.127  26.484  -3.832  0.00  0.00     0.225 C 
HETATM    7  C   UNK N   1      26.217  27.592  -5.589  0.00  0.00     0.225 C 
HETATM    8  C   UNK N   1      26.010  25.035  -5.630  0.00  0.00     0.122 C 
HETATM    9  N   UNK N   1      27.528  27.169  -5.070  0.00  0.00     0.093 N 
ENDROOT
BRANCH   8  10
HETATM   10  O   UNK N   1      25.032  24.048  -5.751  0.00  0.00    -0.395 OA
HETATM   11  H   UNK N   1      24.276  24.171  -6.346  0.00  0.00     0.210 HD
ENDBRANCH   8  10
TORSDOF 1
ENDMDL
MODEL 6
REMARK VINA RESULT:      -4.0     15.042     16.497
REMARK  1 active torsions:
REMARK  status: ('A' for Active; 'I' for Inactive)
REMARK    1  A    between atoms: C_8  and  O_10 
ROOT
HETATM    1  C   UNK N   1      33.553  15.271   8.484  0.00  0.00     0.310 C 
HETATM    2  C   UNK N   1      32.292  17.940   8.347  0.00  0.00     0.038 C 
HETATM    3  C   UNK N   1      33.694  18.151   7.802  0.00  0.00     0.038 C 
HETATM    4  C   UNK N   1      31.086  17.143   6.346  0.00  0.00     0.067 C 
HETATM    5  C   UNK N   1      33.464  17.470   5.438  0.00  0.00     0.067 C 
HETATM    6  C   UNK N   1      31.800  16.686   7.634  0.00  0.00     0.225 C 
HETATM    7  C   UNK N   1      33.901  16.990   6.836  0.00  0.00     0.225 C 
HETATM    8  C   UNK N   1      32.005  17.107   5.111  0.00  0.00     0.122 C 
HETATM    9  N   UNK N   1      33.005  15.914   7.291  0.00  0.00     0.093 N 
ENDROOT
BRANCH   8  10
HETATM   10  O   UNK N   1      31.512  17.965   4.129  0.00  0.00    -0.395 OA
HETATM   11  H   UNK N   1      30.668  18.427   4.252  0.00  0.00     0.210 HD
ENDBRANCH   8  10
TORSDOF 1
ENDMDL
MODEL 7
REMARK VINA RESULT:      -4.0     17.559     18.749
REMARK  1 active torsions:
REMARK  status: ('A' for Active; 'I' for Inactive)
REMARK    1  A    between atoms: C_8  and  O_10 
ROOT
HETATM    1  C   UNK N   1      42.726  19.572   0.822  0.00  0.00     0.310 C 
HETATM    2  C   UNK N   1      40.748  21.098   2.399  0.00  0.00     0.038 C 
HETATM    3  C   UNK N   1      41.451  20.218   3.418  0.00  0.00     0.038 C 
HETATM    4  C   UNK N   1      42.283  23.026   2.250  0.00  0.00     0.067 C 
HETATM    5  C   UNK N   1      43.484  21.520   3.946  0.00  0.00     0.067 C 
HETATM    6  C   UNK N   1      41.883  21.697   1.577  0.00  0.00     0.225 C 
HETATM    7  C   UNK N   1      42.932  20.367   3.085  0.00  0.00     0.225 C 
HETATM    8  C   UNK N   1      43.476  22.871   3.209  0.00  0.00     0.122 C 
HETATM    9  N   UNK N   1      42.995  20.739   1.662  0.00  0.00     0.093 N 
ENDROOT
BRANCH   8  10
HETATM   10  O   UNK N   1      43.479  23.914   4.134  0.00  0.00    -0.395 OA
HETATM   11  H   UNK N   1      44.312  24.318   4.424  0.00  0.00     0.210 HD
ENDBRANCH   8  10
TORSDOF 1
ENDMDL
MODEL 8
REMARK VINA RESULT:      -4.0      1.758      2.961
REMARK  1 active torsions:
REMARK  status: ('A' for Active; 'I' for Inactive)
REMARK    1  A    between atoms: C_8  and  O_10 
ROOT
HETATM    1  C   UNK N   1      28.061  24.971  -6.571  0.00  0.00     0.310 C 
HETATM    2  C   UNK N   1      25.481  24.583  -5.185  0.00  0.00     0.038 C 
HETATM    3  C   UNK N   1      26.527  24.441  -4.092  0.00  0.00     0.038 C 
HETATM    4  C   UNK N   1      25.187  27.032  -5.286  0.00  0.00     0.067 C 
HETATM    5  C   UNK N   1      26.978  26.788  -3.465  0.00  0.00     0.067 C 
HETATM    6  C   UNK N   1      25.904  25.835  -5.944  0.00  0.00     0.225 C 
HETATM    7  C   UNK N   1      27.477  25.610  -4.325  0.00  0.00     0.225 C 
HETATM    8  C   UNK N   1      26.061  27.748  -4.242  0.00  0.00     0.122 C 
HETATM    9  N   UNK N   1      27.357  25.956  -5.752  0.00  0.00     0.093 N 
ENDROOT
BRANCH   8  10
HETATM   10  O   UNK N   1      25.253  28.455  -3.352  0.00  0.00    -0.395 OA
HETATM   11  H   UNK N   1      25.645  28.987  -2.641  0.00  0.00     0.210 HD
ENDBRANCH   8  10
TORSDOF 1
ENDMDL
MODEL 9
REMARK VINA RESULT:      -3.8      5.622      6.868
REMARK  1 active torsions:
REMARK  status: ('A' for Active; 'I' for Inactive)
REMARK    1  A    between atoms: C_8  and  O_10 
ROOT
HETATM    1  C   UNK N   1      32.634  22.251  -6.545  0.00  0.00     0.310 C 
HETATM    2  C   UNK N   1      30.211  21.034  -5.371  0.00  0.00     0.038 C 
HETATM    3  C   UNK N   1      31.365  20.269  -4.744  0.00  0.00     0.038 C 
HETATM    4  C   UNK N   1      30.063  23.016  -3.906  0.00  0.00     0.067 C 
HETATM    5  C   UNK N   1      32.032  21.736  -2.871  0.00  0.00     0.067 C 
HETATM    6  C   UNK N   1      30.622  22.496  -5.246  0.00  0.00     0.225 C 
HETATM    7  C   UNK N   1      32.353  21.353  -4.330  0.00  0.00     0.225 C 
HETATM    8  C   UNK N   1      31.095  22.952  -2.766  0.00  0.00     0.122 C 
HETATM    9  N   UNK N   1      32.092  22.504  -5.211  0.00  0.00     0.093 N 
ENDROOT
BRANCH   8  10
HETATM   10  O   UNK N   1      30.441  22.940  -1.535  0.00  0.00    -0.395 OA
HETATM   11  H   UNK N   1      29.491  22.750  -1.480  0.00  0.00     0.210 HD
ENDBRANCH   8  10
TORSDOF 1
ENDMDL
