MODEL 1
REMARK VINA RESULT:      -6.2      0.000      0.000
REMARK  9 active torsions:
REMARK  status: ('A' for Active; 'I' for Inactive)
REMARK    1  A    between atoms: C_2  and  N_3 
REMARK    2  A    between atoms: C_6  and  C_7 
REMARK    3  A    between atoms: C_7  and  O_9 
REMARK    4  A    between atoms: O_9  and  C_10 
REMARK    5  A    between atoms: C_13  and  C_14 
REMARK    6  A    between atoms: C_21  and  C_22 
REMARK    7  A    between atoms: C_22  and  O_23 
REMARK    8  A    between atoms: C_25  and  C_26 
REMARK    9  A    between atoms: C_26  and  O_27 
ROOT
HETATM    1  N   UNK N   1      23.110  19.313   3.531  0.00  0.00    -0.344 N 
HETATM    2  C   UNK N   1      23.559  18.209   4.201  0.00  0.00     0.025 A 
HETATM    3  C   UNK N   1      24.902  18.279   4.894  0.00  0.00     0.069 C 
HETATM    4  C   UNK N   1      22.790  17.024   4.281  0.00  0.00     0.074 A 
HETATM    5  C   UNK N   1      21.506  16.983   3.644  0.00  0.00     0.013 A 
HETATM    6  C   UNK N   1      21.081  18.129   2.878  0.00  0.00     0.083 A 
HETATM    7  C   UNK N   1      21.909  19.310   2.844  0.00  0.00     0.127 A 
ENDROOT
BRANCH   5   8
HETATM    8  C   UNK N   1      20.655  15.723   3.735  0.00  0.00    -0.002 A 
HETATM    9  C   UNK N   1      19.658  15.664   4.725  0.00  0.00     0.014 A 
HETATM   10  C   UNK N   1      18.833  14.548   4.869  0.00  0.00     0.001 A 
HETATM   11  C   UNK N   1      18.991  13.451   4.029  0.00  0.00     0.002 A 
HETATM   12  C   UNK N   1      19.962  13.477   3.031  0.00  0.00     0.024 A 
HETATM   13  C   UNK N   1      20.793  14.592   2.864  0.00  0.00     0.045 A 
HETATM   14 Cl   UNK N   1      21.901  14.530   1.497  0.00  0.00    -0.083 Cl
ENDBRANCH   5   8
BRANCH   4  15
HETATM   15  C   UNK N   1      23.367  15.865   5.060  0.00  0.00     0.296 C 
HETATM   16  O   UNK N   1      24.055  15.035   4.474  0.00  0.00    -0.259 OA
BRANCH  15  17
HETATM   17  O   UNK N   1      23.211  15.754   6.403  0.00  0.00    -0.313 OA
BRANCH  17  18
HETATM   18  C   UNK N   1      22.497  14.703   6.948  0.00  0.00     0.124 C 
HETATM   19  C   UNK N   1      23.421  13.749   7.682  0.00  0.00     0.040 C 
HETATM   20  C   UNK N   1      21.427  15.218   7.885  0.00  0.00     0.040 C 
ENDBRANCH  17  18
ENDBRANCH  15  17
ENDBRANCH   4  15
BRANCH   6  21
HETATM   21  C   UNK N   1      19.810  18.057   2.071  0.00  0.00     0.179 C 
HETATM   22  O   UNK N   1      19.803  17.579   0.948  0.00  0.00    -0.646 OA
BRANCH  21  23
HETATM   23  O   UNK N   1      18.663  18.561   2.563  0.00  0.00    -0.773 OA
HETATM   24  H   UNK N   1      17.945  18.173   3.025  0.00  0.00     0.167 HD
ENDBRANCH  21  23
ENDBRANCH   6  21
BRANCH   7  25
HETATM   25  C   UNK N   1      21.547  20.532   2.008  0.00  0.00     0.195 C 
HETATM   26  O   UNK N   1      21.743  20.553   0.805  0.00  0.00    -0.645 OA
BRANCH  25  27
HETATM   27  O   UNK N   1      21.075  21.655   2.582  0.00  0.00    -0.772 OA
HETATM   28  H   UNK N   1      21.489  22.121   3.282  0.00  0.00     0.167 HD
ENDBRANCH  25  27
ENDBRANCH   7  25
BRANCH   1  29
HETATM   29  C   UNK N   1      23.992  20.489   3.482  0.00  0.00     0.125 C 
HETATM   30  C   UNK N   1      25.035  20.350   2.383  0.00  0.00     0.027 C 
ENDBRANCH   1  29
TORSDOF 9
ENDMDL
MODEL 2
REMARK VINA RESULT:      -6.1      7.488     10.115
REMARK  9 active torsions:
REMARK  status: ('A' for Active; 'I' for Inactive)
REMARK    1  A    between atoms: C_2  and  N_3 
REMARK    2  A    between atoms: C_6  and  C_7 
REMARK    3  A    between atoms: C_7  and  O_9 
REMARK    4  A    between atoms: O_9  and  C_10 
REMARK    5  A    between atoms: C_13  and  C_14 
REMARK    6  A    between atoms: C_21  and  C_22 
REMARK    7  A    between atoms: C_22  and  O_23 
REMARK    8  A    between atoms: C_25  and  C_26 
REMARK    9  A    between atoms: C_26  and  O_27 
ROOT
HETATM    1  N   UNK N   1      28.471  18.338   6.554  0.00  0.00    -0.344 N 
HETATM    2  C   UNK N   1      29.376  18.045   7.537  0.00  0.00     0.025 A 
HETATM    3  C   UNK N   1      29.176  18.650   8.908  0.00  0.00     0.069 C 
HETATM    4  C   UNK N   1      30.468  17.176   7.306  0.00  0.00     0.074 A 
HETATM    5  C   UNK N   1      30.628  16.586   6.009  0.00  0.00     0.013 A 
HETATM    6  C   UNK N   1      29.710  16.966   4.963  0.00  0.00     0.083 A 
HETATM    7  C   UNK N   1      28.611  17.851   5.266  0.00  0.00     0.127 A 
ENDROOT
BRANCH   5   8
HETATM    8  C   UNK N   1      31.787  15.633   5.746  0.00  0.00    -0.002 A 
HETATM    9  C   UNK N   1      31.590  14.263   5.997  0.00  0.00     0.014 A 
HETATM   10  C   UNK N   1      32.599  13.326   5.776  0.00  0.00     0.001 A 
HETATM   11  C   UNK N   1      33.842  13.737   5.307  0.00  0.00     0.002 A 
HETATM   12  C   UNK N   1      34.070  15.084   5.039  0.00  0.00     0.024 A 
HETATM   13  C   UNK N   1      33.067  16.039   5.245  0.00  0.00     0.045 A 
HETATM   14 Cl   UNK N   1      33.461  17.687   4.764  0.00  0.00    -0.083 Cl
ENDBRANCH   5   8
BRANCH   4  15
HETATM   15  C   UNK N   1      31.402  16.900   8.462  0.00  0.00     0.296 C 
HETATM   16  O   UNK N   1      31.247  15.878   9.123  0.00  0.00    -0.259 OA
BRANCH  15  17
HETATM   17  O   UNK N   1      32.454  17.710   8.745  0.00  0.00    -0.313 OA
BRANCH  17  18
HETATM   18  C   UNK N   1      33.744  17.329   8.427  0.00  0.00     0.124 C 
HETATM   19  C   UNK N   1      34.585  18.537   8.061  0.00  0.00     0.040 C 
HETATM   20  C   UNK N   1      34.376  16.582   9.580  0.00  0.00     0.040 C 
ENDBRANCH  17  18
ENDBRANCH  15  17
ENDBRANCH   4  15
BRANCH   6  21
HETATM   21  C   UNK N   1      29.944  16.486   3.554  0.00  0.00     0.179 C 
HETATM   22  O   UNK N   1      29.420  15.463   3.142  0.00  0.00    -0.646 OA
BRANCH  21  23
HETATM   23  O   UNK N   1      30.774  17.159   2.735  0.00  0.00    -0.773 OA
HETATM   24  H   UNK N   1      31.706  17.260   2.719  0.00  0.00     0.167 HD
ENDBRANCH  21  23
ENDBRANCH   6  21
BRANCH   7  25
HETATM   25  C   UNK N   1      27.640  18.337   4.196  0.00  0.00     0.195 C 
HETATM   26  O   UNK N   1      26.640  17.698   3.916  0.00  0.00    -0.645 OA
BRANCH  25  27
HETATM   27  O   UNK N   1      27.897  19.442   3.472  0.00  0.00    -0.772 OA
HETATM   28  H   UNK N   1      28.024  20.302   3.821  0.00  0.00     0.167 HD
ENDBRANCH  25  27
ENDBRANCH   7  25
BRANCH   1  29
HETATM   29  C   UNK N   1      27.384  19.273   6.881  0.00  0.00     0.125 C 
HETATM   30  C   UNK N   1      27.765  20.705   6.536  0.00  0.00     0.027 C 
ENDBRANCH   1  29
TORSDOF 9
ENDMDL
MODEL 3
REMARK VINA RESULT:      -6.0      7.617     10.721
REMARK  9 active torsions:
REMARK  status: ('A' for Active; 'I' for Inactive)
REMARK    1  A    between atoms: C_2  and  N_3 
REMARK    2  A    between atoms: C_6  and  C_7 
REMARK    3  A    between atoms: C_7  and  O_9 
REMARK    4  A    between atoms: O_9  and  C_10 
REMARK    5  A    between atoms: C_13  and  C_14 
REMARK    6  A    between atoms: C_21  and  C_22 
REMARK    7  A    between atoms: C_22  and  O_23 
REMARK    8  A    between atoms: C_25  and  C_26 
REMARK    9  A    between atoms: C_26  and  O_27 
ROOT
HETATM    1  N   UNK N   1      28.190  16.942   5.981  0.00  0.00    -0.344 N 
HETATM    2  C   UNK N   1      28.793  15.926   5.291  0.00  0.00     0.025 A 
HETATM    3  C   UNK N   1      28.051  15.296   4.134  0.00  0.00     0.069 C 
HETATM    4  C   UNK N   1      30.093  15.475   5.619  0.00  0.00     0.074 A 
HETATM    5  C   UNK N   1      30.797  16.102   6.700  0.00  0.00     0.013 A 
HETATM    6  C   UNK N   1      30.117  17.118   7.465  0.00  0.00     0.083 A 
HETATM    7  C   UNK N   1      28.793  17.539   7.074  0.00  0.00     0.127 A 
ENDROOT
BRANCH   5   8
HETATM    8  C   UNK N   1      32.205  15.643   7.055  0.00  0.00    -0.002 A 
HETATM    9  C   UNK N   1      32.346  14.542   7.918  0.00  0.00     0.014 A 
HETATM   10  C   UNK N   1      33.601  14.056   8.287  0.00  0.00     0.001 A 
HETATM   11  C   UNK N   1      34.755  14.669   7.808  0.00  0.00     0.002 A 
HETATM   12  C   UNK N   1      34.653  15.757   6.945  0.00  0.00     0.024 A 
HETATM   13  C   UNK N   1      33.403  16.253   6.555  0.00  0.00     0.045 A 
HETATM   14 Cl   UNK N   1      33.425  17.562   5.378  0.00  0.00    -0.083 Cl
ENDBRANCH   5   8
BRANCH   4  15
HETATM   15  C   UNK N   1      30.680  14.359   4.785  0.00  0.00     0.296 C 
HETATM   16  O   UNK N   1      30.499  13.196   5.132  0.00  0.00    -0.259 OA
BRANCH  15  17
HETATM   17  O   UNK N   1      31.335  14.601   3.621  0.00  0.00    -0.313 OA
BRANCH  17  18
HETATM   18  C   UNK N   1      32.488  13.908   3.302  0.00  0.00     0.124 C 
HETATM   19  C   UNK N   1      32.258  13.005   2.106  0.00  0.00     0.040 C 
HETATM   20  C   UNK N   1      33.623  14.868   3.021  0.00  0.00     0.040 C 
ENDBRANCH  17  18
ENDBRANCH  15  17
ENDBRANCH   4  15
BRANCH   6  21
HETATM   21  C   UNK N   1      30.769  17.683   8.700  0.00  0.00     0.179 C 
HETATM   22  O   UNK N   1      31.709  18.459   8.618  0.00  0.00    -0.646 OA
BRANCH  21  23
HETATM   23  O   UNK N   1      30.352  17.307   9.923  0.00  0.00    -0.773 OA
HETATM   24  H   UNK N   1      30.751  17.346  10.770  0.00  0.00     0.167 HD
ENDBRANCH  21  23
ENDBRANCH   6  21
BRANCH   7  25
HETATM   25  C   UNK N   1      27.997  18.565   7.872  0.00  0.00     0.195 C 
HETATM   26  O   UNK N   1      27.900  19.720   7.493  0.00  0.00    -0.645 OA
BRANCH  25  27
HETATM   27  O   UNK N   1      27.445  18.250   9.059  0.00  0.00    -0.772 OA
HETATM   28  H   UNK N   1      26.546  18.026   9.196  0.00  0.00     0.167 HD
ENDBRANCH  25  27
ENDBRANCH   7  25
BRANCH   1  29
HETATM   29  C   UNK N   1      26.826  17.323   5.583  0.00  0.00     0.125 C 
HETATM   30  C   UNK N   1      26.846  18.388   4.498  0.00  0.00     0.027 C 
ENDBRANCH   1  29
TORSDOF 9
ENDMDL
MODEL 4
REMARK VINA RESULT:      -6.0      1.500      2.383
REMARK  9 active torsions:
REMARK  status: ('A' for Active; 'I' for Inactive)
REMARK    1  A    between atoms: C_2  and  N_3 
REMARK    2  A    between atoms: C_6  and  C_7 
REMARK    3  A    between atoms: C_7  and  O_9 
REMARK    4  A    between atoms: O_9  and  C_10 
REMARK    5  A    between atoms: C_13  and  C_14 
REMARK    6  A    between atoms: C_21  and  C_22 
REMARK    7  A    between atoms: C_22  and  O_23 
REMARK    8  A    between atoms: C_25  and  C_26 
REMARK    9  A    between atoms: C_26  and  O_27 
ROOT
HETATM    1  N   UNK N   1      23.156  19.267   3.527  0.00  0.00    -0.344 N 
HETATM    2  C   UNK N   1      23.618  18.145   4.158  0.00  0.00     0.025 A 
HETATM    3  C   UNK N   1      24.970  18.198   4.832  0.00  0.00     0.069 C 
HETATM    4  C   UNK N   1      22.853  16.956   4.213  0.00  0.00     0.074 A 
HETATM    5  C   UNK N   1      21.559  16.930   3.595  0.00  0.00     0.013 A 
HETATM    6  C   UNK N   1      21.121  18.096   2.868  0.00  0.00     0.083 A 
HETATM    7  C   UNK N   1      21.945  19.280   2.857  0.00  0.00     0.127 A 
ENDROOT
BRANCH   5   8
HETATM    8  C   UNK N   1      20.713  15.665   3.660  0.00  0.00    -0.002 A 
HETATM    9  C   UNK N   1      20.817  14.741   2.604  0.00  0.00     0.014 A 
HETATM   10  C   UNK N   1      20.080  13.556   2.593  0.00  0.00     0.001 A 
HETATM   11  C   UNK N   1      19.208  13.267   3.637  0.00  0.00     0.002 A 
HETATM   12  C   UNK N   1      19.087  14.154   4.703  0.00  0.00     0.024 A 
HETATM   13  C   UNK N   1      19.824  15.343   4.738  0.00  0.00     0.045 A 
HETATM   14 Cl   UNK N   1      19.651  16.316   6.196  0.00  0.00    -0.083 Cl
ENDBRANCH   5   8
BRANCH   4  15
HETATM   15  C   UNK N   1      23.444  15.776   4.950  0.00  0.00     0.296 C 
HETATM   16  O   UNK N   1      23.187  15.626   6.140  0.00  0.00    -0.259 OA
BRANCH  15  17
HETATM   17  O   UNK N   1      24.186  14.833   4.317  0.00  0.00    -0.313 OA
BRANCH  17  18
HETATM   18  C   UNK N   1      24.487  14.954   2.973  0.00  0.00     0.124 C 
HETATM   19  C   UNK N   1      25.933  15.370   2.782  0.00  0.00     0.040 C 
HETATM   20  C   UNK N   1      24.218  13.653   2.249  0.00  0.00     0.040 C 
ENDBRANCH  17  18
ENDBRANCH  15  17
ENDBRANCH   4  15
BRANCH   6  21
HETATM   21  C   UNK N   1      19.839  18.045   2.079  0.00  0.00     0.179 C 
HETATM   22  O   UNK N   1      19.822  17.633   0.929  0.00  0.00    -0.646 OA
BRANCH  21  23
HETATM   23  O   UNK N   1      18.689  18.495   2.617  0.00  0.00    -0.773 OA
HETATM   24  H   UNK N   1      18.493  18.928   3.424  0.00  0.00     0.167 HD
ENDBRANCH  21  23
ENDBRANCH   6  21
BRANCH   7  25
HETATM   25  C   UNK N   1      21.568  20.526   2.063  0.00  0.00     0.195 C 
HETATM   26  O   UNK N   1      21.740  20.580   0.857  0.00  0.00    -0.645 OA
BRANCH  25  27
HETATM   27  O   UNK N   1      21.109  21.632   2.678  0.00  0.00    -0.772 OA
HETATM   28  H   UNK N   1      21.195  21.820   3.592  0.00  0.00     0.167 HD
ENDBRANCH  25  27
ENDBRANCH   7  25
BRANCH   1  29
HETATM   29  C   UNK N   1      24.034  20.447   3.500  0.00  0.00     0.125 C 
HETATM   30  C   UNK N   1      25.066  20.340   2.387  0.00  0.00     0.027 C 
ENDBRANCH   1  29
TORSDOF 9
ENDMDL
MODEL 5
REMARK VINA RESULT:      -5.9     12.207     14.559
REMARK  9 active torsions:
REMARK  status: ('A' for Active; 'I' for Inactive)
REMARK    1  A    between atoms: C_2  and  N_3 
REMARK    2  A    between atoms: C_6  and  C_7 
REMARK    3  A    between atoms: C_7  and  O_9 
REMARK    4  A    between atoms: O_9  and  C_10 
REMARK    5  A    between atoms: C_13  and  C_14 
REMARK    6  A    between atoms: C_21  and  C_22 
REMARK    7  A    between atoms: C_22  and  O_23 
REMARK    8  A    between atoms: C_25  and  C_26 
REMARK    9  A    between atoms: C_26  and  O_27 
ROOT
HETATM    1  N   UNK N   1      28.479  27.773  -4.211  0.00  0.00    -0.344 N 
HETATM    2  C   UNK N   1      29.666  27.439  -4.803  0.00  0.00     0.025 A 
HETATM    3  C   UNK N   1      30.646  28.543  -5.134  0.00  0.00     0.069 C 
HETATM    4  C   UNK N   1      30.003  26.095  -5.087  0.00  0.00     0.074 A 
HETATM    5  C   UNK N   1      29.076  25.056  -4.741  0.00  0.00     0.013 A 
HETATM    6  C   UNK N   1      27.798  25.432  -4.188  0.00  0.00     0.083 A 
HETATM    7  C   UNK N   1      27.520  26.821  -3.915  0.00  0.00     0.127 A 
ENDROOT
BRANCH   5   8
HETATM    8  C   UNK N   1      29.429  23.602  -5.022  0.00  0.00    -0.002 A 
HETATM    9  C   UNK N   1      29.145  23.084  -6.298  0.00  0.00     0.014 A 
HETATM   10  C   UNK N   1      29.443  21.763  -6.636  0.00  0.00     0.001 A 
HETATM   11  C   UNK N   1      30.027  20.918  -5.697  0.00  0.00     0.002 A 
HETATM   12  C   UNK N   1      30.330  21.399  -4.427  0.00  0.00     0.024 A 
HETATM   13  C   UNK N   1      30.048  22.723  -4.072  0.00  0.00     0.045 A 
HETATM   14 Cl   UNK N   1      30.581  23.223  -2.470  0.00  0.00    -0.083 Cl
ENDBRANCH   5   8
BRANCH   4  15
HETATM   15  C   UNK N   1      31.346  25.828  -5.727  0.00  0.00     0.296 C 
HETATM   16  O   UNK N   1      31.456  25.925  -6.945  0.00  0.00    -0.259 OA
BRANCH  15  17
HETATM   17  O   UNK N   1      32.452  25.560  -4.989  0.00  0.00    -0.313 OA
BRANCH  17  18
HETATM   18  C   UNK N   1      33.516  24.868  -5.536  0.00  0.00     0.124 C 
HETATM   19  C   UNK N   1      34.834  25.496  -5.123  0.00  0.00     0.040 C 
HETATM   20  C   UNK N   1      33.476  23.415  -5.116  0.00  0.00     0.040 C 
ENDBRANCH  17  18
ENDBRANCH  15  17
ENDBRANCH   4  15
BRANCH   6  21
HETATM   21  C   UNK N   1      26.746  24.378  -3.960  0.00  0.00     0.179 C 
HETATM   22  O   UNK N   1      26.627  23.830  -2.875  0.00  0.00    -0.646 OA
BRANCH  21  23
HETATM   23  O   UNK N   1      25.941  23.990  -4.967  0.00  0.00    -0.773 OA
HETATM   24  H   UNK N   1      25.009  23.959  -5.059  0.00  0.00     0.167 HD
ENDBRANCH  21  23
ENDBRANCH   6  21
BRANCH   7  25
HETATM   25  C   UNK N   1      26.170  27.290  -3.384  0.00  0.00     0.195 C 
HETATM   26  O   UNK N   1      25.896  27.211  -2.199  0.00  0.00    -0.645 OA
BRANCH  25  27
HETATM   27  O   UNK N   1      25.209  27.732  -4.217  0.00  0.00    -0.772 OA
HETATM   28  H   UNK N   1      24.399  28.122  -3.953  0.00  0.00     0.167 HD
ENDBRANCH  25  27
ENDBRANCH   7  25
BRANCH   1  29
HETATM   29  C   UNK N   1      28.208  29.200  -3.980  0.00  0.00     0.125 C 
HETATM   30  C   UNK N   1      28.562  29.605  -2.557  0.00  0.00     0.027 C 
ENDBRANCH   1  29
TORSDOF 9
ENDMDL
MODEL 6
REMARK VINA RESULT:      -5.7     11.247     14.544
REMARK  9 active torsions:
REMARK  status: ('A' for Active; 'I' for Inactive)
REMARK    1  A    between atoms: C_2  and  N_3 
REMARK    2  A    between atoms: C_6  and  C_7 
REMARK    3  A    between atoms: C_7  and  O_9 
REMARK    4  A    between atoms: O_9  and  C_10 
REMARK    5  A    between atoms: C_13  and  C_14 
REMARK    6  A    between atoms: C_21  and  C_22 
REMARK    7  A    between atoms: C_22  and  O_23 
REMARK    8  A    between atoms: C_25  and  C_26 
REMARK    9  A    between atoms: C_26  and  O_27 
ROOT
HETATM    1  N   UNK N   1      36.423  13.956   7.610  0.00  0.00    -0.344 N 
HETATM    2  C   UNK N   1      35.613  14.333   6.575  0.00  0.00     0.025 A 
HETATM    3  C   UNK N   1      35.919  13.811   5.189  0.00  0.00     0.069 C 
HETATM    4  C   UNK N   1      34.491  15.172   6.776  0.00  0.00     0.074 A 
HETATM    5  C   UNK N   1      34.196  15.635   8.101  0.00  0.00     0.013 A 
HETATM    6  C   UNK N   1      35.104  15.291   9.168  0.00  0.00     0.083 A 
HETATM    7  C   UNK N   1      36.225  14.424   8.897  0.00  0.00     0.127 A 
ENDROOT
BRANCH   5   8
HETATM    8  C   UNK N   1      32.982  16.523   8.340  0.00  0.00    -0.002 A 
HETATM    9  C   UNK N   1      31.748  15.903   8.607  0.00  0.00     0.014 A 
HETATM   10  C   UNK N   1      30.591  16.646   8.844  0.00  0.00     0.001 A 
HETATM   11  C   UNK N   1      30.635  18.036   8.809  0.00  0.00     0.002 A 
HETATM   12  C   UNK N   1      31.841  18.684   8.556  0.00  0.00     0.024 A 
HETATM   13  C   UNK N   1      33.015  17.956   8.327  0.00  0.00     0.045 A 
HETATM   14 Cl   UNK N   1      34.485  18.906   8.127  0.00  0.00    -0.083 Cl
ENDBRANCH   5   8
BRANCH   4  15
HETATM   15  C   UNK N   1      33.648  15.516   5.570  0.00  0.00     0.296 C 
HETATM   16  O   UNK N   1      32.713  14.782   5.267  0.00  0.00    -0.259 OA
BRANCH  15  17
HETATM   17  O   UNK N   1      33.844  16.655   4.858  0.00  0.00    -0.313 OA
BRANCH  17  18
HETATM   18  C   UNK N   1      32.780  17.314   4.272  0.00  0.00     0.124 C 
HETATM   19  C   UNK N   1      32.509  16.769   2.883  0.00  0.00     0.040 C 
HETATM   20  C   UNK N   1      31.542  17.191   5.132  0.00  0.00     0.040 C 
ENDBRANCH  17  18
ENDBRANCH  15  17
ENDBRANCH   4  15
BRANCH   6  21
HETATM   21  C   UNK N   1      34.907  15.889  10.536  0.00  0.00     0.179 C 
HETATM   22  O   UNK N   1      35.428  16.950  10.841  0.00  0.00    -0.646 OA
BRANCH  21  23
HETATM   23  O   UNK N   1      34.183  15.238  11.466  0.00  0.00    -0.773 OA
HETATM   24  H   UNK N   1      33.791  15.512  12.272  0.00  0.00     0.167 HD
ENDBRANCH  21  23
ENDBRANCH   6  21
BRANCH   7  25
HETATM   25  C   UNK N   1      37.253  14.069   9.965  0.00  0.00     0.195 C 
HETATM   26  O   UNK N   1      37.109  13.089  10.677  0.00  0.00    -0.645 OA
BRANCH  25  27
HETATM   27  O   UNK N   1      38.309  14.867  10.210  0.00  0.00    -0.772 OA
HETATM   28  H   UNK N   1      39.157  14.577  10.483  0.00  0.00     0.167 HD
ENDBRANCH  25  27
ENDBRANCH   7  25
BRANCH   1  29
HETATM   29  C   UNK N   1      37.580  13.104   7.298  0.00  0.00     0.125 C 
HETATM   30  C   UNK N   1      38.773  13.935   6.852  0.00  0.00     0.027 C 
ENDBRANCH   1  29
TORSDOF 9
ENDMDL
MODEL 7
REMARK VINA RESULT:      -5.7      5.771      8.613
REMARK  9 active torsions:
REMARK  status: ('A' for Active; 'I' for Inactive)
REMARK    1  A    between atoms: C_2  and  N_3 
REMARK    2  A    between atoms: C_6  and  C_7 
REMARK    3  A    between atoms: C_7  and  O_9 
REMARK    4  A    between atoms: O_9  and  C_10 
REMARK    5  A    between atoms: C_13  and  C_14 
REMARK    6  A    between atoms: C_21  and  C_22 
REMARK    7  A    between atoms: C_22  and  O_23 
REMARK    8  A    between atoms: C_25  and  C_26 
REMARK    9  A    between atoms: C_26  and  O_27 
ROOT
HETATM    1  N   UNK N   1      31.006  16.039   6.460  0.00  0.00    -0.344 N 
HETATM    2  C   UNK N   1      30.503  15.702   5.233  0.00  0.00     0.025 A 
HETATM    3  C   UNK N   1      31.393  14.957   4.265  0.00  0.00     0.069 C 
HETATM    4  C   UNK N   1      29.172  16.011   4.866  0.00  0.00     0.074 A 
HETATM    5  C   UNK N   1      28.330  16.692   5.807  0.00  0.00     0.013 A 
HETATM    6  C   UNK N   1      28.899  17.107   7.065  0.00  0.00     0.083 A 
HETATM    7  C   UNK N   1      30.262  16.753   7.382  0.00  0.00     0.127 A 
ENDROOT
BRANCH   5   8
HETATM    8  C   UNK N   1      26.888  17.016   5.437  0.00  0.00    -0.002 A 
HETATM    9  C   UNK N   1      25.884  16.109   5.818  0.00  0.00     0.014 A 
HETATM   10  C   UNK N   1      24.540  16.336   5.523  0.00  0.00     0.001 A 
HETATM   11  C   UNK N   1      24.163  17.479   4.825  0.00  0.00     0.002 A 
HETATM   12  C   UNK N   1      25.129  18.404   4.439  0.00  0.00     0.024 A 
HETATM   13  C   UNK N   1      26.482  18.199   4.734  0.00  0.00     0.045 A 
HETATM   14 Cl   UNK N   1      27.577  19.501   4.280  0.00  0.00    -0.083 Cl
ENDBRANCH   5   8
BRANCH   4  15
HETATM   15  C   UNK N   1      28.704  15.581   3.495  0.00  0.00     0.296 C 
HETATM   16  O   UNK N   1      29.063  16.223   2.513  0.00  0.00    -0.259 OA
BRANCH  15  17
HETATM   17  O   UNK N   1      27.962  14.460   3.308  0.00  0.00    -0.313 OA
BRANCH  17  18
HETATM   18  C   UNK N   1      27.207  14.295   2.163  0.00  0.00     0.124 C 
HETATM   19  C   UNK N   1      26.843  12.835   1.965  0.00  0.00     0.040 C 
HETATM   20  C   UNK N   1      25.954  15.141   2.227  0.00  0.00     0.040 C 
ENDBRANCH  17  18
ENDBRANCH  15  17
ENDBRANCH   4  15
BRANCH   6  21
HETATM   21  C   UNK N   1      28.088  17.959   8.006  0.00  0.00     0.179 C 
HETATM   22  O   UNK N   1      28.030  19.170   7.869  0.00  0.00    -0.646 OA
BRANCH  21  23
HETATM   23  O   UNK N   1      27.443  17.398   9.047  0.00  0.00    -0.773 OA
HETATM   24  H   UNK N   1      26.958  16.601   9.138  0.00  0.00     0.167 HD
ENDBRANCH  21  23
ENDBRANCH   6  21
BRANCH   7  25
HETATM   25  C   UNK N   1      30.942  17.209   8.668  0.00  0.00     0.195 C 
HETATM   26  O   UNK N   1      31.636  18.211   8.692  0.00  0.00    -0.645 OA
BRANCH  25  27
HETATM   27  O   UNK N   1      30.864  16.478   9.795  0.00  0.00    -0.772 OA
HETATM   28  H   UNK N   1      31.482  16.498  10.499  0.00  0.00     0.167 HD
ENDBRANCH  25  27
ENDBRANCH   7  25
BRANCH   1  29
HETATM   29  C   UNK N   1      32.409  15.698   6.740  0.00  0.00     0.125 C 
HETATM   30  C   UNK N   1      32.519  14.371   7.475  0.00  0.00     0.027 C 
ENDBRANCH   1  29
TORSDOF 9
ENDMDL
MODEL 8
REMARK VINA RESULT:      -5.6      8.049     10.677
REMARK  9 active torsions:
REMARK  status: ('A' for Active; 'I' for Inactive)
REMARK    1  A    between atoms: C_2  and  N_3 
REMARK    2  A    between atoms: C_6  and  C_7 
REMARK    3  A    between atoms: C_7  and  O_9 
REMARK    4  A    between atoms: O_9  and  C_10 
REMARK    5  A    between atoms: C_13  and  C_14 
REMARK    6  A    between atoms: C_21  and  C_22 
REMARK    7  A    between atoms: C_22  and  O_23 
REMARK    8  A    between atoms: C_25  and  C_26 
REMARK    9  A    between atoms: C_26  and  O_27 
ROOT
HETATM    1  N   UNK N   1      29.932  17.511   7.617  0.00  0.00    -0.344 N 
HETATM    2  C   UNK N   1      31.299  17.550   7.633  0.00  0.00     0.025 A 
HETATM    3  C   UNK N   1      31.987  18.404   8.674  0.00  0.00     0.069 C 
HETATM    4  C   UNK N   1      32.074  16.794   6.723  0.00  0.00     0.074 A 
HETATM    5  C   UNK N   1      31.408  15.965   5.761  0.00  0.00     0.013 A 
HETATM    6  C   UNK N   1      29.967  15.996   5.707  0.00  0.00     0.083 A 
HETATM    7  C   UNK N   1      29.235  16.781   6.671  0.00  0.00     0.127 A 
ENDROOT
BRANCH   5   8
HETATM    8  C   UNK N   1      32.225  15.130   4.784  0.00  0.00    -0.002 A 
HETATM    9  C   UNK N   1      32.531  13.804   5.139  0.00  0.00     0.014 A 
HETATM   10  C   UNK N   1      33.270  12.972   4.297  0.00  0.00     0.001 A 
HETATM   11  C   UNK N   1      33.734  13.450   3.076  0.00  0.00     0.002 A 
HETATM   12  C   UNK N   1      33.443  14.755   2.688  0.00  0.00     0.024 A 
HETATM   13  C   UNK N   1      32.695  15.602   3.514  0.00  0.00     0.045 A 
HETATM   14 Cl   UNK N   1      32.313  17.188   2.850  0.00  0.00    -0.083 Cl
ENDBRANCH   5   8
BRANCH   4  15
HETATM   15  C   UNK N   1      33.578  16.891   6.833  0.00  0.00     0.296 C 
HETATM   16  O   UNK N   1      34.187  17.626   6.063  0.00  0.00    -0.259 OA
BRANCH  15  17
HETATM   17  O   UNK N   1      34.269  16.248   7.809  0.00  0.00    -0.313 OA
BRANCH  17  18
HETATM   18  C   UNK N   1      33.915  14.972   8.203  0.00  0.00     0.124 C 
HETATM   19  C   UNK N   1      35.042  13.993   7.931  0.00  0.00     0.040 C 
HETATM   20  C   UNK N   1      33.550  14.952   9.671  0.00  0.00     0.040 C 
ENDBRANCH  17  18
ENDBRANCH  15  17
ENDBRANCH   4  15
BRANCH   6  21
HETATM   21  C   UNK N   1      29.245  15.258   4.609  0.00  0.00     0.179 C 
HETATM   22  O   UNK N   1      28.884  14.102   4.759  0.00  0.00    -0.646 OA
BRANCH  21  23
HETATM   23  O   UNK N   1      29.023  15.853   3.422  0.00  0.00    -0.773 OA
HETATM   24  H   UNK N   1      28.967  16.752   3.162  0.00  0.00     0.167 HD
ENDBRANCH  21  23
ENDBRANCH   6  21
BRANCH   7  25
HETATM   25  C   UNK N   1      27.715  16.903   6.635  0.00  0.00     0.195 C 
HETATM   26  O   UNK N   1      27.004  16.064   7.160  0.00  0.00    -0.645 OA
BRANCH  25  27
HETATM   27  O   UNK N   1      27.111  17.894   5.954  0.00  0.00    -0.772 OA
HETATM   28  H   UNK N   1      27.154  18.019   5.026  0.00  0.00     0.167 HD
ENDBRANCH  25  27
ENDBRANCH   7  25
BRANCH   1  29
HETATM   29  C   UNK N   1      29.213  18.352   8.587  0.00  0.00     0.125 C 
HETATM   30  C   UNK N   1      28.840  17.562   9.832  0.00  0.00     0.027 C 
ENDBRANCH   1  29
TORSDOF 9
ENDMDL
MODEL 9
REMARK VINA RESULT:      -5.5     11.814     14.519
REMARK  9 active torsions:
REMARK  status: ('A' for Active; 'I' for Inactive)
REMARK    1  A    between atoms: C_2  and  N_3 
REMARK    2  A    between atoms: C_6  and  C_7 
REMARK    3  A    between atoms: C_7  and  O_9 
REMARK    4  A    between atoms: O_9  and  C_10 
REMARK    5  A    between atoms: C_13  and  C_14 
REMARK    6  A    between atoms: C_21  and  C_22 
REMARK    7  A    between atoms: C_22  and  O_23 
REMARK    8  A    between atoms: C_25  and  C_26 
REMARK    9  A    between atoms: C_26  and  O_27 
ROOT
HETATM    1  N   UNK N   1      29.818  22.349  -4.410  0.00  0.00    -0.344 N 
HETATM    2  C   UNK N   1      28.826  23.183  -3.973  0.00  0.00     0.025 A 
HETATM    3  C   UNK N   1      28.646  23.376  -2.484  0.00  0.00     0.069 C 
HETATM    4  C   UNK N   1      27.990  23.880  -4.876  0.00  0.00     0.074 A 
HETATM    5  C   UNK N   1      28.191  23.710  -6.286  0.00  0.00     0.013 A 
HETATM    6  C   UNK N   1      29.191  22.769  -6.729  0.00  0.00     0.083 A 
HETATM    7  C   UNK N   1      30.017  22.096  -5.756  0.00  0.00     0.127 A 
ENDROOT
BRANCH   5   8
HETATM    8  C   UNK N   1      27.314  24.468  -7.273  0.00  0.00    -0.002 A 
HETATM    9  C   UNK N   1      27.761  25.719  -7.736  0.00  0.00     0.014 A 
HETATM   10  C   UNK N   1      27.018  26.471  -8.646  0.00  0.00     0.001 A 
HETATM   11  C   UNK N   1      25.797  25.995  -9.113  0.00  0.00     0.002 A 
HETATM   12  C   UNK N   1      25.327  24.757  -8.684  0.00  0.00     0.024 A 
HETATM   13  C   UNK N   1      26.062  23.982  -7.778  0.00  0.00     0.045 A 
HETATM   14 Cl   UNK N   1      25.399  22.394  -7.406  0.00  0.00    -0.083 Cl
ENDBRANCH   5   8
BRANCH   4  15
HETATM   15  C   UNK N   1      26.934  24.792  -4.293  0.00  0.00     0.296 C 
HETATM   16  O   UNK N   1      25.950  24.297  -3.754  0.00  0.00    -0.259 OA
BRANCH  15  17
HETATM   17  O   UNK N   1      27.078  26.141  -4.280  0.00  0.00    -0.313 OA
BRANCH  17  18
HETATM   18  C   UNK N   1      25.987  26.967  -4.089  0.00  0.00     0.124 C 
HETATM   19  C   UNK N   1      26.397  28.245  -3.382  0.00  0.00     0.040 C 
HETATM   20  C   UNK N   1      25.328  27.291  -5.412  0.00  0.00     0.040 C 
ENDBRANCH  17  18
ENDBRANCH  15  17
ENDBRANCH   4  15
BRANCH   6  21
HETATM   21  C   UNK N   1      29.319  22.454  -8.196  0.00  0.00     0.179 C 
HETATM   22  O   UNK N   1      30.069  23.094  -8.916  0.00  0.00    -0.646 OA
BRANCH  21  23
HETATM   23  O   UNK N   1      28.571  21.481  -8.751  0.00  0.00    -0.773 OA
HETATM   24  H   UNK N   1      27.750  21.097  -8.513  0.00  0.00     0.167 HD
ENDBRANCH  21  23
ENDBRANCH   6  21
BRANCH   7  25
HETATM   25  C   UNK N   1      31.051  21.049  -6.153  0.00  0.00     0.195 C 
HETATM   26  O   UNK N   1      32.204  21.362  -6.395  0.00  0.00    -0.645 OA
BRANCH  25  27
HETATM   27  O   UNK N   1      30.705  19.759  -6.328  0.00  0.00    -0.772 OA
HETATM   28  H   UNK N   1      29.833  19.420  -6.277  0.00  0.00     0.167 HD
ENDBRANCH  25  27
ENDBRANCH   7  25
BRANCH   1  29
HETATM   29  C   UNK N   1      30.619  21.647  -3.395  0.00  0.00     0.125 C 
HETATM   30  C   UNK N   1      31.915  22.389  -3.105  0.00  0.00     0.027 C 
ENDBRANCH   1  29
TORSDOF 9
ENDMDL
