MODEL 1
REMARK VINA RESULT:      -7.8      0.000      0.000
REMARK  4 active torsions:
REMARK  status: ('A' for Active; 'I' for Inactive)
REMARK    1  A    between atoms: O_2  and  C_3 
REMARK    2  A    between atoms: C_3  and  C_5 
REMARK    3  A    between atoms: C_12  and  O_13 
REMARK    4  A    between atoms: C_24  and  O_25 
ROOT
HETATM    1  C   UNK N   1      28.479  23.233  -5.057  0.00  0.00     0.053 A 
HETATM    2  C   UNK N   1      27.971  23.894  -3.957  0.00  0.00    -0.059 A 
HETATM    3  C   UNK N   1      26.758  24.735  -3.955  0.00  0.00     0.045 C 
HETATM    4  C   UNK N   1      28.601  23.839  -2.590  0.00  0.00     0.118 A 
HETATM    5  C   UNK N   1      29.832  23.027  -2.436  0.00  0.00     0.167 A 
HETATM    6  O   UNK N   1      30.357  22.971  -1.334  0.00  0.00    -0.292 OA
HETATM    7  C   UNK N   1      30.404  22.309  -3.589  0.00  0.00     0.055 A 
HETATM    8  C   UNK N   1      31.589  21.523  -3.459  0.00  0.00     0.095 A 
HETATM    9  C   UNK N   1      32.122  20.840  -4.580  0.00  0.00     0.063 A 
HETATM   10  C   UNK N   1      31.462  20.954  -5.810  0.00  0.00     0.033 A 
HETATM   11  C   UNK N   1      30.317  21.720  -5.911  0.00  0.00     0.030 A 
HETATM   12  C   UNK N   1      29.754  22.409  -4.842  0.00  0.00    -0.002 A 
HETATM   13  C   UNK N   1      31.961  20.270  -7.015  0.00  0.00     0.194 A 
HETATM   14  O   UNK N   1      31.361  20.390  -8.077  0.00  0.00    -0.287 OA
HETATM   15  C   UNK N   1      33.177  19.446  -6.948  0.00  0.00     0.032 A 
HETATM   16  C   UNK N   1      33.637  18.804  -8.104  0.00  0.00     0.017 A 
HETATM   17  C   UNK N   1      34.784  18.019  -8.067  0.00  0.00     0.004 A 
HETATM   18  C   UNK N   1      35.483  17.868  -6.870  0.00  0.00     0.037 A 
HETATM   19  C   UNK N   1      35.041  18.501  -5.704  0.00  0.00     0.080 A 
HETATM   20  C   UNK N   1      33.874  19.304  -5.728  0.00  0.00     0.062 A 
HETATM   21  C   UNK N   1      33.361  20.002  -4.504  0.00  0.00     0.199 A 
HETATM   22  O   UNK N   1      33.957  19.885  -3.442  0.00  0.00    -0.286 OA
ENDROOT
BRANCH   1  23
HETATM   23  C   UNK N   1      27.874  23.249  -6.505  0.00  0.00     0.294 C 
HETATM   24  O   UNK N   1      28.282  24.107  -7.268  0.00  0.00    -0.259 OA
BRANCH  23  25
HETATM   25  O   UNK N   1      26.934  22.427  -7.062  0.00  0.00    -0.322 OA
HETATM   26  C   UNK N   1      25.575  22.322  -6.970  0.00  0.00     0.213 C 
ENDBRANCH  23  25
ENDBRANCH   1  23
BRANCH   8  27
HETATM   27  O   UNK N   1      32.207  21.428  -2.264  0.00  0.00    -0.359 OA
HETATM   28  H   UNK N   1      31.720  21.180  -1.503  0.00  0.00     0.217 HD
ENDBRANCH   8  27
BRANCH  19  29
HETATM   29  O   UNK N   1      35.744  18.330  -4.571  0.00  0.00    -0.360 OA
HETATM   30  H   UNK N   1      35.425  17.752  -3.906  0.00  0.00     0.217 HD
ENDBRANCH  19  29
TORSDOF 4
ENDMDL
MODEL 2
REMARK VINA RESULT:      -7.6      1.590      6.779
REMARK  4 active torsions:
REMARK  status: ('A' for Active; 'I' for Inactive)
REMARK    1  A    between atoms: O_2  and  C_3 
REMARK    2  A    between atoms: C_3  and  C_5 
REMARK    3  A    between atoms: C_12  and  O_13 
REMARK    4  A    between atoms: C_24  and  O_25 
ROOT
HETATM    1  C   UNK N   1      32.991  20.220  -5.861  0.00  0.00     0.053 A 
HETATM    2  C   UNK N   1      34.014  19.808  -5.032  0.00  0.00    -0.059 A 
HETATM    3  C   UNK N   1      35.157  18.969  -5.443  0.00  0.00     0.045 C 
HETATM    4  C   UNK N   1      34.097  20.167  -3.571  0.00  0.00     0.118 A 
HETATM    5  C   UNK N   1      33.012  21.010  -3.012  0.00  0.00     0.167 A 
HETATM    6  O   UNK N   1      33.062  21.311  -1.829  0.00  0.00    -0.292 OA
HETATM    7  C   UNK N   1      31.904  21.469  -3.867  0.00  0.00     0.055 A 
HETATM    8  C   UNK N   1      30.851  22.281  -3.345  0.00  0.00     0.095 A 
HETATM    9  C   UNK N   1      29.795  22.711  -4.185  0.00  0.00     0.063 A 
HETATM   10  C   UNK N   1      29.808  22.324  -5.531  0.00  0.00     0.033 A 
HETATM   11  C   UNK N   1      30.837  21.538  -6.013  0.00  0.00     0.030 A 
HETATM   12  C   UNK N   1      31.896  21.089  -5.231  0.00  0.00    -0.002 A 
HETATM   13  C   UNK N   1      28.742  22.735  -6.460  0.00  0.00     0.194 A 
HETATM   14  O   UNK N   1      28.782  22.380  -7.632  0.00  0.00    -0.287 OA
HETATM   15  C   UNK N   1      27.630  23.572  -5.984  0.00  0.00     0.032 A 
HETATM   16  C   UNK N   1      26.625  23.954  -6.881  0.00  0.00     0.017 A 
HETATM   17  C   UNK N   1      25.563  24.745  -6.457  0.00  0.00     0.004 A 
HETATM   18  C   UNK N   1      25.496  25.162  -5.128  0.00  0.00     0.037 A 
HETATM   19  C   UNK N   1      26.489  24.791  -4.216  0.00  0.00     0.080 A 
HETATM   20  C   UNK N   1      27.577  23.986  -4.635  0.00  0.00     0.062 A 
HETATM   21  C   UNK N   1      28.665  23.564  -3.694  0.00  0.00     0.199 A 
HETATM   22  O   UNK N   1      28.629  23.916  -2.523  0.00  0.00    -0.286 OA
ENDROOT
BRANCH   1  23
HETATM   23  C   UNK N   1      32.845  19.882  -7.387  0.00  0.00     0.294 C 
HETATM   24  O   UNK N   1      33.503  20.548  -8.168  0.00  0.00    -0.259 OA
BRANCH  23  25
HETATM   25  O   UNK N   1      32.075  18.931  -7.996  0.00  0.00    -0.322 OA
HETATM   26  C   UNK N   1      30.944  18.957  -8.762  0.00  0.00     0.213 C 
ENDBRANCH  23  25
ENDBRANCH   1  23
BRANCH   8  27
HETATM   27  O   UNK N   1      30.860  22.641  -2.046  0.00  0.00    -0.359 OA
HETATM   28  H   UNK N   1      31.661  22.907  -1.639  0.00  0.00     0.217 HD
ENDBRANCH   8  27
BRANCH  19  29
HETATM   29  O   UNK N   1      26.387  25.214  -2.944  0.00  0.00    -0.360 OA
HETATM   30  H   UNK N   1      27.072  25.027  -2.332  0.00  0.00     0.217 HD
ENDBRANCH  19  29
TORSDOF 4
ENDMDL
MODEL 3
REMARK VINA RESULT:      -7.6     14.948     16.977
REMARK  4 active torsions:
REMARK  status: ('A' for Active; 'I' for Inactive)
REMARK    1  A    between atoms: O_2  and  C_3 
REMARK    2  A    between atoms: C_3  and  C_5 
REMARK    3  A    between atoms: C_12  and  O_13 
REMARK    4  A    between atoms: C_24  and  O_25 
ROOT
HETATM    1  C   UNK N   1      33.141  15.100   6.271  0.00  0.00     0.053 A 
HETATM    2  C   UNK N   1      33.040  16.287   5.572  0.00  0.00    -0.059 A 
HETATM    3  C   UNK N   1      32.430  16.437   4.237  0.00  0.00     0.045 C 
HETATM    4  C   UNK N   1      33.549  17.605   6.093  0.00  0.00     0.118 A 
HETATM    5  C   UNK N   1      34.191  17.610   7.430  0.00  0.00     0.167 A 
HETATM    6  O   UNK N   1      34.611  18.670   7.869  0.00  0.00    -0.292 OA
HETATM    7  C   UNK N   1      34.317  16.363   8.205  0.00  0.00     0.055 A 
HETATM    8  C   UNK N   1      34.933  16.350   9.494  0.00  0.00     0.095 A 
HETATM    9  C   UNK N   1      35.043  15.140  10.223  0.00  0.00     0.063 A 
HETATM   10  C   UNK N   1      34.538  13.965   9.651  0.00  0.00     0.033 A 
HETATM   11  C   UNK N   1      33.947  14.003   8.403  0.00  0.00     0.030 A 
HETATM   12  C   UNK N   1      33.814  15.164   7.648  0.00  0.00    -0.002 A 
HETATM   13  C   UNK N   1      34.620  12.673  10.353  0.00  0.00     0.194 A 
HETATM   14  O   UNK N   1      34.169  11.663   9.827  0.00  0.00    -0.287 OA
HETATM   15  C   UNK N   1      35.242  12.593  11.683  0.00  0.00     0.032 A 
HETATM   16  C   UNK N   1      35.311  11.356  12.336  0.00  0.00     0.017 A 
HETATM   17  C   UNK N   1      35.894  11.253  13.594  0.00  0.00     0.004 A 
HETATM   18  C   UNK N   1      36.414  12.388  14.213  0.00  0.00     0.037 A 
HETATM   19  C   UNK N   1      36.355  13.634  13.578  0.00  0.00     0.080 A 
HETATM   20  C   UNK N   1      35.764  13.753  12.296  0.00  0.00     0.062 A 
HETATM   21  C   UNK N   1      35.678  15.066  11.577  0.00  0.00     0.199 A 
HETATM   22  O   UNK N   1      36.127  16.077  12.099  0.00  0.00    -0.286 OA
ENDROOT
BRANCH   1  23
HETATM   23  C   UNK N   1      32.633  13.696   5.788  0.00  0.00     0.294 C 
HETATM   24  O   UNK N   1      31.453  13.444   5.962  0.00  0.00    -0.259 OA
BRANCH  23  25
HETATM   25  O   UNK N   1      33.324  12.683   5.185  0.00  0.00    -0.322 OA
HETATM   26  C   UNK N   1      34.603  12.530   4.732  0.00  0.00     0.213 C 
ENDBRANCH  23  25
ENDBRANCH   1  23
BRANCH   8  27
HETATM   27  O   UNK N   1      35.412  17.494  10.023  0.00  0.00    -0.359 OA
HETATM   28  H   UNK N   1      36.049  17.996   9.555  0.00  0.00     0.217 HD
ENDBRANCH   8  27
BRANCH  19  29
HETATM   29  O   UNK N   1      36.869  14.704  14.209  0.00  0.00    -0.360 OA
HETATM   30  H   UNK N   1      37.161  15.444  13.713  0.00  0.00     0.217 HD
ENDBRANCH  19  29
TORSDOF 4
ENDMDL
MODEL 4
REMARK VINA RESULT:      -7.5     16.346     18.674
REMARK  4 active torsions:
REMARK  status: ('A' for Active; 'I' for Inactive)
REMARK    1  A    between atoms: O_2  and  C_3 
REMARK    2  A    between atoms: C_3  and  C_5 
REMARK    3  A    between atoms: C_12  and  O_13 
REMARK    4  A    between atoms: C_24  and  O_25 
ROOT
HETATM    1  C   UNK N   1      34.999  10.947  12.185  0.00  0.00     0.053 A 
HETATM    2  C   UNK N   1      35.534  10.725  13.438  0.00  0.00    -0.059 A 
HETATM    3  C   UNK N   1      35.566   9.421  14.130  0.00  0.00     0.045 C 
HETATM    4  C   UNK N   1      36.165  11.805  14.276  0.00  0.00     0.118 A 
HETATM    5  C   UNK N   1      36.207  13.174  13.709  0.00  0.00     0.167 A 
HETATM    6  O   UNK N   1      36.715  14.064  14.374  0.00  0.00    -0.292 OA
HETATM    7  C   UNK N   1      35.646  13.449  12.374  0.00  0.00     0.055 A 
HETATM    8  C   UNK N   1      35.677  14.762  11.813  0.00  0.00     0.095 A 
HETATM    9  C   UNK N   1      35.133  15.004  10.527  0.00  0.00     0.063 A 
HETATM   10  C   UNK N   1      34.566  13.932   9.826  0.00  0.00     0.033 A 
HETATM   11  C   UNK N   1      34.548  12.671  10.390  0.00  0.00     0.030 A 
HETATM   12  C   UNK N   1      35.069  12.381  11.647  0.00  0.00    -0.002 A 
HETATM   13  C   UNK N   1      33.983  14.113   8.486  0.00  0.00     0.194 A 
HETATM   14  O   UNK N   1      33.495  13.155   7.899  0.00  0.00    -0.287 OA
HETATM   15  C   UNK N   1      33.983  15.439   7.853  0.00  0.00     0.032 A 
HETATM   16  C   UNK N   1      33.424  15.593   6.579  0.00  0.00     0.017 A 
HETATM   17  C   UNK N   1      33.412  16.838   5.957  0.00  0.00     0.004 A 
HETATM   18  C   UNK N   1      33.961  17.942   6.607  0.00  0.00     0.037 A 
HETATM   19  C   UNK N   1      34.525  17.810   7.880  0.00  0.00     0.080 A 
HETATM   20  C   UNK N   1      34.544  16.549   8.524  0.00  0.00     0.062 A 
HETATM   21  C   UNK N   1      35.137  16.359   9.888  0.00  0.00     0.199 A 
HETATM   22  O   UNK N   1      35.625  17.313  10.478  0.00  0.00    -0.286 OA
ENDROOT
BRANCH   1  23
HETATM   23  C   UNK N   1      34.329   9.869  11.262  0.00  0.00     0.294 C 
HETATM   24  O   UNK N   1      35.071   9.083  10.698  0.00  0.00    -0.259 OA
BRANCH  23  25
HETATM   25  O   UNK N   1      33.006   9.666  10.982  0.00  0.00    -0.322 OA
HETATM   26  C   UNK N   1      32.299   9.367   9.854  0.00  0.00     0.213 C 
ENDBRANCH  23  25
ENDBRANCH   1  23
BRANCH   8  27
HETATM   27  O   UNK N   1      36.228  15.778  12.507  0.00  0.00    -0.359 OA
HETATM   28  H   UNK N   1      36.462  15.659  13.406  0.00  0.00     0.217 HD
ENDBRANCH   8  27
BRANCH  19  29
HETATM   29  O   UNK N   1      35.044  18.901   8.472  0.00  0.00    -0.360 OA
HETATM   30  H   UNK N   1      34.530  19.680   8.549  0.00  0.00     0.217 HD
ENDBRANCH  19  29
TORSDOF 4
ENDMDL
MODEL 5
REMARK VINA RESULT:      -7.3     10.985     14.181
REMARK  4 active torsions:
REMARK  status: ('A' for Active; 'I' for Inactive)
REMARK    1  A    between atoms: O_2  and  C_3 
REMARK    2  A    between atoms: C_3  and  C_5 
REMARK    3  A    between atoms: C_12  and  O_13 
REMARK    4  A    between atoms: C_24  and  O_25 
ROOT
HETATM    1  C   UNK N   1      32.686  14.411   6.094  0.00  0.00     0.053 A 
HETATM    2  C   UNK N   1      33.414  13.774   7.079  0.00  0.00    -0.059 A 
HETATM    3  C   UNK N   1      34.436  12.735   6.843  0.00  0.00     0.045 C 
HETATM    4  C   UNK N   1      33.256  14.063   8.548  0.00  0.00     0.118 A 
HETATM    5  C   UNK N   1      32.261  15.090   8.940  0.00  0.00     0.167 A 
HETATM    6  O   UNK N   1      32.119  15.338  10.128  0.00  0.00    -0.292 OA
HETATM    7  C   UNK N   1      31.465  15.791   7.917  0.00  0.00     0.055 A 
HETATM    8  C   UNK N   1      30.502  16.782   8.277  0.00  0.00     0.095 A 
HETATM    9  C   UNK N   1      29.748  17.444   7.277  0.00  0.00     0.063 A 
HETATM   10  C   UNK N   1      29.968  17.104   5.936  0.00  0.00     0.033 A 
HETATM   11  C   UNK N   1      30.905  16.141   5.612  0.00  0.00     0.030 A 
HETATM   12  C   UNK N   1      31.671  15.463   6.556  0.00  0.00    -0.002 A 
HETATM   13  C   UNK N   1      29.219  17.752   4.846  0.00  0.00     0.194 A 
HETATM   14  O   UNK N   1      29.435  17.432   3.683  0.00  0.00    -0.287 OA
HETATM   15  C   UNK N   1      28.214  18.780   5.150  0.00  0.00     0.032 A 
HETATM   16  C   UNK N   1      27.511  19.386   4.101  0.00  0.00     0.017 A 
HETATM   17  C   UNK N   1      26.555  20.362   4.362  0.00  0.00     0.004 A 
HETATM   18  C   UNK N   1      26.292  20.742   5.677  0.00  0.00     0.037 A 
HETATM   19  C   UNK N   1      26.983  20.149   6.740  0.00  0.00     0.080 A 
HETATM   20  C   UNK N   1      27.959  19.154   6.488  0.00  0.00     0.062 A 
HETATM   21  C   UNK N   1      28.725  18.491   7.594  0.00  0.00     0.199 A 
HETATM   22  O   UNK N   1      28.513  18.807   8.756  0.00  0.00    -0.286 OA
ENDROOT
BRANCH   1  23
HETATM   23  C   UNK N   1      32.801  14.157   4.549  0.00  0.00     0.294 C 
HETATM   24  O   UNK N   1      32.173  13.217   4.094  0.00  0.00    -0.259 OA
BRANCH  23  25
HETATM   25  O   UNK N   1      33.514  14.845   3.607  0.00  0.00    -0.322 OA
HETATM   26  C   UNK N   1      33.319  16.004   2.913  0.00  0.00     0.213 C 
ENDBRANCH  23  25
ENDBRANCH   1  23
BRANCH   8  27
HETATM   27  O   UNK N   1      30.308  17.092   9.574  0.00  0.00    -0.359 OA
HETATM   28  H   UNK N   1      30.347  16.422  10.227  0.00  0.00     0.217 HD
ENDBRANCH   8  27
BRANCH  19  29
HETATM   29  O   UNK N   1      26.700  20.544   7.993  0.00  0.00    -0.360 OA
HETATM   30  H   UNK N   1      27.113  21.306   8.348  0.00  0.00     0.217 HD
ENDBRANCH  19  29
TORSDOF 4
ENDMDL
MODEL 6
REMARK VINA RESULT:      -7.3     10.939     13.657
REMARK  4 active torsions:
REMARK  status: ('A' for Active; 'I' for Inactive)
REMARK    1  A    between atoms: O_2  and  C_3 
REMARK    2  A    between atoms: C_3  and  C_5 
REMARK    3  A    between atoms: C_12  and  O_13 
REMARK    4  A    between atoms: C_24  and  O_25 
ROOT
HETATM    1  C   UNK N   1      27.407  15.934   5.095  0.00  0.00     0.053 A 
HETATM    2  C   UNK N   1      28.717  16.320   5.294  0.00  0.00    -0.059 A 
HETATM    3  C   UNK N   1      29.810  15.426   5.724  0.00  0.00     0.045 C 
HETATM    4  C   UNK N   1      29.209  17.729   5.096  0.00  0.00     0.118 A 
HETATM    5  C   UNK N   1      28.219  18.745   4.662  0.00  0.00     0.167 A 
HETATM    6  O   UNK N   1      28.600  19.893   4.496  0.00  0.00    -0.292 OA
HETATM    7  C   UNK N   1      26.811  18.370   4.439  0.00  0.00     0.055 A 
HETATM    8  C   UNK N   1      25.845  19.335   4.021  0.00  0.00     0.095 A 
HETATM    9  C   UNK N   1      24.496  18.954   3.813  0.00  0.00     0.063 A 
HETATM   10  C   UNK N   1      24.137  17.616   4.025  0.00  0.00     0.033 A 
HETATM   11  C   UNK N   1      25.091  16.701   4.428  0.00  0.00     0.030 A 
HETATM   12  C   UNK N   1      26.426  17.024   4.647  0.00  0.00    -0.002 A 
HETATM   13  C   UNK N   1      22.754  17.152   3.826  0.00  0.00     0.194 A 
HETATM   14  O   UNK N   1      22.472  15.975   4.020  0.00  0.00    -0.287 OA
HETATM   15  C   UNK N   1      21.712  18.095   3.397  0.00  0.00     0.032 A 
HETATM   16  C   UNK N   1      20.402  17.636   3.213  0.00  0.00     0.017 A 
HETATM   17  C   UNK N   1      19.398  18.509   2.808  0.00  0.00     0.004 A 
HETATM   18  C   UNK N   1      19.695  19.852   2.581  0.00  0.00     0.037 A 
HETATM   19  C   UNK N   1      20.997  20.331   2.759  0.00  0.00     0.080 A 
HETATM   20  C   UNK N   1      22.029  19.453   3.172  0.00  0.00     0.062 A 
HETATM   21  C   UNK N   1      23.440  19.921   3.375  0.00  0.00     0.199 A 
HETATM   22  O   UNK N   1      23.726  21.094   3.183  0.00  0.00    -0.286 OA
ENDROOT
BRANCH   1  23
HETATM   23  C   UNK N   1      26.830  14.487   5.283  0.00  0.00     0.294 C 
HETATM   24  O   UNK N   1      26.375  14.210   6.379  0.00  0.00    -0.259 OA
BRANCH  23  25
HETATM   25  O   UNK N   1      26.756  13.458   4.386  0.00  0.00    -0.322 OA
HETATM   26  C   UNK N   1      26.213  13.306   3.143  0.00  0.00     0.213 C 
ENDBRANCH  23  25
ENDBRANCH   1  23
BRANCH   8  27
HETATM   27  O   UNK N   1      26.214  20.617   3.824  0.00  0.00    -0.359 OA
HETATM   28  H   UNK N   1      25.980  21.054   3.030  0.00  0.00     0.217 HD
ENDBRANCH   8  27
BRANCH  19  29
HETATM   29  O   UNK N   1      21.242  21.633   2.530  0.00  0.00    -0.360 OA
HETATM   30  H   UNK N   1      22.033  21.891   2.098  0.00  0.00     0.217 HD
ENDBRANCH  19  29
TORSDOF 4
ENDMDL
MODEL 7
REMARK VINA RESULT:      -7.2     10.774     13.760
REMARK  4 active torsions:
REMARK  status: ('A' for Active; 'I' for Inactive)
REMARK    1  A    between atoms: O_2  and  C_3 
REMARK    2  A    between atoms: C_3  and  C_5 
REMARK    3  A    between atoms: C_12  and  O_13 
REMARK    4  A    between atoms: C_24  and  O_25 
ROOT
HETATM    1  C   UNK N   1      31.595  17.225   6.922  0.00  0.00     0.053 A 
HETATM    2  C   UNK N   1      32.825  17.494   6.353  0.00  0.00    -0.059 A 
HETATM    3  C   UNK N   1      34.048  17.846   7.101  0.00  0.00     0.045 C 
HETATM    4  C   UNK N   1      33.080  17.461   4.869  0.00  0.00     0.118 A 
HETATM    5  C   UNK N   1      31.938  17.120   3.987  0.00  0.00     0.167 A 
HETATM    6  O   UNK N   1      32.126  17.089   2.780  0.00  0.00    -0.292 OA
HETATM    7  C   UNK N   1      30.611  16.828   4.557  0.00  0.00     0.055 A 
HETATM    8  C   UNK N   1      29.501  16.498   3.722  0.00  0.00     0.095 A 
HETATM    9  C   UNK N   1      28.234  16.220   4.291  0.00  0.00     0.063 A 
HETATM   10  C   UNK N   1      28.098  16.276   5.684  0.00  0.00     0.033 A 
HETATM   11  C   UNK N   1      29.187  16.598   6.472  0.00  0.00     0.030 A 
HETATM   12  C   UNK N   1      30.451  16.879   5.962  0.00  0.00    -0.002 A 
HETATM   13  C   UNK N   1      26.810  15.999   6.342  0.00  0.00     0.194 A 
HETATM   14  O   UNK N   1      26.724  16.056   7.563  0.00  0.00    -0.287 OA
HETATM   15  C   UNK N   1      25.629  15.653   5.538  0.00  0.00     0.032 A 
HETATM   16  C   UNK N   1      24.413  15.393   6.181  0.00  0.00     0.017 A 
HETATM   17  C   UNK N   1      23.280  15.063   5.443  0.00  0.00     0.004 A 
HETATM   18  C   UNK N   1      23.355  14.992   4.053  0.00  0.00     0.037 A 
HETATM   19  C   UNK N   1      24.560  15.249   3.391  0.00  0.00     0.080 A 
HETATM   20  C   UNK N   1      25.721  15.585   4.131  0.00  0.00     0.062 A 
HETATM   21  C   UNK N   1      27.035  15.868   3.466  0.00  0.00     0.199 A 
HETATM   22  O   UNK N   1      27.126  15.812   2.247  0.00  0.00    -0.286 OA
ENDROOT
BRANCH   1  23
HETATM   23  C   UNK N   1      31.263  17.242   8.456  0.00  0.00     0.294 C 
HETATM   24  O   UNK N   1      31.477  16.217   9.080  0.00  0.00    -0.259 OA
BRANCH  23  25
HETATM   25  O   UNK N   1      30.757  18.253   9.223  0.00  0.00    -0.322 OA
HETATM   26  C   UNK N   1      29.526  18.543   9.739  0.00  0.00     0.213 C 
ENDBRANCH  23  25
ENDBRANCH   1  23
BRANCH   8  27
HETATM   27  O   UNK N   1      29.657  16.450   2.383  0.00  0.00    -0.359 OA
HETATM   28  H   UNK N   1      30.273  17.016   1.963  0.00  0.00     0.217 HD
ENDBRANCH   8  27
BRANCH  19  29
HETATM   29  O   UNK N   1      24.589  15.169   2.050  0.00  0.00    -0.360 OA
HETATM   30  H   UNK N   1      23.788  15.171   1.564  0.00  0.00     0.217 HD
ENDBRANCH  19  29
TORSDOF 4
ENDMDL
MODEL 8
REMARK VINA RESULT:      -7.0     12.605     15.370
REMARK  4 active torsions:
REMARK  status: ('A' for Active; 'I' for Inactive)
REMARK    1  A    between atoms: O_2  and  C_3 
REMARK    2  A    between atoms: C_3  and  C_5 
REMARK    3  A    between atoms: C_12  and  O_13 
REMARK    4  A    between atoms: C_24  and  O_25 
ROOT
HETATM    1  C   UNK N   1      23.286  13.735   7.493  0.00  0.00     0.053 A 
HETATM    2  C   UNK N   1      22.160  13.104   7.982  0.00  0.00    -0.059 A 
HETATM    3  C   UNK N   1      22.161  11.864   8.783  0.00  0.00     0.045 C 
HETATM    4  C   UNK N   1      20.759  13.609   7.757  0.00  0.00     0.118 A 
HETATM    5  C   UNK N   1      20.600  14.853   6.965  0.00  0.00     0.167 A 
HETATM    6  O   UNK N   1      19.471  15.278   6.771  0.00  0.00    -0.292 OA
HETATM    7  C   UNK N   1      21.779  15.554   6.427  0.00  0.00     0.055 A 
HETATM    8  C   UNK N   1      21.644  16.752   5.662  0.00  0.00     0.095 A 
HETATM    9  C   UNK N   1      22.791  17.411   5.154  0.00  0.00     0.063 A 
HETATM   10  C   UNK N   1      24.052  16.861   5.418  0.00  0.00     0.033 A 
HETATM   11  C   UNK N   1      24.157  15.701   6.161  0.00  0.00     0.030 A 
HETATM   12  C   UNK N   1      23.063  15.017   6.682  0.00  0.00    -0.002 A 
HETATM   13  C   UNK N   1      25.285  17.494   4.921  0.00  0.00     0.194 A 
HETATM   14  O   UNK N   1      26.373  16.988   5.169  0.00  0.00    -0.287 OA
HETATM   15  C   UNK N   1      25.214  18.729   4.128  0.00  0.00     0.032 A 
HETATM   16  C   UNK N   1      26.397  19.317   3.663  0.00  0.00     0.017 A 
HETATM   17  C   UNK N   1      26.357  20.486   2.910  0.00  0.00     0.004 A 
HETATM   18  C   UNK N   1      25.131  21.079   2.615  0.00  0.00     0.037 A 
HETATM   19  C   UNK N   1      23.937  20.509   3.070  0.00  0.00     0.080 A 
HETATM   20  C   UNK N   1      23.964  19.318   3.837  0.00  0.00     0.062 A 
HETATM   21  C   UNK N   1      22.711  18.670   4.346  0.00  0.00     0.199 A 
HETATM   22  O   UNK N   1      21.622  19.171   4.101  0.00  0.00    -0.286 OA
ENDROOT
BRANCH   1  23
HETATM   23  C   UNK N   1      24.770  13.263   7.692  0.00  0.00     0.294 C 
HETATM   24  O   UNK N   1      25.263  13.433   8.793  0.00  0.00    -0.259 OA
BRANCH  23  25
HETATM   25  O   UNK N   1      25.621  12.675   6.798  0.00  0.00    -0.322 OA
HETATM   26  C   UNK N   1      25.484  12.152   5.544  0.00  0.00     0.213 C 
ENDBRANCH  23  25
ENDBRANCH   1  23
BRANCH   8  27
HETATM   27  O   UNK N   1      20.419  17.263   5.420  0.00  0.00    -0.359 OA
HETATM   28  H   UNK N   1      20.051  17.893   6.007  0.00  0.00     0.217 HD
ENDBRANCH   8  27
BRANCH  19  29
HETATM   29  O   UNK N   1      22.776  21.112   2.763  0.00  0.00    -0.360 OA
HETATM   30  H   UNK N   1      22.189  20.714   2.151  0.00  0.00     0.217 HD
ENDBRANCH  19  29
TORSDOF 4
ENDMDL
MODEL 9
REMARK VINA RESULT:      -7.0     13.489     16.430
REMARK  4 active torsions:
REMARK  status: ('A' for Active; 'I' for Inactive)
REMARK    1  A    between atoms: O_2  and  C_3 
REMARK    2  A    between atoms: C_3  and  C_5 
REMARK    3  A    between atoms: C_12  and  O_13 
REMARK    4  A    between atoms: C_24  and  O_25 
ROOT
HETATM    1  C   UNK N   1      37.062  13.592   8.760  0.00  0.00     0.053 A 
HETATM    2  C   UNK N   1      37.516  13.150   9.987  0.00  0.00    -0.059 A 
HETATM    3  C   UNK N   1      38.822  12.506  10.228  0.00  0.00     0.045 C 
HETATM    4  C   UNK N   1      36.722  13.272  11.261  0.00  0.00     0.118 A 
HETATM    5  C   UNK N   1      35.382  13.902  11.174  0.00  0.00     0.167 A 
HETATM    6  O   UNK N   1      34.724  14.010  12.197  0.00  0.00    -0.292 OA
HETATM    7  C   UNK N   1      34.864  14.386   9.882  0.00  0.00     0.055 A 
HETATM    8  C   UNK N   1      33.577  14.995   9.780  0.00  0.00     0.095 A 
HETATM    9  C   UNK N   1      33.098  15.452   8.528  0.00  0.00     0.063 A 
HETATM   10  C   UNK N   1      33.913  15.293   7.399  0.00  0.00     0.033 A 
HETATM   11  C   UNK N   1      35.155  14.701   7.523  0.00  0.00     0.030 A 
HETATM   12  C   UNK N   1      35.671  14.235   8.728  0.00  0.00    -0.002 A 
HETATM   13  C   UNK N   1      33.477  15.746   6.067  0.00  0.00     0.194 A 
HETATM   14  O   UNK N   1      34.213  15.593   5.100  0.00  0.00    -0.287 OA
HETATM   15  C   UNK N   1      32.163  16.381   5.896  0.00  0.00     0.032 A 
HETATM   16  C   UNK N   1      31.765  16.805   4.622  0.00  0.00     0.017 A 
HETATM   17  C   UNK N   1      30.526  17.409   4.433  0.00  0.00     0.004 A 
HETATM   18  C   UNK N   1      29.672  17.594   5.519  0.00  0.00     0.037 A 
HETATM   19  C   UNK N   1      30.050  17.177   6.800  0.00  0.00     0.080 A 
HETATM   20  C   UNK N   1      31.308  16.561   7.006  0.00  0.00     0.062 A 
HETATM   21  C   UNK N   1      31.757  16.098   8.360  0.00  0.00     0.199 A 
HETATM   22  O   UNK N   1      31.025  16.250   9.329  0.00  0.00    -0.286 OA
ENDROOT
BRANCH   1  23
HETATM   23  C   UNK N   1      37.837  13.496   7.398  0.00  0.00     0.294 C 
HETATM   24  O   UNK N   1      37.584  12.542   6.683  0.00  0.00    -0.259 OA
BRANCH  23  25
HETATM   25  O   UNK N   1      38.777  14.337   6.873  0.00  0.00    -0.322 OA
HETATM   26  C   UNK N   1      40.139  14.410   6.930  0.00  0.00     0.213 C 
ENDBRANCH  23  25
ENDBRANCH   1  23
BRANCH   8  27
HETATM   27  O   UNK N   1      32.810  15.137  10.880  0.00  0.00    -0.359 OA
HETATM   28  H   UNK N   1      32.297  15.912  10.997  0.00  0.00     0.217 HD
ENDBRANCH   8  27
BRANCH  19  29
HETATM   29  O   UNK N   1      29.196  17.374   7.820  0.00  0.00    -0.360 OA
HETATM   30  H   UNK N   1      28.833  18.225   7.969  0.00  0.00     0.217 HD
ENDBRANCH  19  29
TORSDOF 4
ENDMDL
