REMARK  8 active torsions:
REMARK  status: ('A' for Active; 'I' for Inactive)
REMARK    1  A    between atoms: C_8  and  N_26 
REMARK    2  A    between atoms: C_18  and  O_36 
REMARK    3  A    between atoms: C_23  and  O_39 
REMARK    4  A    between atoms: O_41  and  C_23 
REMARK    5  A    between atoms: O_40  and  C_24 
REMARK    6  A    between atoms: C_24  and  O_43 
REMARK    7  A    between atoms: O_42  and  C_25 
REMARK    8  A    between atoms: C_25  and  O_44 
ROOT
HETATM    1  C   UNK N   1      -1.843  -0.938   0.000  0.00  0.00     0.042 A 
HETATM    2  C   UNK N   1      -3.158  -1.950   0.000  0.00  0.00     0.036 A 
HETATM    3  C   UNK N   1      -3.272  -0.112  -0.000  0.00  0.00     0.171 A 
HETATM    4  C   UNK N   1      -1.014   1.538   0.000  0.00  0.00     0.198 A 
HETATM    5  C   UNK N   1      -1.014  -0.112   0.000  0.00  0.00     0.198 A 
HETATM    6  C   UNK N   1      -1.129  -1.350  -0.000  0.00  0.00     0.145 A 
HETATM    7  C   UNK N   1      -3.872  -0.938   0.000  0.00  0.00     0.042 A 
HETATM    8  C   UNK N   1      -3.158  -2.775  -0.000  0.00  0.00     0.109 A 
HETATM    9  C   UNK N   1      -1.014   2.362   0.000  0.00  0.00     0.180 A 
HETATM   10  C   UNK N   1       0.300  -0.300   0.000  0.00  0.00     0.180 A 
HETATM   11  C   UNK N   1      -1.129  -2.775   0.000  0.00  0.00     0.137 A 
HETATM   12  C   UNK N   1      -4.587  -1.350  -0.000  0.00  0.00     0.155 A 
HETATM   13  C   UNK N   1      -3.872  -3.188  -0.000  0.00  0.00     0.171 A 
HETATM   14  C   UNK N   1      -0.415  -3.188  -0.000  0.00  0.00     0.176 A 
HETATM   15  C   UNK N   1      -4.587  -2.775  -0.000  0.00  0.00     0.178 A 
HETATM   16  C   UNK N   1       0.300   3.600  -0.000  0.00  0.00     0.183 A 
HETATM   17  C   UNK N   1       1.729   0.300  -0.000  0.00  0.00     0.183 A 
HETATM   18  C   UNK N   1      -1.014   4.013  -0.000  0.00  0.00     0.204 A 
HETATM   19  C   UNK N   1       0.300  -2.775   0.000  0.00  0.00     0.204 A 
HETATM   20  C   UNK N   1       1.729   1.125  -0.000  0.00  0.00     0.204 A 
HETATM   21  C   UNK N   1       0.300   2.175  -0.000  0.00  0.00     0.187 A 
HETATM   22  C   UNK N   1       1.014  -0.712  -0.000  0.00  0.00     0.187 A 
HETATM   23  C   UNK N   1      -1.729   3.000   0.000  0.00  0.00     0.288 A 
HETATM   24  C   UNK N   1      -0.300  -1.950   0.000  0.00  0.00     0.292 A 
HETATM   25  C   UNK N   1       1.014   0.938   0.000  0.00  0.00     0.292 A 
HETATM   26  N   UNK N   1      -1.843  -3.188  -0.000  0.00  0.00    -0.406 N 
HETATM   27  O   UNK N   1      -3.987   0.300   0.000  0.00  0.00    -0.400 OA
HETATM   28  O   UNK N   1      -1.729   1.125  -0.000  0.00  0.00    -0.398 OA
HETATM   29  O   UNK N   1      -1.729  -0.300  -0.000  0.00  0.00    -0.398 OA
HETATM   30  O   UNK N   1      -5.301  -0.938  -0.000  0.00  0.00    -0.392 OA
HETATM   31  O   UNK N   1      -3.872  -4.013   0.000  0.00  0.00    -0.391 OA
HETATM   32  O   UNK N   1      -1.014  -4.013  -0.000  0.00  0.00    -0.391 OA
HETATM   33  O   UNK N   1      -5.301  -3.188   0.000  0.00  0.00    -0.390 OA
HETATM   34  O   UNK N   1       1.014   3.413   0.000  0.00  0.00    -0.390 OA
HETATM   35  O   UNK N   1       1.843  -0.712   0.000  0.00  0.00    -0.390 OA
HETATM   36  O   UNK N   1       1.014  -3.188  -0.000  0.00  0.00    -0.388 OA
HETATM   37  O   UNK N   1       2.443   1.538  -0.000  0.00  0.00    -0.388 OA
HETATM   38  O   UNK N   1      -1.014  -1.538   0.000  0.00  0.00    -0.352 OA
HETATM   39  O   UNK N   1      -1.729   2.175  -0.000  0.00  0.00    -0.349 OA
HETATM   40  O   UNK N   1       0.300   0.525  -0.000  0.00  0.00    -0.348 OA
HETATM   41  O   UNK N   1       1.014  -1.538   0.000  0.00  0.00    -0.348 OA
HETATM   42  O   UNK N   1       1.014   2.362   0.000  0.00  0.00    -0.348 OA
HETATM   43  H   UNK N   1      -1.732  -4.201  -0.000  0.00  0.00     0.154 HD
HETATM   44  H   UNK N   1      -3.987   1.270   0.000  0.00  0.00     0.209 HD
HETATM   45  H   UNK N   1      -2.569   1.610  -0.000  0.00  0.00     0.209 HD
HETATM   46  H   UNK N   1      -2.411   0.389  -0.000  0.00  0.00     0.209 HD
HETATM   47  H   UNK N   1      -5.301   0.032   0.000  0.00  0.00     0.210 HD
HETATM   48  H   UNK N   1      -4.712  -4.498   0.000  0.00  0.00     0.210 HD
HETATM   49  H   UNK N   1      -1.979  -3.911   0.000  0.00  0.00     0.210 HD
HETATM   50  H   UNK N   1      -6.141  -2.702   0.000  0.00  0.00     0.210 HD
HETATM   51  H   UNK N   1       1.270   2.477   0.000  0.00  0.00     0.210 HD
HETATM   52  H   UNK N   1       1.063  -1.289   0.000  0.00  0.00     0.210 HD
HETATM   53  H   UNK N   1       1.015  -4.157  -0.000  0.00  0.00     0.210 HD
HETATM   54  H   UNK N   1       3.283   1.052   0.000  0.00  0.00     0.210 HD
ENDROOT
BRANCH  18  55
HETATM   55  O   UNK N   1      -1.014   4.837   0.000  0.00  0.00    -0.388 OA
HETATM   56  H   UNK N   1      -0.174   5.322   0.000  0.00  0.00     0.210 HD
ENDBRANCH  18  55
BRANCH  23  57
HETATM   57  O   UNK N   1      -2.443   3.413  -0.000  0.00  0.00    -0.369 OA
HETATM   58  H   UNK N   1      -2.443   4.382  -0.000  0.00  0.00     0.212 HD
ENDBRANCH  23  57
TORSDOF 8
