REMARK  10 active torsions:
REMARK  status: ('A' for Active; 'I' for Inactive)
REMARK    1  A    between atoms: C_4  and  S_5 
REMARK    2  A    between atoms: S_5  and  C_6 
REMARK    3  A    between atoms: C_7  and  O_8 
REMARK    4  A    between atoms: C_10  and  C_11 
REMARK    5  A    between atoms: C_10  and  C_23 
REMARK    6  A    between atoms: C_11  and  C_12 
REMARK    7  A    between atoms: C_12  and  C_13 
REMARK    8  A    between atoms: C_16  and  O_17 
REMARK    9  A    between atoms: C_28  and  C_32 
REMARK   10  A    between atoms: C_30  and  N_31 
ROOT
HETATM    1  C   UNK N   1       2.003   0.402   0.523  0.00  0.00     0.110 C 
HETATM    2  C   UNK N   1       2.511   0.549  -0.706  0.00  0.00     0.069 C 
HETATM    3  C   UNK N   1       2.972  -0.653  -1.480  0.00  0.00     0.105 C 
HETATM    4  C   UNK N   1       3.391  -1.857  -0.613  0.00  0.00     0.081 C 
HETATM    5  O   UNK N   1       2.607  -1.993   0.530  0.00  0.00    -0.305 OA
HETATM    6  C   UNK N   1       1.972  -0.950   1.137  0.00  0.00     0.303 C 
HETATM    7  O   UNK N   1       1.406  -1.126   2.200  0.00  0.00    -0.259 OA
ENDROOT
BRANCH   1   8
HETATM    8  S   UNK N   1       1.310   1.820   1.415  0.00  0.00    -0.081 SA
BRANCH   8   9
HETATM    9  C   UNK N   1      -0.344   1.658   0.691  0.00  0.00     0.013 A 
HETATM   10  C   UNK N   1      -0.913   0.379   0.635  0.00  0.00     0.028 A 
HETATM   11  C   UNK N   1      -2.172   0.169   0.085  0.00  0.00    -0.035 A 
HETATM   12  C   UNK N   1      -2.718  -1.217   0.035  0.00  0.00     0.050 C 
HETATM   13  C   UNK N   1      -2.899   1.254  -0.414  0.00  0.00     0.032 A 
HETATM   14  C   UNK N   1      -2.357   2.538  -0.354  0.00  0.00     0.038 A 
HETATM   15  C   UNK N   1      -1.080   2.773   0.193  0.00  0.00    -0.031 A 
BRANCH  13  16
HETATM   16  N   UNK N   1      -4.178   1.064  -0.978  0.00  0.00    -0.399 N 
HETATM   17  H   UNK N   1      -4.739   1.771  -1.371  0.00  0.00     0.156 HD
HETATM   18  H   UNK N   1      -4.540   0.148  -0.978  0.00  0.00     0.156 HD
ENDBRANCH  13  16
BRANCH  15  19
HETATM   19  C   UNK N   1      -0.539   4.203   0.238  0.00  0.00    -0.023 C 
HETATM   20  C   UNK N   1      -0.257   4.620   1.670  0.00  0.00     0.019 C 
HETATM   21  C   UNK N   1      -1.521   5.222  -0.331  0.00  0.00     0.019 C 
HETATM   22  C   UNK N   1       0.735   4.316  -0.578  0.00  0.00     0.019 C 
ENDBRANCH  15  19
ENDBRANCH   8   9
ENDBRANCH   1   8
BRANCH   2  23
HETATM   23  O   UNK N   1       2.554   1.762  -1.291  0.00  0.00    -0.363 OA
HETATM   24  H   UNK N   1       3.299   2.158  -1.698  0.00  0.00     0.217 HD
ENDBRANCH   2  23
BRANCH   4  25
HETATM   25  C   UNK N   1       4.852  -1.697  -0.211  0.00  0.00     0.044 C 
BRANCH  25  26
HETATM   26  C   UNK N   1       5.207  -0.576   0.746  0.00  0.00     0.041 C 
BRANCH  26  27
HETATM   27  C   UNK N   1       6.676  -0.422   0.612  0.00  0.00    -0.058 A 
HETATM   28  C   UNK N   1       7.192   0.722   0.001  0.00  0.00     0.010 A 
HETATM   29  C   UNK N   1       8.560   0.810  -0.269  0.00  0.00     0.037 A 
HETATM   30  C   UNK N   1       9.409  -0.251   0.063  0.00  0.00     0.065 A 
HETATM   31  C   UNK N   1       8.897  -1.389   0.691  0.00  0.00     0.037 A 
HETATM   32  C   UNK N   1       7.531  -1.478   0.963  0.00  0.00     0.010 A 
BRANCH  30  33
HETATM   33  O   UNK N   1      10.716  -0.178  -0.227  0.00  0.00    -0.361 OA
HETATM   34  H   UNK N   1      11.217  -0.944  -0.431  0.00  0.00     0.217 HD
ENDBRANCH  30  33
ENDBRANCH  26  27
ENDBRANCH  25  26
ENDBRANCH   4  25
BRANCH   4  35
HETATM   35  C   UNK N   1       3.296  -3.110  -1.533  0.00  0.00     0.021 C 
HETATM   36  C   UNK N   1       4.298  -4.223  -1.256  0.00  0.00     0.007 C 
HETATM   37  C   UNK N   1       3.646  -5.110  -0.228  0.00  0.00     0.000 C 
HETATM   38  C   UNK N   1       2.150  -4.943  -0.433  0.00  0.00     0.000 C 
HETATM   39  C   UNK N   1       1.954  -3.814  -1.443  0.00  0.00     0.007 C 
ENDBRANCH   4  35
TORSDOF 10
