MODEL 1
REMARK VINA RESULT:      -5.6      0.000      0.000
REMARK  11 active torsions:
REMARK  status: ('A' for Active; 'I' for Inactive)
REMARK    1  A    between atoms: C_6  and  C_3 
REMARK    2  A    between atoms: N_12  and  C_3 
REMARK    3  A    between atoms: O_15  and  C_4 
REMARK    4  A    between atoms: C_5  and  O_16 
REMARK    5  A    between atoms: C_9  and  C_6 
REMARK    6  A    between atoms: C_6  and  O_17 
REMARK    7  A    between atoms: C_11  and  C_7 
REMARK    8  A    between atoms: C_8  and  N_13 
REMARK    9  A    between atoms: C_10  and  C_9 
REMARK   10  A    between atoms: C_9  and  O_18 
REMARK   11  A    between atoms: O_20  and  C_11 
ROOT
HETATM    1  C   UNK N   1      35.385  16.999  10.269  0.00  0.00     0.050 C 
HETATM    2  C   UNK N   1      35.143  15.895  11.252  0.00  0.00     0.169 C 
HETATM    3  C   UNK N   1      34.600  17.111   9.188  0.00  0.00     0.141 C 
HETATM    4  C   UNK N   1      34.716  14.643  10.485  0.00  0.00     0.148 C 
HETATM    5  C   UNK N   1      33.467  14.971   9.604  0.00  0.00     0.186 C 
HETATM    6  O   UNK N   1      33.620  16.192   8.947  0.00  0.00    -0.335 OA
ENDROOT
BRANCH   5   7
HETATM    7  C   UNK N   1      33.241  13.856   8.546  0.00  0.00     0.180 C 
BRANCH   7   8
HETATM    8  C   UNK N   1      32.830  14.354   7.142  0.00  0.00     0.166 C 
BRANCH   8   9
HETATM    9  C   UNK N   1      33.934  14.147   6.111  0.00  0.00     0.145 C 
BRANCH   9  10
HETATM   10  N   UNK N   1      34.822  15.299   6.090  0.00  0.00    -0.428 N 
HETATM   11  H   UNK N   1      35.520  15.425   6.823  0.00  0.00     0.150 HD
HETATM   12  H   UNK N   1      34.746  15.986   5.339  0.00  0.00     0.150 HD
ENDBRANCH   9  10
ENDBRANCH   8   9
BRANCH   8  13
HETATM   13  O   UNK N   1      31.657  13.726   6.711  0.00  0.00    -0.391 OA
HETATM   14  H   UNK N   1      30.823  13.871   7.185  0.00  0.00     0.210 HD
ENDBRANCH   8  13
ENDBRANCH   7   8
BRANCH   7  15
HETATM   15  O   UNK N   1      32.276  12.949   8.997  0.00  0.00    -0.390 OA
HETATM   16  H   UNK N   1      32.511  12.281   9.659  0.00  0.00     0.210 HD
ENDBRANCH   7  15
ENDBRANCH   5   7
BRANCH   4  17
HETATM   17  N   UNK N   1      34.414  13.584  11.437  0.00  0.00    -0.365 N 
HETATM   18  C   UNK N   1      35.235  12.643  11.762  0.00  0.00     0.107 C 
HETATM   19  C   UNK N   1      34.811  11.614  12.751  0.00  0.00     0.097 C 
ATOM     20  HN  UNK N   1      33.493  13.585  11.875  1.00  0.00     0.161 HD
BRANCH  18  21
HETATM   21  O   UNK N   1      36.477  12.587  11.240  0.00  0.00    -0.350 OA
HETATM   22  H   UNK N   1      37.247  12.354  10.760  0.00  0.00     0.219 HD
ENDBRANCH  18  21
ENDBRANCH   4  17
BRANCH   2  23
HETATM   23  O   UNK N   1      36.315  15.650  11.971  0.00  0.00    -0.389 OA
HETATM   24  H   UNK N   1      36.470  15.989  12.866  0.00  0.00     0.210 HD
ENDBRANCH   2  23
BRANCH   3  25
HETATM   25  C   UNK N   1      34.787  18.232   8.249  0.00  0.00     0.200 C 
HETATM   26  O   UNK N   1      35.319  19.262   8.627  0.00  0.00    -0.645 OA
BRANCH  25  27
HETATM   27  O   UNK N   1      34.372  18.128   6.969  0.00  0.00    -0.771 OA
HETATM   28  H   UNK N   1      34.779  17.523   6.380  0.00  0.00     0.167 HD
ENDBRANCH  25  27
ENDBRANCH   3  25
TORSDOF 11
ENDMDL
MODEL 2
REMARK VINA RESULT:      -5.5     12.934     14.886
REMARK  11 active torsions:
REMARK  status: ('A' for Active; 'I' for Inactive)
REMARK    1  A    between atoms: C_6  and  C_3 
REMARK    2  A    between atoms: N_12  and  C_3 
REMARK    3  A    between atoms: O_15  and  C_4 
REMARK    4  A    between atoms: C_5  and  O_16 
REMARK    5  A    between atoms: C_9  and  C_6 
REMARK    6  A    between atoms: C_6  and  O_17 
REMARK    7  A    between atoms: C_11  and  C_7 
REMARK    8  A    between atoms: C_8  and  N_13 
REMARK    9  A    between atoms: C_10  and  C_9 
REMARK   10  A    between atoms: C_9  and  O_18 
REMARK   11  A    between atoms: O_20  and  C_11 
ROOT
HETATM    1  C   UNK N   1      23.346  18.744   4.064  0.00  0.00     0.050 C 
HETATM    2  C   UNK N   1      22.817  17.531   4.764  0.00  0.00     0.169 C 
HETATM    3  C   UNK N   1      22.501  19.558   3.414  0.00  0.00     0.141 C 
HETATM    4  C   UNK N   1      21.680  16.941   3.930  0.00  0.00     0.148 C 
HETATM    5  C   UNK N   1      20.592  18.037   3.683  0.00  0.00     0.186 C 
HETATM    6  O   UNK N   1      21.172  19.257   3.337  0.00  0.00    -0.335 OA
ENDROOT
BRANCH   5   7
HETATM    7  C   UNK N   1      19.627  17.598   2.547  0.00  0.00     0.180 C 
BRANCH   7   8
HETATM    8  C   UNK N   1      20.287  17.394   1.165  0.00  0.00     0.166 C 
BRANCH   8   9
HETATM    9  C   UNK N   1      19.612  16.288   0.361  0.00  0.00     0.145 C 
BRANCH   9  10
HETATM   10  N   UNK N   1      18.275  16.701  -0.036  0.00  0.00    -0.428 N 
HETATM   11  H   UNK N   1      17.777  17.413   0.498  0.00  0.00     0.150 HD
HETATM   12  H   UNK N   1      17.833  16.276  -0.851  0.00  0.00     0.150 HD
ENDBRANCH   9  10
ENDBRANCH   8   9
BRANCH   8  13
HETATM   13  O   UNK N   1      20.285  18.582   0.428  0.00  0.00    -0.391 OA
HETATM   14  H   UNK N   1      21.121  19.025   0.212  0.00  0.00     0.210 HD
ENDBRANCH   8  13
ENDBRANCH   7   8
BRANCH   7  15
HETATM   15  O   UNK N   1      18.586  18.522   2.412  0.00  0.00    -0.390 OA
HETATM   16  H   UNK N   1      18.340  19.089   3.159  0.00  0.00     0.210 HD
ENDBRANCH   7  15
ENDBRANCH   5   7
BRANCH   4  17
HETATM   17  N   UNK N   1      21.116  15.800   4.635  0.00  0.00    -0.365 N 
HETATM   18  C   UNK N   1      21.021  14.613   4.139  0.00  0.00     0.107 C 
HETATM   19  C   UNK N   1      20.425  13.524   4.960  0.00  0.00     0.097 C 
ATOM     20  HN  UNK N   1      20.772  15.949   5.584  1.00  0.00     0.161 HD
BRANCH  18  21
HETATM   21  O   UNK N   1      21.473  14.335   2.899  0.00  0.00    -0.350 OA
HETATM   22  H   UNK N   1      21.980  14.270   2.114  0.00  0.00     0.219 HD
ENDBRANCH  18  21
ENDBRANCH   4  17
BRANCH   2  23
HETATM   23  O   UNK N   1      23.846  16.599   4.914  0.00  0.00    -0.389 OA
HETATM   24  H   UNK N   1      24.072  15.943   4.236  0.00  0.00     0.210 HD
ENDBRANCH   2  23
BRANCH   3  25
HETATM   25  C   UNK N   1      23.001  20.791   2.778  0.00  0.00     0.200 C 
HETATM   26  O   UNK N   1      24.074  20.787   2.201  0.00  0.00    -0.645 OA
BRANCH  25  27
HETATM   27  O   UNK N   1      22.276  21.928   2.829  0.00  0.00    -0.771 OA
HETATM   28  H   UNK N   1      22.135  22.443   2.059  0.00  0.00     0.167 HD
ENDBRANCH  25  27
ENDBRANCH   3  25
TORSDOF 11
ENDMDL
MODEL 3
REMARK VINA RESULT:      -5.5      3.993      6.416
REMARK  11 active torsions:
REMARK  status: ('A' for Active; 'I' for Inactive)
REMARK    1  A    between atoms: C_6  and  C_3 
REMARK    2  A    between atoms: N_12  and  C_3 
REMARK    3  A    between atoms: O_15  and  C_4 
REMARK    4  A    between atoms: C_5  and  O_16 
REMARK    5  A    between atoms: C_9  and  C_6 
REMARK    6  A    between atoms: C_6  and  O_17 
REMARK    7  A    between atoms: C_11  and  C_7 
REMARK    8  A    between atoms: C_8  and  N_13 
REMARK    9  A    between atoms: C_10  and  C_9 
REMARK   10  A    between atoms: C_9  and  O_18 
REMARK   11  A    between atoms: O_20  and  C_11 
ROOT
HETATM    1  C   UNK N   1      34.091  16.953   6.465  0.00  0.00     0.050 C 
HETATM    2  C   UNK N   1      33.173  16.170   5.578  0.00  0.00     0.169 C 
HETATM    3  C   UNK N   1      33.673  17.339   7.679  0.00  0.00     0.141 C 
HETATM    4  C   UNK N   1      31.748  16.692   5.765  0.00  0.00     0.148 C 
HETATM    5  C   UNK N   1      31.359  16.618   7.278  0.00  0.00     0.186 C 
HETATM    6  O   UNK N   1      32.399  17.074   8.089  0.00  0.00    -0.335 OA
ENDROOT
BRANCH   5   7
HETATM    7  C   UNK N   1      30.093  17.473   7.556  0.00  0.00     0.180 C 
BRANCH   7   8
HETATM    8  C   UNK N   1      29.742  17.666   9.049  0.00  0.00     0.166 C 
BRANCH   8   9
HETATM    9  C   UNK N   1      28.238  17.630   9.297  0.00  0.00     0.145 C 
BRANCH   9  10
HETATM   10  N   UNK N   1      27.617  18.844   8.790  0.00  0.00    -0.428 N 
HETATM   11  H   UNK N   1      27.682  19.080   7.800  0.00  0.00     0.150 HD
HETATM   12  H   UNK N   1      27.116  19.463   9.428  0.00  0.00     0.150 HD
ENDBRANCH   9  10
ENDBRANCH   8   9
BRANCH   8  13
HETATM   13  O   UNK N   1      30.376  16.703   9.840  0.00  0.00    -0.391 OA
HETATM   14  H   UNK N   1      29.932  15.865  10.041  0.00  0.00     0.210 HD
ENDBRANCH   8  13
ENDBRANCH   7   8
BRANCH   7  15
HETATM   15  O   UNK N   1      28.984  16.922   6.905  0.00  0.00    -0.390 OA
HETATM   16  H   UNK N   1      28.853  17.073   5.956  0.00  0.00     0.210 HD
ENDBRANCH   7  15
ENDBRANCH   5   7
BRANCH   4  17
HETATM   17  N   UNK N   1      30.840  15.893   4.957  0.00  0.00    -0.365 N 
HETATM   18  C   UNK N   1      30.452  16.213   3.768  0.00  0.00     0.107 C 
HETATM   19  C   UNK N   1      29.519  15.311   3.038  0.00  0.00     0.097 C 
ATOM     20  HN  UNK N   1      30.485  15.024   5.356  1.00  0.00     0.161 HD
BRANCH  18  21
HETATM   21  O   UNK N   1      30.893  17.336   3.166  0.00  0.00    -0.350 OA
HETATM   22  H   UNK N   1      31.419  18.012   2.786  0.00  0.00     0.219 HD
ENDBRANCH  18  21
ENDBRANCH   4  17
BRANCH   2  23
HETATM   23  O   UNK N   1      33.576  16.318   4.249  0.00  0.00    -0.389 OA
HETATM   24  H   UNK N   1      33.944  15.593   3.721  0.00  0.00     0.210 HD
ENDBRANCH   2  23
BRANCH   3  25
HETATM   25  C   UNK N   1      34.590  18.052   8.587  0.00  0.00     0.200 C 
HETATM   26  O   UNK N   1      35.008  19.157   8.288  0.00  0.00    -0.645 OA
BRANCH  25  27
HETATM   27  O   UNK N   1      34.973  17.489   9.753  0.00  0.00    -0.771 OA
HETATM   28  H   UNK N   1      34.960  16.559   9.864  0.00  0.00     0.167 HD
ENDBRANCH  25  27
ENDBRANCH   3  25
TORSDOF 11
ENDMDL
MODEL 4
REMARK VINA RESULT:      -5.4      5.378      8.007
REMARK  11 active torsions:
REMARK  status: ('A' for Active; 'I' for Inactive)
REMARK    1  A    between atoms: C_6  and  C_3 
REMARK    2  A    between atoms: N_12  and  C_3 
REMARK    3  A    between atoms: O_15  and  C_4 
REMARK    4  A    between atoms: C_5  and  O_16 
REMARK    5  A    between atoms: C_9  and  C_6 
REMARK    6  A    between atoms: C_6  and  O_17 
REMARK    7  A    between atoms: C_11  and  C_7 
REMARK    8  A    between atoms: C_8  and  N_13 
REMARK    9  A    between atoms: C_10  and  C_9 
REMARK   10  A    between atoms: C_9  and  O_18 
REMARK   11  A    between atoms: O_20  and  C_11 
ROOT
HETATM    1  C   UNK N   1      31.806  16.989   4.713  0.00  0.00     0.050 C 
HETATM    2  C   UNK N   1      30.457  16.726   4.120  0.00  0.00     0.169 C 
HETATM    3  C   UNK N   1      31.935  17.118   6.041  0.00  0.00     0.141 C 
HETATM    4  C   UNK N   1      29.412  17.509   4.916  0.00  0.00     0.148 C 
HETATM    5  C   UNK N   1      29.510  17.122   6.427  0.00  0.00     0.186 C 
HETATM    6  O   UNK N   1      30.838  17.071   6.851  0.00  0.00    -0.335 OA
ENDROOT
BRANCH   5   7
HETATM    7  C   UNK N   1      28.743  18.151   7.302  0.00  0.00     0.180 C 
BRANCH   7   8
HETATM    8  C   UNK N   1      28.710  17.835   8.815  0.00  0.00     0.166 C 
BRANCH   8   9
HETATM    9  C   UNK N   1      29.679  18.705   9.607  0.00  0.00     0.145 C 
BRANCH   9  10
HETATM   10  N   UNK N   1      31.048  18.270   9.374  0.00  0.00    -0.428 N 
HETATM   11  H   UNK N   1      31.746  18.351  10.113  0.00  0.00     0.150 HD
HETATM   12  H   UNK N   1      31.311  17.884   8.468  0.00  0.00     0.150 HD
ENDBRANCH   9  10
ENDBRANCH   8   9
BRANCH   8  13
HETATM   13  O   UNK N   1      27.417  17.978   9.328  0.00  0.00    -0.391 OA
HETATM   14  H   UNK N   1      26.688  18.252   8.749  0.00  0.00     0.210 HD
ENDBRANCH   8  13
ENDBRANCH   7   8
BRANCH   7  15
HETATM   15  O   UNK N   1      27.427  18.289   6.847  0.00  0.00    -0.390 OA
HETATM   16  H   UNK N   1      26.691  17.955   7.381  0.00  0.00     0.210 HD
ENDBRANCH   7  15
ENDBRANCH   5   7
BRANCH   4  17
HETATM   17  N   UNK N   1      28.090  17.208   4.388  0.00  0.00    -0.365 N 
HETATM   18  C   UNK N   1      27.295  18.085   3.874  0.00  0.00     0.107 C 
HETATM   19  C   UNK N   1      25.964  17.653   3.365  0.00  0.00     0.097 C 
ATOM     20  HN  UNK N   1      27.770  16.240   4.427  1.00  0.00     0.161 HD
BRANCH  18  21
HETATM   21  O   UNK N   1      27.655  19.380   3.769  0.00  0.00    -0.350 OA
HETATM   22  H   UNK N   1      27.729  20.281   3.525  0.00  0.00     0.219 HD
ENDBRANCH  18  21
ENDBRANCH   4  17
BRANCH   2  23
HETATM   23  O   UNK N   1      30.453  17.128   2.782  0.00  0.00    -0.389 OA
HETATM   24  H   UNK N   1      31.195  17.592   2.364  0.00  0.00     0.210 HD
ENDBRANCH   2  23
BRANCH   3  25
HETATM   25  C   UNK N   1      33.268  17.310   6.641  0.00  0.00     0.200 C 
HETATM   26  O   UNK N   1      34.174  17.785   5.977  0.00  0.00    -0.645 OA
BRANCH  25  27
HETATM   27  O   UNK N   1      33.496  16.963   7.925  0.00  0.00    -0.771 OA
HETATM   28  H   UNK N   1      33.707  17.612   8.568  0.00  0.00     0.167 HD
ENDBRANCH  25  27
ENDBRANCH   3  25
TORSDOF 11
ENDMDL
MODEL 5
REMARK VINA RESULT:      -5.3      3.572      5.862
REMARK  11 active torsions:
REMARK  status: ('A' for Active; 'I' for Inactive)
REMARK    1  A    between atoms: C_6  and  C_3 
REMARK    2  A    between atoms: N_12  and  C_3 
REMARK    3  A    between atoms: O_15  and  C_4 
REMARK    4  A    between atoms: C_5  and  O_16 
REMARK    5  A    between atoms: C_9  and  C_6 
REMARK    6  A    between atoms: C_6  and  O_17 
REMARK    7  A    between atoms: C_11  and  C_7 
REMARK    8  A    between atoms: C_8  and  N_13 
REMARK    9  A    between atoms: C_10  and  C_9 
REMARK   10  A    between atoms: C_9  and  O_18 
REMARK   11  A    between atoms: O_20  and  C_11 
ROOT
HETATM    1  C   UNK N   1      28.947  16.817   6.699  0.00  0.00     0.050 C 
HETATM    2  C   UNK N   1      30.080  16.107   6.024  0.00  0.00     0.169 C 
HETATM    3  C   UNK N   1      29.202  17.847   7.519  0.00  0.00     0.141 C 
HETATM    4  C   UNK N   1      31.261  16.037   6.993  0.00  0.00     0.148 C 
HETATM    5  C   UNK N   1      31.631  17.479   7.470  0.00  0.00     0.186 C 
HETATM    6  O   UNK N   1      30.488  18.215   7.788  0.00  0.00    -0.335 OA
ENDROOT
BRANCH   5   7
HETATM    7  C   UNK N   1      32.554  17.419   8.718  0.00  0.00     0.180 C 
BRANCH   7   8
HETATM    8  C   UNK N   1      34.045  17.726   8.450  0.00  0.00     0.166 C 
BRANCH   8   9
HETATM    9  C   UNK N   1      34.972  16.748   9.162  0.00  0.00     0.145 C 
BRANCH   9  10
HETATM   10  N   UNK N   1      35.037  17.062  10.582  0.00  0.00    -0.428 N 
HETATM   11  H   UNK N   1      35.453  17.939  10.896  0.00  0.00     0.150 HD
HETATM   12  H   UNK N   1      34.666  16.403  11.266  0.00  0.00     0.150 HD
ENDBRANCH   9  10
ENDBRANCH   8   9
BRANCH   8  13
HETATM   13  O   UNK N   1      34.318  17.724   7.079  0.00  0.00    -0.391 OA
HETATM   14  H   UNK N   1      33.795  17.172   6.476  0.00  0.00     0.210 HD
ENDBRANCH   8  13
ENDBRANCH   7   8
BRANCH   7  15
HETATM   15  O   UNK N   1      32.460  16.165   9.330  0.00  0.00    -0.390 OA
HETATM   16  H   UNK N   1      33.197  15.538   9.269  0.00  0.00     0.210 HD
ENDBRANCH   7  15
ENDBRANCH   5   7
BRANCH   4  17
HETATM   17  N   UNK N   1      32.388  15.408   6.323  0.00  0.00    -0.365 N 
HETATM   18  C   UNK N   1      32.921  14.291   6.690  0.00  0.00     0.107 C 
HETATM   19  C   UNK N   1      34.074  13.745   5.921  0.00  0.00     0.097 C 
ATOM     20  HN  UNK N   1      32.784  15.880   5.510  1.00  0.00     0.161 HD
BRANCH  18  21
HETATM   21  O   UNK N   1      32.440  13.598   7.742  0.00  0.00    -0.350 OA
HETATM   22  H   UNK N   1      32.132  13.333   8.586  0.00  0.00     0.219 HD
ENDBRANCH  18  21
ENDBRANCH   4  17
BRANCH   2  23
HETATM   23  O   UNK N   1      29.670  14.822   5.662  0.00  0.00    -0.389 OA
HETATM   24  H   UNK N   1      29.824  14.443   4.783  0.00  0.00     0.210 HD
ENDBRANCH   2  23
BRANCH   3  25
HETATM   25  C   UNK N   1      28.092  18.595   8.136  0.00  0.00     0.200 C 
HETATM   26  O   UNK N   1      27.668  19.607   7.604  0.00  0.00    -0.645 OA
BRANCH  25  27
HETATM   27  O   UNK N   1      27.538  18.168   9.290  0.00  0.00    -0.771 OA
HETATM   28  H   UNK N   1      26.708  18.497   9.576  0.00  0.00     0.167 HD
ENDBRANCH  25  27
ENDBRANCH   3  25
TORSDOF 11
ENDMDL
MODEL 6
REMARK VINA RESULT:      -5.3      2.714      5.576
REMARK  11 active torsions:
REMARK  status: ('A' for Active; 'I' for Inactive)
REMARK    1  A    between atoms: C_6  and  C_3 
REMARK    2  A    between atoms: N_12  and  C_3 
REMARK    3  A    between atoms: O_15  and  C_4 
REMARK    4  A    between atoms: C_5  and  O_16 
REMARK    5  A    between atoms: C_9  and  C_6 
REMARK    6  A    between atoms: C_6  and  O_17 
REMARK    7  A    between atoms: C_11  and  C_7 
REMARK    8  A    between atoms: C_8  and  N_13 
REMARK    9  A    between atoms: C_10  and  C_9 
REMARK   10  A    between atoms: C_9  and  O_18 
REMARK   11  A    between atoms: O_20  and  C_11 
ROOT
HETATM    1  C   UNK N   1      36.495  12.243  13.512  0.00  0.00     0.050 C 
HETATM    2  C   UNK N   1      36.793  12.069  12.056  0.00  0.00     0.169 C 
HETATM    3  C   UNK N   1      35.551  13.113  13.898  0.00  0.00     0.141 C 
HETATM    4  C   UNK N   1      36.683  13.430  11.367  0.00  0.00     0.148 C 
HETATM    5  C   UNK N   1      35.269  14.039  11.641  0.00  0.00     0.186 C 
HETATM    6  O   UNK N   1      34.902  13.884  12.978  0.00  0.00    -0.335 OA
ENDROOT
BRANCH   5   7
HETATM    7  C   UNK N   1      35.252  15.552  11.287  0.00  0.00     0.180 C 
BRANCH   7   8
HETATM    8  C   UNK N   1      34.631  15.901   9.916  0.00  0.00     0.166 C 
BRANCH   8   9
HETATM    9  C   UNK N   1      33.534  14.922   9.513  0.00  0.00     0.145 C 
BRANCH   9  10
HETATM   10  N   UNK N   1      32.298  15.238  10.212  0.00  0.00    -0.428 N 
HETATM   11  H   UNK N   1      32.284  15.961  10.932  0.00  0.00     0.150 HD
HETATM   12  H   UNK N   1      31.441  14.735   9.983  0.00  0.00     0.150 HD
ENDBRANCH   9  10
ENDBRANCH   8   9
BRANCH   8  13
HETATM   13  O   UNK N   1      34.125  17.205   9.913  0.00  0.00    -0.391 OA
HETATM   14  H   UNK N   1      34.708  17.955   9.714  0.00  0.00     0.210 HD
ENDBRANCH   8  13
ENDBRANCH   7   8
BRANCH   7  15
HETATM   15  O   UNK N   1      36.548  16.075  11.336  0.00  0.00    -0.390 OA
HETATM   16  H   UNK N   1      37.194  15.715  11.962  0.00  0.00     0.210 HD
ENDBRANCH   7  15
ENDBRANCH   5   7
BRANCH   4  17
HETATM   17  N   UNK N   1      36.906  13.259   9.940  0.00  0.00    -0.365 N 
HETATM   18  C   UNK N   1      37.806  13.891   9.264  0.00  0.00     0.107 C 
HETATM   19  C   UNK N   1      37.940  13.630   7.804  0.00  0.00     0.097 C 
ATOM     20  HN  UNK N   1      36.312  12.598   9.440  1.00  0.00     0.161 HD
BRANCH  18  21
HETATM   21  O   UNK N   1      38.643  14.765   9.859  0.00  0.00    -0.350 OA
HETATM   22  H   UNK N   1      39.333  15.369  10.052  0.00  0.00     0.219 HD
ENDBRANCH  18  21
ENDBRANCH   4  17
BRANCH   2  23
HETATM   23  O   UNK N   1      38.082  11.550  11.906  0.00  0.00    -0.389 OA
HETATM   24  H   UNK N   1      38.305  10.622  12.079  0.00  0.00     0.210 HD
ENDBRANCH   2  23
BRANCH   3  25
HETATM   25  C   UNK N   1      35.202  13.245  15.325  0.00  0.00     0.200 C 
HETATM   26  O   UNK N   1      34.056  13.052  15.693  0.00  0.00    -0.645 OA
BRANCH  25  27
HETATM   27  O   UNK N   1      36.145  13.577  16.231  0.00  0.00    -0.771 OA
HETATM   28  H   UNK N   1      36.220  13.109  17.040  0.00  0.00     0.167 HD
ENDBRANCH  25  27
ENDBRANCH   3  25
TORSDOF 11
ENDMDL
MODEL 7
REMARK VINA RESULT:      -5.2      2.032      4.170
REMARK  11 active torsions:
REMARK  status: ('A' for Active; 'I' for Inactive)
REMARK    1  A    between atoms: C_6  and  C_3 
REMARK    2  A    between atoms: N_12  and  C_3 
REMARK    3  A    between atoms: O_15  and  C_4 
REMARK    4  A    between atoms: C_5  and  O_16 
REMARK    5  A    between atoms: C_9  and  C_6 
REMARK    6  A    between atoms: C_6  and  O_17 
REMARK    7  A    between atoms: C_11  and  C_7 
REMARK    8  A    between atoms: C_8  and  N_13 
REMARK    9  A    between atoms: C_10  and  C_9 
REMARK   10  A    between atoms: C_9  and  O_18 
REMARK   11  A    between atoms: O_20  and  C_11 
ROOT
HETATM    1  C   UNK N   1      34.772  15.925   7.612  0.00  0.00     0.050 C 
HETATM    2  C   UNK N   1      35.295  14.541   7.837  0.00  0.00     0.169 C 
HETATM    3  C   UNK N   1      34.906  16.851   8.572  0.00  0.00     0.141 C 
HETATM    4  C   UNK N   1      35.065  14.162   9.301  0.00  0.00     0.148 C 
HETATM    5  C   UNK N   1      35.728  15.233  10.227  0.00  0.00     0.186 C 
HETATM    6  O   UNK N   1      35.464  16.526   9.774  0.00  0.00    -0.335 OA
ENDROOT
BRANCH   5   7
HETATM    7  C   UNK N   1      35.202  15.093  11.682  0.00  0.00     0.180 C 
BRANCH   7   8
HETATM    8  C   UNK N   1      36.148  14.357  12.657  0.00  0.00     0.166 C 
BRANCH   8   9
HETATM    9  C   UNK N   1      35.438  13.244  13.421  0.00  0.00     0.145 C 
BRANCH   9  10
HETATM   10  N   UNK N   1      36.257  12.042  13.430  0.00  0.00    -0.428 N 
HETATM   11  H   UNK N   1      37.179  12.050  13.868  0.00  0.00     0.150 HD
HETATM   12  H   UNK N   1      35.909  11.186  12.997  0.00  0.00     0.150 HD
ENDBRANCH   9  10
ENDBRANCH   8   9
BRANCH   8  13
HETATM   13  O   UNK N   1      37.256  13.835  11.982  0.00  0.00    -0.391 OA
HETATM   14  H   UNK N   1      37.135  13.312  11.174  0.00  0.00     0.210 HD
ENDBRANCH   8  13
ENDBRANCH   7   8
BRANCH   7  15
HETATM   15  O   UNK N   1      33.963  14.445  11.689  0.00  0.00    -0.390 OA
HETATM   16  H   UNK N   1      33.165  14.919  11.409  0.00  0.00     0.210 HD
ENDBRANCH   7  15
ENDBRANCH   5   7
BRANCH   4  17
HETATM   17  N   UNK N   1      35.630  12.844   9.545  0.00  0.00    -0.365 N 
HETATM   18  C   UNK N   1      34.950  11.825   9.950  0.00  0.00     0.107 C 
HETATM   19  C   UNK N   1      35.642  10.524  10.164  0.00  0.00     0.097 C 
ATOM     20  HN  UNK N   1      36.630  12.717   9.387  1.00  0.00     0.161 HD
BRANCH  18  21
HETATM   21  O   UNK N   1      33.621  11.909  10.161  0.00  0.00    -0.350 OA
HETATM   22  H   UNK N   1      32.765  11.942  10.543  0.00  0.00     0.219 HD
ENDBRANCH  18  21
ENDBRANCH   4  17
BRANCH   2  23
HETATM   23  O   UNK N   1      34.628  13.651   6.993  0.00  0.00    -0.389 OA
HETATM   24  H   UNK N   1      34.856  12.711   6.923  0.00  0.00     0.210 HD
ENDBRANCH   2  23
BRANCH   3  25
HETATM   25  C   UNK N   1      34.455  18.235   8.336  0.00  0.00     0.200 C 
HETATM   26  O   UNK N   1      35.239  19.161   8.452  0.00  0.00    -0.645 OA
BRANCH  25  27
HETATM   27  O   UNK N   1      33.175  18.487   7.990  0.00  0.00    -0.771 OA
HETATM   28  H   UNK N   1      32.826  19.355   8.038  0.00  0.00     0.167 HD
ENDBRANCH  25  27
ENDBRANCH   3  25
TORSDOF 11
ENDMDL
MODEL 8
REMARK VINA RESULT:      -5.2      3.292      5.949
REMARK  11 active torsions:
REMARK  status: ('A' for Active; 'I' for Inactive)
REMARK    1  A    between atoms: C_6  and  C_3 
REMARK    2  A    between atoms: N_12  and  C_3 
REMARK    3  A    between atoms: O_15  and  C_4 
REMARK    4  A    between atoms: C_5  and  O_16 
REMARK    5  A    between atoms: C_9  and  C_6 
REMARK    6  A    between atoms: C_6  and  O_17 
REMARK    7  A    between atoms: C_11  and  C_7 
REMARK    8  A    between atoms: C_8  and  N_13 
REMARK    9  A    between atoms: C_10  and  C_9 
REMARK   10  A    between atoms: C_9  and  O_18 
REMARK   11  A    between atoms: O_20  and  C_11 
ROOT
HETATM    1  C   UNK N   1      29.214  17.179   7.255  0.00  0.00     0.050 C 
HETATM    2  C   UNK N   1      30.044  16.652   6.125  0.00  0.00     0.169 C 
HETATM    3  C   UNK N   1      29.814  17.699   8.335  0.00  0.00     0.141 C 
HETATM    4  C   UNK N   1      31.289  15.980   6.705  0.00  0.00     0.148 C 
HETATM    5  C   UNK N   1      32.054  16.995   7.615  0.00  0.00     0.186 C 
HETATM    6  O   UNK N   1      31.175  17.699   8.438  0.00  0.00    -0.335 OA
ENDROOT
BRANCH   5   7
HETATM    7  C   UNK N   1      33.090  16.254   8.504  0.00  0.00     0.180 C 
BRANCH   7   8
HETATM    8  C   UNK N   1      32.572  14.968   9.188  0.00  0.00     0.166 C 
BRANCH   8   9
HETATM    9  C   UNK N   1      33.708  14.082   9.686  0.00  0.00     0.145 C 
BRANCH   9  10
HETATM   10  N   UNK N   1      34.059  14.439  11.053  0.00  0.00    -0.428 N 
HETATM   11  H   UNK N   1      34.041  13.734  11.789  0.00  0.00     0.150 HD
HETATM   12  H   UNK N   1      34.324  15.398  11.275  0.00  0.00     0.150 HD
ENDBRANCH   9  10
ENDBRANCH   8   9
BRANCH   8  13
HETATM   13  O   UNK N   1      31.712  15.275  10.246  0.00  0.00    -0.391 OA
HETATM   14  H   UNK N   1      32.014  15.187  11.163  0.00  0.00     0.210 HD
ENDBRANCH   8  13
ENDBRANCH   7   8
BRANCH   7  15
HETATM   15  O   UNK N   1      33.586  17.113   9.489  0.00  0.00    -0.390 OA
HETATM   16  H   UNK N   1      34.410  16.897   9.953  0.00  0.00     0.210 HD
ENDBRANCH   7  15
ENDBRANCH   5   7
BRANCH   4  17
HETATM   17  N   UNK N   1      32.135  15.524   5.612  0.00  0.00    -0.365 N 
HETATM   18  C   UNK N   1      32.175  14.308   5.183  0.00  0.00     0.107 C 
HETATM   19  C   UNK N   1      33.082  13.962   4.054  0.00  0.00     0.097 C 
ATOM     20  HN  UNK N   1      32.736  16.210   5.156  1.00  0.00     0.161 HD
BRANCH  18  21
HETATM   21  O   UNK N   1      31.395  13.349   5.722  0.00  0.00    -0.350 OA
HETATM   22  H   UNK N   1      30.931  12.555   5.902  0.00  0.00     0.219 HD
ENDBRANCH  18  21
ENDBRANCH   4  17
BRANCH   2  23
HETATM   23  O   UNK N   1      29.293  15.734   5.388  0.00  0.00    -0.389 OA
HETATM   24  H   UNK N   1      29.454  15.548   4.450  0.00  0.00     0.210 HD
ENDBRANCH   2  23
BRANCH   3  25
HETATM   25  C   UNK N   1      29.007  18.281   9.423  0.00  0.00     0.200 C 
HETATM   26  O   UNK N   1      29.555  18.845  10.354  0.00  0.00    -0.645 OA
BRANCH  25  27
HETATM   27  O   UNK N   1      27.660  18.194   9.397  0.00  0.00    -0.771 OA
HETATM   28  H   UNK N   1      27.214  17.871   8.639  0.00  0.00     0.167 HD
ENDBRANCH  25  27
ENDBRANCH   3  25
TORSDOF 11
ENDMDL
MODEL 9
REMARK VINA RESULT:      -5.2      4.178      5.816
REMARK  11 active torsions:
REMARK  status: ('A' for Active; 'I' for Inactive)
REMARK    1  A    between atoms: C_6  and  C_3 
REMARK    2  A    between atoms: N_12  and  C_3 
REMARK    3  A    between atoms: O_15  and  C_4 
REMARK    4  A    between atoms: C_5  and  O_16 
REMARK    5  A    between atoms: C_9  and  C_6 
REMARK    6  A    between atoms: C_6  and  O_17 
REMARK    7  A    between atoms: C_11  and  C_7 
REMARK    8  A    between atoms: C_8  and  N_13 
REMARK    9  A    between atoms: C_10  and  C_9 
REMARK   10  A    between atoms: C_9  and  O_18 
REMARK   11  A    between atoms: O_20  and  C_11 
ROOT
HETATM    1  C   UNK N   1      30.354  17.590   8.678  0.00  0.00     0.050 C 
HETATM    2  C   UNK N   1      31.507  16.711   8.306  0.00  0.00     0.169 C 
HETATM    3  C   UNK N   1      29.373  17.811   7.790  0.00  0.00     0.141 C 
HETATM    4  C   UNK N   1      31.849  16.947   6.835  0.00  0.00     0.148 C 
HETATM    5  C   UNK N   1      30.577  16.703   5.958  0.00  0.00     0.186 C 
HETATM    6  O   UNK N   1      29.448  17.289   6.532  0.00  0.00    -0.335 OA
ENDROOT
BRANCH   5   7
HETATM    7  C   UNK N   1      30.779  17.290   4.534  0.00  0.00     0.180 C 
BRANCH   7   8
HETATM    8  C   UNK N   1      30.626  16.277   3.376  0.00  0.00     0.166 C 
BRANCH   8   9
HETATM    9  C   UNK N   1      31.741  15.237   3.369  0.00  0.00     0.145 C 
BRANCH   9  10
HETATM   10  N   UNK N   1      32.919  15.770   2.701  0.00  0.00    -0.428 N 
HETATM   11  H   UNK N   1      33.830  15.737   3.159  0.00  0.00     0.150 HD
HETATM   12  H   UNK N   1      32.834  16.179   1.771  0.00  0.00     0.150 HD
ENDBRANCH   9  10
ENDBRANCH   8   9
BRANCH   8  13
HETATM   13  O   UNK N   1      29.384  15.638   3.430  0.00  0.00    -0.391 OA
HETATM   14  H   UNK N   1      28.661  16.018   3.953  0.00  0.00     0.210 HD
ENDBRANCH   8  13
ENDBRANCH   7   8
BRANCH   7  15
HETATM   15  O   UNK N   1      32.035  17.896   4.433  0.00  0.00    -0.390 OA
HETATM   16  H   UNK N   1      32.113  18.861   4.476  0.00  0.00     0.210 HD
ENDBRANCH   7  15
ENDBRANCH   5   7
BRANCH   4  17
HETATM   17  N   UNK N   1      32.925  16.049   6.447  0.00  0.00    -0.365 N 
HETATM   18  C   UNK N   1      34.153  16.412   6.285  0.00  0.00     0.107 C 
HETATM   19  C   UNK N   1      35.168  15.398   5.887  0.00  0.00     0.097 C 
ATOM     20  HN  UNK N   1      32.695  15.067   6.292  1.00  0.00     0.161 HD
BRANCH  18  21
HETATM   21  O   UNK N   1      34.539  17.688   6.492  0.00  0.00    -0.350 OA
HETATM   22  H   UNK N   1      34.844  18.492   6.864  0.00  0.00     0.219 HD
ENDBRANCH  18  21
ENDBRANCH   4  17
BRANCH   2  23
HETATM   23  O   UNK N   1      32.602  17.018   9.117  0.00  0.00    -0.389 OA
HETATM   24  H   UNK N   1      32.558  17.038  10.085  0.00  0.00     0.210 HD
ENDBRANCH   2  23
BRANCH   3  25
HETATM   25  C   UNK N   1      28.200  18.621   8.168  0.00  0.00     0.200 C 
HETATM   26  O   UNK N   1      27.848  19.551   7.463  0.00  0.00    -0.645 OA
BRANCH  25  27
HETATM   27  O   UNK N   1      27.509  18.339   9.292  0.00  0.00    -0.771 OA
HETATM   28  H   UNK N   1      26.671  18.729   9.451  0.00  0.00     0.167 HD
ENDBRANCH  25  27
ENDBRANCH   3  25
TORSDOF 11
ENDMDL
