MODEL 1
REMARK VINA RESULT:      -5.3      0.000      0.000
REMARK  11 active torsions:
REMARK  status: ('A' for Active; 'I' for Inactive)
REMARK    1  A    between atoms: C_2  and  C_1 
REMARK    2  A    between atoms: C_4  and  C_1 
REMARK    3  A    between atoms: O_6  and  C_2 
REMARK    4  A    between atoms: C_5  and  C_3 
REMARK    5  A    between atoms: O_12  and  C_3 
REMARK    6  A    between atoms: C_5  and  C_4 
REMARK    7  A    between atoms: C_4  and  O_7 
REMARK    8  A    between atoms: C_5  and  O_8 
REMARK    9  A    between atoms: P_13  and  O_9 
REMARK   10  A    between atoms: P_13  and  O_10 
REMARK   11  A    between atoms: P_13  and  O_12 
ROOT
HETATM    1  C   UNK N   1      35.850  15.933  11.359  0.00  0.00     0.171 C 
ENDROOT
BRANCH   1   2
HETATM    2  C   UNK N   1      34.843  16.344  10.290  0.00  0.00     0.214 C 
BRANCH   2   3
HETATM    3  O   UNK N   1      35.202  17.559   9.695  0.00  0.00    -0.294 OA
BRANCH   3   4
HETATM    4  P   UNK N   1      34.052  17.763   8.408  0.00  0.00     0.390 P 
HETATM    5  O   UNK N   1      34.771  16.451   7.993  0.00  0.00    -0.632 OA
BRANCH   4   6
HETATM    6  O   UNK N   1      34.557  18.121   6.788  0.00  0.00    -0.307 OA
HETATM    7  H   UNK N   1      34.218  18.761   6.143  0.00  0.00     0.222 HD
ENDBRANCH   4   6
BRANCH   4   8
HETATM    8  O   UNK N   1      35.198  19.069   8.384  0.00  0.00    -0.307 OA
HETATM    9  H   UNK N   1      36.157  19.112   8.517  0.00  0.00     0.222 HD
ENDBRANCH   4   8
ENDBRANCH   3   4
ENDBRANCH   2   3
ENDBRANCH   1   2
BRANCH   1  10
HETATM   10  C   UNK N   1      35.575  14.521  11.912  0.00  0.00     0.151 C 
BRANCH  10  11
HETATM   11  C   UNK N   1      36.114  14.365  13.339  0.00  0.00     0.060 C 
BRANCH  11  12
HETATM   12  C   UNK N   1      35.728  13.035  13.972  0.00  0.00     0.166 C 
BRANCH  12  13
HETATM   13  O   UNK N   1      34.574  13.201  14.736  0.00  0.00    -0.401 OA
HETATM   14  H   UNK N   1      34.543  13.257  15.704  0.00  0.00     0.209 HD
ENDBRANCH  12  13
ENDBRANCH  11  12
ENDBRANCH  10  11
BRANCH  10  15
HETATM   15  O   UNK N   1      34.206  14.247  11.895  0.00  0.00    -0.393 OA
HETATM   16  H   UNK N   1      33.522  13.920  11.291  0.00  0.00     0.210 HD
ENDBRANCH  10  15
ENDBRANCH   1  10
BRANCH   1  17
HETATM   17  O   UNK N   1      37.139  16.003  10.830  0.00  0.00    -0.391 OA
HETATM   18  H   UNK N   1      37.856  16.648  10.723  0.00  0.00     0.210 HD
ENDBRANCH   1  17
TORSDOF 11
ENDMDL
MODEL 2
REMARK VINA RESULT:      -5.2      1.366      1.828
REMARK  11 active torsions:
REMARK  status: ('A' for Active; 'I' for Inactive)
REMARK    1  A    between atoms: C_2  and  C_1 
REMARK    2  A    between atoms: C_4  and  C_1 
REMARK    3  A    between atoms: O_6  and  C_2 
REMARK    4  A    between atoms: C_5  and  C_3 
REMARK    5  A    between atoms: O_12  and  C_3 
REMARK    6  A    between atoms: C_5  and  C_4 
REMARK    7  A    between atoms: C_4  and  O_7 
REMARK    8  A    between atoms: C_5  and  O_8 
REMARK    9  A    between atoms: P_13  and  O_9 
REMARK   10  A    between atoms: P_13  and  O_10 
REMARK   11  A    between atoms: P_13  and  O_12 
ROOT
HETATM    1  C   UNK N   1      35.979  16.094  11.289  0.00  0.00     0.171 C 
ENDROOT
BRANCH   1   2
HETATM    2  C   UNK N   1      34.960  16.382  10.191  0.00  0.00     0.214 C 
BRANCH   2   3
HETATM    3  O   UNK N   1      35.169  17.644   9.623  0.00  0.00    -0.294 OA
BRANCH   3   4
HETATM    4  P   UNK N   1      34.000  17.738   8.342  0.00  0.00     0.390 P 
HETATM    5  O   UNK N   1      34.807  16.472   7.949  0.00  0.00    -0.632 OA
BRANCH   4   6
HETATM    6  O   UNK N   1      34.467  18.095   6.710  0.00  0.00    -0.307 OA
HETATM    7  H   UNK N   1      35.204  18.620   6.361  0.00  0.00     0.222 HD
ENDBRANCH   4   6
BRANCH   4   8
HETATM    8  O   UNK N   1      35.049  19.121   8.281  0.00  0.00    -0.307 OA
HETATM    9  H   UNK N   1      34.915  20.044   8.016  0.00  0.00     0.222 HD
ENDBRANCH   4   8
ENDBRANCH   3   4
ENDBRANCH   2   3
ENDBRANCH   1   2
BRANCH   1  10
HETATM   10  C   UNK N   1      35.646  14.811  12.076  0.00  0.00     0.151 C 
BRANCH  10  11
HETATM   11  C   UNK N   1      35.800  13.563  11.199  0.00  0.00     0.060 C 
BRANCH  11  12
HETATM   12  C   UNK N   1      36.922  12.648  11.671  0.00  0.00     0.166 C 
BRANCH  12  13
HETATM   13  O   UNK N   1      38.153  13.243  11.398  0.00  0.00    -0.401 OA
HETATM   14  H   UNK N   1      38.444  14.109  11.723  0.00  0.00     0.209 HD
ENDBRANCH  12  13
ENDBRANCH  11  12
ENDBRANCH  10  11
BRANCH  10  15
HETATM   15  O   UNK N   1      36.466  14.700  13.200  0.00  0.00    -0.393 OA
HETATM   16  H   UNK N   1      37.315  14.312  13.463  0.00  0.00     0.210 HD
ENDBRANCH  10  15
ENDBRANCH   1  10
BRANCH   1  17
HETATM   17  O   UNK N   1      37.252  15.999  10.723  0.00  0.00    -0.391 OA
HETATM   18  H   UNK N   1      37.768  15.388  10.175  0.00  0.00     0.210 HD
ENDBRANCH   1  17
TORSDOF 11
ENDMDL
MODEL 3
REMARK VINA RESULT:      -5.1      1.796      3.021
REMARK  11 active torsions:
REMARK  status: ('A' for Active; 'I' for Inactive)
REMARK    1  A    between atoms: C_2  and  C_1 
REMARK    2  A    between atoms: C_4  and  C_1 
REMARK    3  A    between atoms: O_6  and  C_2 
REMARK    4  A    between atoms: C_5  and  C_3 
REMARK    5  A    between atoms: O_12  and  C_3 
REMARK    6  A    between atoms: C_5  and  C_4 
REMARK    7  A    between atoms: C_4  and  O_7 
REMARK    8  A    between atoms: C_5  and  O_8 
REMARK    9  A    between atoms: P_13  and  O_9 
REMARK   10  A    between atoms: P_13  and  O_10 
REMARK   11  A    between atoms: P_13  and  O_12 
ROOT
HETATM    1  C   UNK N   1      33.575  14.207   9.130  0.00  0.00     0.171 C 
ENDROOT
BRANCH   1   2
HETATM    2  C   UNK N   1      33.244  15.594   8.588  0.00  0.00     0.214 C 
BRANCH   2   3
HETATM    3  O   UNK N   1      34.405  16.290   8.231  0.00  0.00    -0.294 OA
BRANCH   3   4
HETATM    4  P   UNK N   1      33.939  17.962   8.289  0.00  0.00     0.390 P 
HETATM    5  O   UNK N   1      34.624  17.867   6.900  0.00  0.00    -0.632 OA
BRANCH   4   6
HETATM    6  O   UNK N   1      35.118  19.231   8.376  0.00  0.00    -0.307 OA
HETATM    7  H   UNK N   1      35.050  20.177   8.172  0.00  0.00     0.222 HD
ENDBRANCH   4   6
BRANCH   4   8
HETATM    8  O   UNK N   1      35.116  17.637   9.525  0.00  0.00    -0.307 OA
HETATM    9  H   UNK N   1      35.540  18.190  10.199  0.00  0.00     0.222 HD
ENDBRANCH   4   8
ENDBRANCH   3   4
ENDBRANCH   2   3
ENDBRANCH   1   2
BRANCH   1  10
HETATM   10  C   UNK N   1      34.124  14.255  10.569  0.00  0.00     0.151 C 
BRANCH  10  11
HETATM   11  C   UNK N   1      35.635  13.996  10.599  0.00  0.00     0.060 C 
BRANCH  11  12
HETATM   12  C   UNK N   1      36.373  14.928  11.551  0.00  0.00     0.166 C 
BRANCH  12  13
HETATM   13  O   UNK N   1      36.905  15.999  10.834  0.00  0.00    -0.401 OA
HETATM   14  H   UNK N   1      36.750  16.178   9.893  0.00  0.00     0.209 HD
ENDBRANCH  12  13
ENDBRANCH  11  12
ENDBRANCH  10  11
BRANCH  10  15
HETATM   15  O   UNK N   1      33.848  15.491  11.157  0.00  0.00    -0.393 OA
HETATM   16  H   UNK N   1      33.889  16.437  10.949  0.00  0.00     0.210 HD
ENDBRANCH  10  15
ENDBRANCH   1  10
BRANCH   1  17
HETATM   17  O   UNK N   1      32.433  13.406   9.074  0.00  0.00    -0.391 OA
HETATM   18  H   UNK N   1      31.574  13.319   9.516  0.00  0.00     0.210 HD
ENDBRANCH   1  17
TORSDOF 11
ENDMDL
MODEL 4
REMARK VINA RESULT:      -5.0      3.014      5.359
REMARK  11 active torsions:
REMARK  status: ('A' for Active; 'I' for Inactive)
REMARK    1  A    between atoms: C_2  and  C_1 
REMARK    2  A    between atoms: C_4  and  C_1 
REMARK    3  A    between atoms: O_6  and  C_2 
REMARK    4  A    between atoms: C_5  and  C_3 
REMARK    5  A    between atoms: O_12  and  C_3 
REMARK    6  A    between atoms: C_5  and  C_4 
REMARK    7  A    between atoms: C_4  and  O_7 
REMARK    8  A    between atoms: C_5  and  O_8 
REMARK    9  A    between atoms: P_13  and  O_9 
REMARK   10  A    between atoms: P_13  and  O_10 
REMARK   11  A    between atoms: P_13  and  O_12 
ROOT
HETATM    1  C   UNK N   1      34.575  17.794   8.390  0.00  0.00     0.171 C 
ENDROOT
BRANCH   1   2
HETATM    2  C   UNK N   1      34.880  17.073   9.699  0.00  0.00     0.214 C 
BRANCH   2   3
HETATM    3  O   UNK N   1      34.546  15.716   9.620  0.00  0.00    -0.294 OA
BRANCH   3   4
HETATM    4  P   UNK N   1      34.905  15.093  11.202  0.00  0.00     0.390 P 
HETATM    5  O   UNK N   1      35.518  14.005  10.280  0.00  0.00    -0.632 OA
BRANCH   4   6
HETATM    6  O   UNK N   1      34.157  13.646  11.799  0.00  0.00    -0.307 OA
HETATM    7  H   UNK N   1      33.223  13.390  11.854  0.00  0.00     0.222 HD
ENDBRANCH   4   6
BRANCH   4   8
HETATM    8  O   UNK N   1      33.184  15.134  10.963  0.00  0.00    -0.307 OA
HETATM    9  H   UNK N   1      32.622  15.454  10.241  0.00  0.00     0.222 HD
ENDBRANCH   4   8
ENDBRANCH   3   4
ENDBRANCH   2   3
ENDBRANCH   1   2
BRANCH   1  10
HETATM   10  C   UNK N   1      33.062  17.893   8.113  0.00  0.00     0.151 C 
BRANCH  10  11
HETATM   11  C   UNK N   1      32.660  17.048   6.899  0.00  0.00     0.060 C 
BRANCH  11  12
HETATM   12  C   UNK N   1      31.702  15.920   7.258  0.00  0.00     0.166 C 
BRANCH  12  13
HETATM   13  O   UNK N   1      32.379  14.956   8.005  0.00  0.00    -0.401 OA
HETATM   14  H   UNK N   1      33.292  15.029   8.323  0.00  0.00     0.209 HD
ENDBRANCH  12  13
ENDBRANCH  11  12
ENDBRANCH  10  11
BRANCH  10  15
HETATM   15  O   UNK N   1      32.333  17.484   9.232  0.00  0.00    -0.393 OA
HETATM   16  H   UNK N   1      31.714  17.843   9.886  0.00  0.00     0.210 HD
ENDBRANCH  10  15
ENDBRANCH   1  10
BRANCH   1  17
HETATM   17  O   UNK N   1      35.146  19.068   8.422  0.00  0.00    -0.391 OA
HETATM   18  H   UNK N   1      35.198  19.864   7.870  0.00  0.00     0.210 HD
ENDBRANCH   1  17
TORSDOF 11
ENDMDL
MODEL 5
REMARK VINA RESULT:      -4.8     13.982     14.586
REMARK  11 active torsions:
REMARK  status: ('A' for Active; 'I' for Inactive)
REMARK    1  A    between atoms: C_2  and  C_1 
REMARK    2  A    between atoms: C_4  and  C_1 
REMARK    3  A    between atoms: O_6  and  C_2 
REMARK    4  A    between atoms: C_5  and  C_3 
REMARK    5  A    between atoms: O_12  and  C_3 
REMARK    6  A    between atoms: C_5  and  C_4 
REMARK    7  A    between atoms: C_4  and  O_7 
REMARK    8  A    between atoms: C_5  and  O_8 
REMARK    9  A    between atoms: P_13  and  O_9 
REMARK   10  A    between atoms: P_13  and  O_10 
REMARK   11  A    between atoms: P_13  and  O_12 
ROOT
HETATM    1  C   UNK N   1      21.840  12.961   9.323  0.00  0.00     0.171 C 
ENDROOT
BRANCH   1   2
HETATM    2  C   UNK N   1      21.235  14.331   9.617  0.00  0.00     0.214 C 
BRANCH   2   3
HETATM    3  O   UNK N   1      19.882  14.375   9.265  0.00  0.00    -0.294 OA
BRANCH   3   4
HETATM    4  P   UNK N   1      19.650  15.982   8.648  0.00  0.00     0.390 P 
HETATM    5  O   UNK N   1      18.316  15.731   9.399  0.00  0.00    -0.632 OA
BRANCH   4   6
HETATM    6  O   UNK N   1      18.471  16.323   7.421  0.00  0.00    -0.307 OA
HETATM    7  H   UNK N   1      17.918  15.730   6.890  0.00  0.00     0.222 HD
ENDBRANCH   4   6
BRANCH   4   8
HETATM    8  O   UNK N   1      19.778  14.858   7.328  0.00  0.00    -0.307 OA
HETATM    9  H   UNK N   1      19.140  14.519   6.682  0.00  0.00     0.222 HD
ENDBRANCH   4   8
ENDBRANCH   3   4
ENDBRANCH   2   3
ENDBRANCH   1   2
BRANCH   1  10
HETATM   10  C   UNK N   1      21.829  12.038  10.558  0.00  0.00     0.151 C 
BRANCH  10  11
HETATM   11  C   UNK N   1      23.110  12.196  11.384  0.00  0.00     0.060 C 
BRANCH  11  12
HETATM   12  C   UNK N   1      22.915  11.825  12.848  0.00  0.00     0.166 C 
BRANCH  12  13
HETATM   13  O   UNK N   1      23.910  12.428  13.616  0.00  0.00    -0.401 OA
HETATM   14  H   UNK N   1      24.650  12.951  13.269  0.00  0.00     0.209 HD
ENDBRANCH  12  13
ENDBRANCH  11  12
ENDBRANCH  10  11
BRANCH  10  15
HETATM   15  O   UNK N   1      20.717  12.306  11.358  0.00  0.00    -0.393 OA
HETATM   16  H   UNK N   1      20.408  12.172  12.268  0.00  0.00     0.210 HD
ENDBRANCH  10  15
ENDBRANCH   1  10
BRANCH   1  17
HETATM   17  O   UNK N   1      21.144  12.368   8.268  0.00  0.00    -0.391 OA
HETATM   18  H   UNK N   1      21.317  11.798   7.503  0.00  0.00     0.210 HD
ENDBRANCH   1  17
TORSDOF 11
ENDMDL
MODEL 6
REMARK VINA RESULT:      -4.8      1.569      2.385
REMARK  11 active torsions:
REMARK  status: ('A' for Active; 'I' for Inactive)
REMARK    1  A    between atoms: C_2  and  C_1 
REMARK    2  A    between atoms: C_4  and  C_1 
REMARK    3  A    between atoms: O_6  and  C_2 
REMARK    4  A    between atoms: C_5  and  C_3 
REMARK    5  A    between atoms: O_12  and  C_3 
REMARK    6  A    between atoms: C_5  and  C_4 
REMARK    7  A    between atoms: C_4  and  O_7 
REMARK    8  A    between atoms: C_5  and  O_8 
REMARK    9  A    between atoms: P_13  and  O_9 
REMARK   10  A    between atoms: P_13  and  O_10 
REMARK   11  A    between atoms: P_13  and  O_12 
ROOT
HETATM    1  C   UNK N   1      34.814  14.872  10.734  0.00  0.00     0.171 C 
ENDROOT
BRANCH   1   2
HETATM    2  C   UNK N   1      34.944  15.362   9.295  0.00  0.00     0.214 C 
BRANCH   2   3
HETATM    3  O   UNK N   1      34.800  16.751   9.217  0.00  0.00    -0.294 OA
BRANCH   3   4
HETATM    4  P   UNK N   1      33.820  17.003   7.805  0.00  0.00     0.390 P 
HETATM    5  O   UNK N   1      34.780  18.222   7.752  0.00  0.00    -0.632 OA
BRANCH   4   6
HETATM    6  O   UNK N   1      32.713  18.334   7.693  0.00  0.00    -0.307 OA
HETATM    7  H   UNK N   1      32.625  19.134   8.234  0.00  0.00     0.222 HD
ENDBRANCH   4   6
BRANCH   4   8
HETATM    8  O   UNK N   1      32.835  17.119   9.232  0.00  0.00    -0.307 OA
HETATM    9  H   UNK N   1      31.935  16.827   9.441  0.00  0.00     0.222 HD
ENDBRANCH   4   8
ENDBRANCH   3   4
ENDBRANCH   2   3
ENDBRANCH   1   2
BRANCH   1  10
HETATM   10  C   UNK N   1      35.773  15.606  11.692  0.00  0.00     0.151 C 
BRANCH  10  11
HETATM   11  C   UNK N   1      36.190  14.706  12.861  0.00  0.00     0.060 C 
BRANCH  11  12
HETATM   12  C   UNK N   1      36.571  13.301  12.415  0.00  0.00     0.166 C 
BRANCH  12  13
HETATM   13  O   UNK N   1      37.794  13.342  11.746  0.00  0.00    -0.401 OA
HETATM   14  H   UNK N   1      38.422  12.606  11.676  0.00  0.00     0.209 HD
ENDBRANCH  12  13
ENDBRANCH  11  12
ENDBRANCH  10  11
BRANCH  10  15
HETATM   15  O   UNK N   1      36.908  16.042  11.007  0.00  0.00    -0.393 OA
HETATM   16  H   UNK N   1      37.805  15.744  10.792  0.00  0.00     0.210 HD
ENDBRANCH  10  15
ENDBRANCH   1  10
BRANCH   1  17
HETATM   17  O   UNK N   1      33.493  15.029  11.156  0.00  0.00    -0.391 OA
HETATM   18  H   UNK N   1      32.825  15.728  11.235  0.00  0.00     0.210 HD
ENDBRANCH   1  17
TORSDOF 11
ENDMDL
MODEL 7
REMARK VINA RESULT:      -4.7      2.538      5.730
REMARK  11 active torsions:
REMARK  status: ('A' for Active; 'I' for Inactive)
REMARK    1  A    between atoms: C_2  and  C_1 
REMARK    2  A    between atoms: C_4  and  C_1 
REMARK    3  A    between atoms: O_6  and  C_2 
REMARK    4  A    between atoms: C_5  and  C_3 
REMARK    5  A    between atoms: O_12  and  C_3 
REMARK    6  A    between atoms: C_5  and  C_4 
REMARK    7  A    between atoms: C_4  and  O_7 
REMARK    8  A    between atoms: C_5  and  O_8 
REMARK    9  A    between atoms: P_13  and  O_9 
REMARK   10  A    between atoms: P_13  and  O_10 
REMARK   11  A    between atoms: P_13  and  O_12 
ROOT
HETATM    1  C   UNK N   1      35.823  15.069  10.657  0.00  0.00     0.171 C 
ENDROOT
BRANCH   1   2
HETATM    2  C   UNK N   1      35.778  13.905  11.642  0.00  0.00     0.214 C 
BRANCH   2   3
HETATM    3  O   UNK N   1      35.324  14.320  12.899  0.00  0.00    -0.294 OA
BRANCH   3   4
HETATM    4  P   UNK N   1      36.251  13.375  14.024  0.00  0.00     0.390 P 
HETATM    5  O   UNK N   1      34.841  13.356  14.673  0.00  0.00    -0.632 OA
BRANCH   4   6
HETATM    6  O   UNK N   1      36.581  13.942  15.631  0.00  0.00    -0.307 OA
HETATM    7  H   UNK N   1      37.177  14.637  15.949  0.00  0.00     0.222 HD
ENDBRANCH   4   6
BRANCH   4   8
HETATM    8  O   UNK N   1      36.843  15.009  14.002  0.00  0.00    -0.307 OA
HETATM    9  H   UNK N   1      37.730  15.394  14.066  0.00  0.00     0.222 HD
ENDBRANCH   4   8
ENDBRANCH   3   4
ENDBRANCH   2   3
ENDBRANCH   1   2
BRANCH   1  10
HETATM   10  C   UNK N   1      34.456  15.767  10.512  0.00  0.00     0.151 C 
BRANCH  10  11
HETATM   11  C   UNK N   1      34.131  16.057   9.043  0.00  0.00     0.060 C 
BRANCH  11  12
HETATM   12  C   UNK N   1      34.194  17.541   8.708  0.00  0.00     0.166 C 
BRANCH  12  13
HETATM   13  O   UNK N   1      35.278  18.120   9.365  0.00  0.00    -0.401 OA
HETATM   14  H   UNK N   1      35.489  19.067   9.379  0.00  0.00     0.209 HD
ENDBRANCH  12  13
ENDBRANCH  11  12
ENDBRANCH  10  11
BRANCH  10  15
HETATM   15  O   UNK N   1      33.445  14.983  11.071  0.00  0.00    -0.393 OA
HETATM   16  H   UNK N   1      33.270  14.452  11.864  0.00  0.00     0.210 HD
ENDBRANCH  10  15
ENDBRANCH   1  10
BRANCH   1  17
HETATM   17  O   UNK N   1      36.793  15.984  11.069  0.00  0.00    -0.391 OA
HETATM   18  H   UNK N   1      36.872  16.764  11.639  0.00  0.00     0.210 HD
ENDBRANCH   1  17
TORSDOF 11
ENDMDL
MODEL 8
REMARK VINA RESULT:      -4.7      3.403      5.373
REMARK  11 active torsions:
REMARK  status: ('A' for Active; 'I' for Inactive)
REMARK    1  A    between atoms: C_2  and  C_1 
REMARK    2  A    between atoms: C_4  and  C_1 
REMARK    3  A    between atoms: O_6  and  C_2 
REMARK    4  A    between atoms: C_5  and  C_3 
REMARK    5  A    between atoms: O_12  and  C_3 
REMARK    6  A    between atoms: C_5  and  C_4 
REMARK    7  A    between atoms: C_4  and  O_7 
REMARK    8  A    between atoms: C_5  and  O_8 
REMARK    9  A    between atoms: P_13  and  O_9 
REMARK   10  A    between atoms: P_13  and  O_10 
REMARK   11  A    between atoms: P_13  and  O_12 
ROOT
HETATM    1  C   UNK N   1      34.200  16.364   7.212  0.00  0.00     0.171 C 
ENDROOT
BRANCH   1   2
HETATM    2  C   UNK N   1      35.018  16.277   8.497  0.00  0.00     0.214 C 
BRANCH   2   3
HETATM    3  O   UNK N   1      34.206  15.974   9.596  0.00  0.00    -0.294 OA
BRANCH   3   4
HETATM    4  P   UNK N   1      35.274  16.086  10.962  0.00  0.00     0.390 P 
HETATM    5  O   UNK N   1      35.522  17.441  10.247  0.00  0.00    -0.632 OA
BRANCH   4   6
HETATM    6  O   UNK N   1      36.998  16.086  10.769  0.00  0.00    -0.307 OA
HETATM    7  H   UNK N   1      37.550  15.946   9.984  0.00  0.00     0.222 HD
ENDBRANCH   4   6
BRANCH   4   8
HETATM    8  O   UNK N   1      35.787  14.793   9.921  0.00  0.00    -0.307 OA
HETATM    9  H   UNK N   1      36.033  13.870  10.082  0.00  0.00     0.222 HD
ENDBRANCH   4   8
ENDBRANCH   3   4
ENDBRANCH   2   3
ENDBRANCH   1   2
BRANCH   1  10
HETATM   10  C   UNK N   1      33.354  17.652   7.142  0.00  0.00     0.151 C 
BRANCH  10  11
HETATM   11  C   UNK N   1      31.854  17.336   7.154  0.00  0.00     0.060 C 
BRANCH  11  12
HETATM   12  C   UNK N   1      31.188  17.698   8.475  0.00  0.00     0.166 C 
BRANCH  12  13
HETATM   13  O   UNK N   1      31.490  16.726   9.428  0.00  0.00    -0.401 OA
HETATM   14  H   UNK N   1      31.810  15.831   9.238  0.00  0.00     0.209 HD
ENDBRANCH  12  13
ENDBRANCH  11  12
ENDBRANCH  10  11
BRANCH  10  15
HETATM   15  O   UNK N   1      33.665  18.499   8.207  0.00  0.00    -0.393 OA
HETATM   16  H   UNK N   1      33.225  19.087   8.840  0.00  0.00     0.210 HD
ENDBRANCH  10  15
ENDBRANCH   1  10
BRANCH   1  17
HETATM   17  O   UNK N   1      35.057  16.287   6.114  0.00  0.00    -0.391 OA
HETATM   18  H   UNK N   1      35.217  16.743   5.273  0.00  0.00     0.210 HD
ENDBRANCH   1  17
TORSDOF 11
ENDMDL
MODEL 9
REMARK VINA RESULT:      -4.6     12.693     14.632
REMARK  11 active torsions:
REMARK  status: ('A' for Active; 'I' for Inactive)
REMARK    1  A    between atoms: C_2  and  C_1 
REMARK    2  A    between atoms: C_4  and  C_1 
REMARK    3  A    between atoms: O_6  and  C_2 
REMARK    4  A    between atoms: C_5  and  C_3 
REMARK    5  A    between atoms: O_12  and  C_3 
REMARK    6  A    between atoms: C_5  and  C_4 
REMARK    7  A    between atoms: C_4  and  O_7 
REMARK    8  A    between atoms: C_5  and  O_8 
REMARK    9  A    between atoms: P_13  and  O_9 
REMARK   10  A    between atoms: P_13  and  O_10 
REMARK   11  A    between atoms: P_13  and  O_12 
ROOT
HETATM    1  C   UNK N   1      24.380  20.506   3.235  0.00  0.00     0.171 C 
ENDROOT
BRANCH   1   2
HETATM    2  C   UNK N   1      22.921  20.102   3.048  0.00  0.00     0.214 C 
BRANCH   2   3
HETATM    3  O   UNK N   1      22.169  21.149   2.504  0.00  0.00    -0.294 OA
BRANCH   3   4
HETATM    4  P   UNK N   1      20.680  20.401   2.014  0.00  0.00     0.390 P 
HETATM    5  O   UNK N   1      21.407  19.233   2.734  0.00  0.00    -0.632 OA
BRANCH   4   6
HETATM    6  O   UNK N   1      20.645  19.152   0.810  0.00  0.00    -0.307 OA
HETATM    7  H   UNK N   1      21.314  18.869   0.169  0.00  0.00     0.222 HD
ENDBRANCH   4   6
BRANCH   4   8
HETATM    8  O   UNK N   1      21.596  20.859   0.611  0.00  0.00    -0.307 OA
HETATM    9  H   UNK N   1      22.154  20.364  -0.009  0.00  0.00     0.222 HD
ENDBRANCH   4   8
ENDBRANCH   3   4
ENDBRANCH   2   3
ENDBRANCH   1   2
BRANCH   1  10
HETATM   10  C   UNK N   1      25.197  19.428   3.973  0.00  0.00     0.151 C 
BRANCH  10  11
HETATM   11  C   UNK N   1      26.563  19.967   4.413  0.00  0.00     0.060 C 
BRANCH  11  12
HETATM   12  C   UNK N   1      26.472  20.875   5.632  0.00  0.00     0.166 C 
BRANCH  12  13
HETATM   13  O   UNK N   1      26.502  20.101   6.791  0.00  0.00    -0.401 OA
HETATM   14  H   UNK N   1      26.510  19.131   6.820  0.00  0.00     0.209 HD
ENDBRANCH  12  13
ENDBRANCH  11  12
ENDBRANCH  10  11
BRANCH  10  15
HETATM   15  O   UNK N   1      24.497  18.960   5.086  0.00  0.00    -0.393 OA
HETATM   16  H   UNK N   1      24.244  19.245   5.978  0.00  0.00     0.210 HD
ENDBRANCH  10  15
ENDBRANCH   1  10
BRANCH   1  17
HETATM   17  O   UNK N   1      24.946  20.775   1.988  0.00  0.00    -0.391 OA
HETATM   18  H   UNK N   1      25.807  21.012   1.607  0.00  0.00     0.210 HD
ENDBRANCH   1  17
TORSDOF 11
ENDMDL
