MODEL 1
REMARK VINA RESULT:      -5.4      0.000      0.000
REMARK  5 active torsions:
REMARK  status: ('A' for Active; 'I' for Inactive)
REMARK    1  A    between atoms: C_2  and  N_1 
REMARK    2  A    between atoms: C_2  and  C_3 
REMARK    3  A    between atoms: C_2  and  C_6 
REMARK    4  A    between atoms: C_3  and  O_4 
REMARK    5  A    between atoms: C_9  and  O_10 
ROOT
HETATM    1  C   UNK N   1      31.622  17.653   8.160  0.00  0.00    -0.026 A 
HETATM    2  C   UNK N   1      31.076  17.032   7.026  0.00  0.00     0.012 A 
HETATM    3  C   UNK N   1      29.714  17.179   6.731  0.00  0.00     0.037 A 
HETATM    4  C   UNK N   1      28.896  17.947   7.567  0.00  0.00     0.065 A 
HETATM    5  C   UNK N   1      29.435  18.566   8.695  0.00  0.00     0.037 A 
HETATM    6  C   UNK N   1      30.790  18.418   8.988  0.00  0.00     0.012 A 
ENDROOT
BRANCH   1   7
HETATM    7  C   UNK N   1      33.086  17.501   8.489  0.00  0.00     0.207 C 
BRANCH   7   8
HETATM    8  N   UNK N   1      33.458  16.627   9.592  0.00  0.00    -0.414 N 
HETATM    9  H   UNK N   1      33.487  16.991  10.544  0.00  0.00     0.151 HD
HETATM   10  H   UNK N   1      33.689  15.650   9.413  0.00  0.00     0.151 HD
ENDBRANCH   7   8
BRANCH   7  11
HETATM   11  C   UNK N   1      34.201  18.196   7.751  0.00  0.00     0.167 C 
HETATM   12  O   UNK N   1      34.433  17.933   6.584  0.00  0.00    -0.648 OA
BRANCH  11  13
HETATM   13  O   UNK N   1      34.953  19.119   8.382  0.00  0.00    -0.775 OA
HETATM   14  H   UNK N   1      34.796  19.313   9.285  0.00  0.00     0.167 HD
ENDBRANCH  11  13
ENDBRANCH   7  11
ENDBRANCH   1   7
BRANCH   4  15
HETATM   15  O   UNK N   1      27.591  18.090   7.287  0.00  0.00    -0.361 OA
HETATM   16  H   UNK N   1      26.981  17.429   7.546  0.00  0.00     0.217 HD
ENDBRANCH   4  15
TORSDOF 5
ENDMDL
MODEL 2
REMARK VINA RESULT:      -5.2      3.651      6.098
REMARK  5 active torsions:
REMARK  status: ('A' for Active; 'I' for Inactive)
REMARK    1  A    between atoms: C_2  and  N_1 
REMARK    2  A    between atoms: C_2  and  C_3 
REMARK    3  A    between atoms: C_2  and  C_6 
REMARK    4  A    between atoms: C_3  and  O_4 
REMARK    5  A    between atoms: C_9  and  O_10 
ROOT
HETATM    1  C   UNK N   1      34.973  16.190   9.745  0.00  0.00    -0.026 A 
HETATM    2  C   UNK N   1      35.206  16.379  11.116  0.00  0.00     0.012 A 
HETATM    3  C   UNK N   1      36.025  15.487  11.819  0.00  0.00     0.037 A 
HETATM    4  C   UNK N   1      36.612  14.404  11.155  0.00  0.00     0.065 A 
HETATM    5  C   UNK N   1      36.384  14.213   9.793  0.00  0.00     0.037 A 
HETATM    6  C   UNK N   1      35.568  15.102   9.093  0.00  0.00     0.012 A 
ENDROOT
BRANCH   1   7
HETATM    7  C   UNK N   1      34.093  17.144   8.976  0.00  0.00     0.207 C 
BRANCH   7   8
HETATM    8  N   UNK N   1      32.651  17.029   9.133  0.00  0.00    -0.414 N 
HETATM    9  H   UNK N   1      32.027  17.516   8.489  0.00  0.00     0.151 HD
HETATM   10  H   UNK N   1      32.262  16.461   9.886  0.00  0.00     0.151 HD
ENDBRANCH   7   8
BRANCH   7  11
HETATM   11  C   UNK N   1      34.605  18.217   8.050  0.00  0.00     0.167 C 
HETATM   12  O   UNK N   1      34.400  18.151   6.850  0.00  0.00    -0.648 OA
BRANCH  11  13
HETATM   13  O   UNK N   1      35.296  19.261   8.546  0.00  0.00    -0.775 OA
HETATM   14  H   UNK N   1      36.107  19.515   8.152  0.00  0.00     0.167 HD
ENDBRANCH  11  13
ENDBRANCH   7  11
ENDBRANCH   1   7
BRANCH   4  15
HETATM   15  O   UNK N   1      37.398  13.547  11.827  0.00  0.00    -0.361 OA
HETATM   16  H   UNK N   1      37.076  12.698  12.056  0.00  0.00     0.217 HD
ENDBRANCH   4  15
TORSDOF 5
ENDMDL
MODEL 3
REMARK VINA RESULT:      -5.0     10.635     11.141
REMARK  5 active torsions:
REMARK  status: ('A' for Active; 'I' for Inactive)
REMARK    1  A    between atoms: C_2  and  N_1 
REMARK    2  A    between atoms: C_2  and  C_3 
REMARK    3  A    between atoms: C_2  and  C_6 
REMARK    4  A    between atoms: C_3  and  O_4 
REMARK    5  A    between atoms: C_9  and  O_10 
ROOT
HETATM    1  C   UNK N   1      22.769  12.574  10.026  0.00  0.00    -0.026 A 
HETATM    2  C   UNK N   1      22.916  11.838   8.840  0.00  0.00     0.012 A 
HETATM    3  C   UNK N   1      22.076  12.090   7.747  0.00  0.00     0.037 A 
HETATM    4  C   UNK N   1      21.088  13.076   7.838  0.00  0.00     0.065 A 
HETATM    5  C   UNK N   1      20.938  13.809   9.014  0.00  0.00     0.037 A 
HETATM    6  C   UNK N   1      21.775  13.559  10.101  0.00  0.00     0.012 A 
ENDROOT
BRANCH   1   7
HETATM    7  C   UNK N   1      23.668  12.313  11.208  0.00  0.00     0.207 C 
BRANCH   7   8
HETATM    8  N   UNK N   1      25.107  12.415  11.016  0.00  0.00    -0.414 N 
HETATM    9  H   UNK N   1      25.516  12.206  10.106  0.00  0.00     0.151 HD
HETATM   10  H   UNK N   1      25.707  12.695  11.792  0.00  0.00     0.151 HD
ENDBRANCH   7   8
BRANCH   7  11
HETATM   11  C   UNK N   1      23.178  11.951  12.587  0.00  0.00     0.167 C 
HETATM   12  O   UNK N   1      23.886  12.128  13.564  0.00  0.00    -0.648 OA
BRANCH  11  13
HETATM   13  O   UNK N   1      21.948  11.428  12.748  0.00  0.00    -0.775 OA
HETATM   14  H   UNK N   1      21.304  11.527  12.075  0.00  0.00     0.167 HD
ENDBRANCH  11  13
ENDBRANCH   7  11
ENDBRANCH   1   7
BRANCH   4  15
HETATM   15  O   UNK N   1      20.281  13.319   6.793  0.00  0.00    -0.361 OA
HETATM   16  H   UNK N   1      19.766  14.102   6.770  0.00  0.00     0.217 HD
ENDBRANCH   4  15
TORSDOF 5
ENDMDL
MODEL 4
REMARK VINA RESULT:      -5.0     10.071     11.363
REMARK  5 active torsions:
REMARK  status: ('A' for Active; 'I' for Inactive)
REMARK    1  A    between atoms: C_2  and  N_1 
REMARK    2  A    between atoms: C_2  and  C_3 
REMARK    3  A    between atoms: C_2  and  C_6 
REMARK    4  A    between atoms: C_3  and  O_4 
REMARK    5  A    between atoms: C_9  and  O_10 
ROOT
HETATM    1  C   UNK N   1      34.843  12.081  16.382  0.00  0.00    -0.026 A 
HETATM    2  C   UNK N   1      34.857  13.390  16.889  0.00  0.00     0.012 A 
HETATM    3  C   UNK N   1      35.136  13.616  18.243  0.00  0.00     0.037 A 
HETATM    4  C   UNK N   1      35.401  12.536  19.093  0.00  0.00     0.065 A 
HETATM    5  C   UNK N   1      35.388  11.235  18.593  0.00  0.00     0.037 A 
HETATM    6  C   UNK N   1      35.110  11.010  17.244  0.00  0.00     0.012 A 
ENDROOT
BRANCH   1   7
HETATM    7  C   UNK N   1      34.544  11.824  14.926  0.00  0.00     0.207 C 
BRANCH   7   8
HETATM    8  N   UNK N   1      33.567  10.798  14.594  0.00  0.00    -0.414 N 
HETATM    9  H   UNK N   1      33.877   9.893  14.240  0.00  0.00     0.151 HD
HETATM   10  H   UNK N   1      32.571  10.983  14.715  0.00  0.00     0.151 HD
ENDBRANCH   7   8
BRANCH   7  11
HETATM   11  C   UNK N   1      35.190  12.560  13.781  0.00  0.00     0.167 C 
HETATM   12  O   UNK N   1      36.404  12.603  13.675  0.00  0.00    -0.648 OA
BRANCH  11  13
HETATM   13  O   UNK N   1      34.425  13.179  12.861  0.00  0.00    -0.775 OA
HETATM   14  H   UNK N   1      33.745  13.763  13.134  0.00  0.00     0.167 HD
ENDBRANCH  11  13
ENDBRANCH   7  11
ENDBRANCH   1   7
BRANCH   4  15
HETATM   15  O   UNK N   1      35.668  12.750  20.391  0.00  0.00    -0.361 OA
HETATM   16  H   UNK N   1      35.419  13.558  20.793  0.00  0.00     0.217 HD
ENDBRANCH   4  15
TORSDOF 5
ENDMDL
MODEL 5
REMARK VINA RESULT:      -4.9      2.498      3.318
REMARK  5 active torsions:
REMARK  status: ('A' for Active; 'I' for Inactive)
REMARK    1  A    between atoms: C_2  and  N_1 
REMARK    2  A    between atoms: C_2  and  C_3 
REMARK    3  A    between atoms: C_2  and  C_6 
REMARK    4  A    between atoms: C_3  and  O_4 
REMARK    5  A    between atoms: C_9  and  O_10 
ROOT
HETATM    1  C   UNK N   1      32.618  17.430   6.652  0.00  0.00    -0.026 A 
HETATM    2  C   UNK N   1      31.260  17.267   6.335  0.00  0.00     0.012 A 
HETATM    3  C   UNK N   1      30.856  17.184   4.996  0.00  0.00     0.037 A 
HETATM    4  C   UNK N   1      31.806  17.263   3.972  0.00  0.00     0.065 A 
HETATM    5  C   UNK N   1      33.156  17.424   4.283  0.00  0.00     0.037 A 
HETATM    6  C   UNK N   1      33.558  17.507   5.616  0.00  0.00     0.012 A 
ENDROOT
BRANCH   1   7
HETATM    7  C   UNK N   1      33.066  17.521   8.089  0.00  0.00     0.207 C 
BRANCH   7   8
HETATM    8  N   UNK N   1      32.087  17.256   9.134  0.00  0.00    -0.414 N 
HETATM    9  H   UNK N   1      31.503  16.421   9.086  0.00  0.00     0.151 HD
HETATM   10  H   UNK N   1      31.985  17.905   9.914  0.00  0.00     0.151 HD
ENDBRANCH   7   8
BRANCH   7  11
HETATM   11  C   UNK N   1      34.465  17.869   8.524  0.00  0.00     0.167 C 
HETATM   12  O   UNK N   1      35.175  17.035   9.061  0.00  0.00    -0.648 OA
BRANCH  11  13
HETATM   13  O   UNK N   1      34.944  19.111   8.322  0.00  0.00    -0.775 OA
HETATM   14  H   UNK N   1      34.603  19.637   7.625  0.00  0.00     0.167 HD
ENDBRANCH  11  13
ENDBRANCH   7  11
ENDBRANCH   1   7
BRANCH   4  15
HETATM   15  O   UNK N   1      31.421  17.183   2.688  0.00  0.00    -0.361 OA
HETATM   16  H   UNK N   1      31.772  17.779   2.057  0.00  0.00     0.217 HD
ENDBRANCH   4  15
TORSDOF 5
ENDMDL
MODEL 6
REMARK VINA RESULT:      -4.8     10.915     12.190
REMARK  5 active torsions:
REMARK  status: ('A' for Active; 'I' for Inactive)
REMARK    1  A    between atoms: C_2  and  N_1 
REMARK    2  A    between atoms: C_2  and  C_3 
REMARK    3  A    between atoms: C_2  and  C_6 
REMARK    4  A    between atoms: C_3  and  O_4 
REMARK    5  A    between atoms: C_9  and  O_10 
ROOT
HETATM    1  C   UNK N   1      21.132  13.730   9.549  0.00  0.00    -0.026 A 
HETATM    2  C   UNK N   1      22.517  13.517   9.615  0.00  0.00     0.012 A 
HETATM    3  C   UNK N   1      23.054  12.681  10.602  0.00  0.00     0.037 A 
HETATM    4  C   UNK N   1      22.208  12.056  11.525  0.00  0.00     0.065 A 
HETATM    5  C   UNK N   1      20.831  12.265  11.463  0.00  0.00     0.037 A 
HETATM    6  C   UNK N   1      20.297  13.097  10.480  0.00  0.00     0.012 A 
ENDROOT
BRANCH   1   7
HETATM    7  C   UNK N   1      20.542  14.628   8.491  0.00  0.00     0.207 C 
BRANCH   7   8
HETATM    8  N   UNK N   1      20.586  14.182   7.106  0.00  0.00    -0.414 N 
HETATM    9  H   UNK N   1      21.459  14.232   6.581  0.00  0.00     0.151 HD
HETATM   10  H   UNK N   1      19.744  13.820   6.659  0.00  0.00     0.151 HD
ENDBRANCH   7   8
BRANCH   7  11
HETATM   11  C   UNK N   1      19.904  15.965   8.766  0.00  0.00     0.167 C 
HETATM   12  O   UNK N   1      20.564  16.989   8.725  0.00  0.00    -0.648 OA
BRANCH  11  13
HETATM   13  O   UNK N   1      18.592  16.037   9.063  0.00  0.00    -0.775 OA
HETATM   14  H   UNK N   1      18.015  16.532   8.515  0.00  0.00     0.167 HD
ENDBRANCH  11  13
ENDBRANCH   7  11
ENDBRANCH   1   7
BRANCH   4  15
HETATM   15  O   UNK N   1      22.720  11.254  12.472  0.00  0.00    -0.361 OA
HETATM   16  H   UNK N   1      23.648  11.179  12.571  0.00  0.00     0.217 HD
ENDBRANCH   4  15
TORSDOF 5
ENDMDL
MODEL 7
REMARK VINA RESULT:      -4.8      1.677      1.835
REMARK  5 active torsions:
REMARK  status: ('A' for Active; 'I' for Inactive)
REMARK    1  A    between atoms: C_2  and  N_1 
REMARK    2  A    between atoms: C_2  and  C_3 
REMARK    3  A    between atoms: C_2  and  C_6 
REMARK    4  A    between atoms: C_3  and  O_4 
REMARK    5  A    between atoms: C_9  and  O_10 
ROOT
HETATM    1  C   UNK N   1      31.098  17.436   7.522  0.00  0.00    -0.026 A 
HETATM    2  C   UNK N   1      29.888  17.056   6.921  0.00  0.00     0.012 A 
HETATM    3  C   UNK N   1      28.670  17.338   7.554  0.00  0.00     0.037 A 
HETATM    4  C   UNK N   1      28.659  17.999   8.787  0.00  0.00     0.065 A 
HETATM    5  C   UNK N   1      29.860  18.378   9.387  0.00  0.00     0.037 A 
HETATM    6  C   UNK N   1      31.072  18.097   8.757  0.00  0.00     0.012 A 
ENDROOT
BRANCH   1   7
HETATM    7  C   UNK N   1      32.415  17.138   6.850  0.00  0.00     0.207 C 
BRANCH   7   8
HETATM    8  N   UNK N   1      32.393  16.585   5.504  0.00  0.00    -0.414 N 
HETATM    9  H   UNK N   1      31.755  15.823   5.276  0.00  0.00     0.151 HD
HETATM   10  H   UNK N   1      33.015  16.960   4.788  0.00  0.00     0.151 HD
ENDBRANCH   7   8
BRANCH   7  11
HETATM   11  C   UNK N   1      33.764  17.375   7.479  0.00  0.00     0.167 C 
HETATM   12  O   UNK N   1      34.476  18.288   7.097  0.00  0.00    -0.648 OA
BRANCH  11  13
HETATM   13  O   UNK N   1      34.194  16.573   8.472  0.00  0.00    -0.775 OA
HETATM   14  H   UNK N   1      34.610  16.943   9.226  0.00  0.00     0.167 HD
ENDBRANCH  11  13
ENDBRANCH   7  11
ENDBRANCH   1   7
BRANCH   4  15
HETATM   15  O   UNK N   1      27.494  18.271   9.396  0.00  0.00    -0.361 OA
HETATM   16  H   UNK N   1      27.294  19.148   9.656  0.00  0.00     0.217 HD
ENDBRANCH   4  15
TORSDOF 5
ENDMDL
MODEL 8
REMARK VINA RESULT:      -4.8     10.306     11.492
REMARK  5 active torsions:
REMARK  status: ('A' for Active; 'I' for Inactive)
REMARK    1  A    between atoms: C_2  and  N_1 
REMARK    2  A    between atoms: C_2  and  C_3 
REMARK    3  A    between atoms: C_2  and  C_6 
REMARK    4  A    between atoms: C_3  and  O_4 
REMARK    5  A    between atoms: C_9  and  O_10 
ROOT
HETATM    1  C   UNK N   1      21.745  18.914   3.799  0.00  0.00    -0.026 A 
HETATM    2  C   UNK N   1      20.662  18.338   3.117  0.00  0.00     0.012 A 
HETATM    3  C   UNK N   1      20.253  18.858   1.882  0.00  0.00     0.037 A 
HETATM    4  C   UNK N   1      20.923  19.954   1.328  0.00  0.00     0.065 A 
HETATM    5  C   UNK N   1      21.999  20.529   2.003  0.00  0.00     0.037 A 
HETATM    6  C   UNK N   1      22.406  20.011   3.232  0.00  0.00     0.012 A 
ENDROOT
BRANCH   1   7
HETATM    7  C   UNK N   1      22.195  18.363   5.129  0.00  0.00     0.207 C 
BRANCH   7   8
HETATM    8  N   UNK N   1      23.624  18.215   5.365  0.00  0.00    -0.414 N 
HETATM    9  H   UNK N   1      23.967  17.462   5.962  0.00  0.00     0.151 HD
HETATM   10  H   UNK N   1      24.283  18.862   4.933  0.00  0.00     0.151 HD
ENDBRANCH   7   8
BRANCH   7  11
HETATM   11  C   UNK N   1      21.265  17.952   6.240  0.00  0.00     0.167 C 
HETATM   12  O   UNK N   1      20.821  16.817   6.292  0.00  0.00    -0.648 OA
BRANCH  11  13
HETATM   13  O   UNK N   1      20.915  18.842   7.190  0.00  0.00    -0.775 OA
HETATM   14  H   UNK N   1      21.412  19.629   7.299  0.00  0.00     0.167 HD
ENDBRANCH  11  13
ENDBRANCH   7  11
ENDBRANCH   1   7
BRANCH   4  15
HETATM   15  O   UNK N   1      20.533  20.455   0.145  0.00  0.00    -0.361 OA
HETATM   16  H   UNK N   1      21.082  20.360  -0.608  0.00  0.00     0.217 HD
ENDBRANCH   4  15
TORSDOF 5
ENDMDL
MODEL 9
REMARK VINA RESULT:      -4.8      2.066      4.876
REMARK  5 active torsions:
REMARK  status: ('A' for Active; 'I' for Inactive)
REMARK    1  A    between atoms: C_2  and  N_1 
REMARK    2  A    between atoms: C_2  and  C_3 
REMARK    3  A    between atoms: C_2  and  C_6 
REMARK    4  A    between atoms: C_3  and  O_4 
REMARK    5  A    between atoms: C_9  and  O_10 
ROOT
HETATM    1  C   UNK N   1      30.446  17.498   7.240  0.00  0.00    -0.026 A 
HETATM    2  C   UNK N   1      31.054  17.205   6.009  0.00  0.00     0.012 A 
HETATM    3  C   UNK N   1      32.447  17.278   5.878  0.00  0.00     0.037 A 
HETATM    4  C   UNK N   1      33.234  17.644   6.975  0.00  0.00     0.065 A 
HETATM    5  C   UNK N   1      32.634  17.936   8.199  0.00  0.00     0.037 A 
HETATM    6  C   UNK N   1      31.248  17.863   8.329  0.00  0.00     0.012 A 
ENDROOT
BRANCH   1   7
HETATM    7  C   UNK N   1      28.948  17.423   7.394  0.00  0.00     0.207 C 
BRANCH   7   8
HETATM    8  N   UNK N   1      28.243  16.324   6.749  0.00  0.00    -0.414 N 
HETATM    9  H   UNK N   1      27.806  16.463   5.838  0.00  0.00     0.151 HD
HETATM   10  H   UNK N   1      28.186  15.415   7.208  0.00  0.00     0.151 HD
ENDBRANCH   7   8
BRANCH   7  11
HETATM   11  C   UNK N   1      28.121  18.411   8.174  0.00  0.00     0.167 C 
HETATM   12  O   UNK N   1      27.970  19.552   7.769  0.00  0.00    -0.648 OA
BRANCH  11  13
HETATM   13  O   UNK N   1      27.539  18.039   9.330  0.00  0.00    -0.775 OA
HETATM   14  H   UNK N   1      26.970  18.631   9.781  0.00  0.00     0.167 HD
ENDBRANCH  11  13
ENDBRANCH   7  11
ENDBRANCH   1   7
BRANCH   4  15
HETATM   15  O   UNK N   1      34.569  17.715   6.852  0.00  0.00    -0.361 OA
HETATM   16  H   UNK N   1      35.061  18.285   7.409  0.00  0.00     0.217 HD
ENDBRANCH   4  15
TORSDOF 5
ENDMDL
