MODEL 1
REMARK VINA RESULT:      -6.7      0.000      0.000
REMARK  9 active torsions:
REMARK  status: ('A' for Active; 'I' for Inactive)
REMARK    1  A    between atoms: C_4  and  C_2 
REMARK    2  A    between atoms: O_25  and  C_2 
REMARK    3  A    between atoms: C_6  and  O_19 
REMARK    4  A    between atoms: C_7  and  O_20 
REMARK    5  A    between atoms: O_21  and  C_9 
REMARK    6  A    between atoms: C_10  and  N_18 
REMARK    7  A    between atoms: P_27  and  O_22 
REMARK    8  A    between atoms: P_27  and  O_23 
REMARK    9  A    between atoms: P_27  and  O_25 
ROOT
HETATM    1  C   UNK N   1      21.576  15.078   7.178  0.00  0.00     0.180 C 
HETATM    2  C   UNK N   1      20.468  15.862   7.901  0.00  0.00     0.182 C 
HETATM    3  C   UNK N   1      19.745  16.562   6.746  0.00  0.00     0.198 C 
HETATM    4  C   UNK N   1      20.661  16.247   5.567  0.00  0.00     0.258 C 
HETATM    5  O   UNK N   1      21.149  14.949   5.839  0.00  0.00    -0.354 OA
ENDROOT
BRANCH   4   6
HETATM    6  N   UNK N   1      20.014  16.311   4.267  0.00  0.00    -0.319 N 
HETATM    7  C   UNK N   1      19.881  15.112   3.433  0.00  0.00     0.253 A 
HETATM    8  N   UNK N   1      19.932  15.644   2.078  0.00  0.00    -0.362 N 
HETATM    9  C   UNK N   1      19.899  14.837   0.887  0.00  0.00     0.152 C 
HETATM   10  C   UNK N   1      20.109  17.029   2.124  0.00  0.00     0.128 A 
HETATM   11  C   UNK N   1      20.160  17.422   3.406  0.00  0.00     0.153 A 
HETATM   12  C   UNK N   1      20.272  17.961   1.103  0.00  0.00     0.186 A 
HETATM   13  N   UNK N   1      20.375  18.713   3.755  0.00  0.00    -0.174 N 
HETATM   14  C   UNK N   1      20.521  19.646   2.766  0.00  0.00     0.679 A 
HETATM   15  H   UNK N   1      20.426  18.975   4.703  0.00  0.00     0.186 HD
HETATM   16  N   UNK N   1      20.712  20.871   3.069  0.00  0.00    -0.234 N 
HETATM   17  N   UNK N   1      20.471  19.266   1.449  0.00  0.00    -0.168 N 
HETATM   18  H   UNK N   1      20.842  21.132   4.010  0.00  0.00     0.174 HD
ATOM     19  HN  UNK N   1      20.731  21.580   2.336  1.00  0.00     0.174 HD
ATOM     20  HN  UNK N   1      20.584  19.969   0.717  1.00  0.00     0.186 HD
BRANCH  12  21
HETATM   21  O   UNK N   1      20.251  17.594  -0.189  0.00  0.00    -0.344 OA
HETATM   22  H   UNK N   1      19.433  17.453  -0.625  0.00  0.00     0.219 HD
ENDBRANCH  12  21
ENDBRANCH   4   6
BRANCH   3  23
HETATM   23  O   UNK N   1      18.501  15.956   6.523  0.00  0.00    -0.388 OA
HETATM   24  H   UNK N   1      17.621  15.688   6.213  0.00  0.00     0.210 HD
ENDBRANCH   3  23
BRANCH   2  25
HETATM   25  O   UNK N   1      19.581  15.001   8.565  0.00  0.00    -0.390 OA
HETATM   26  H   UNK N   1      18.836  14.383   8.506  0.00  0.00     0.210 HD
ENDBRANCH   2  25
BRANCH   1  27
HETATM   27  C   UNK N   1      21.874  13.743   7.860  0.00  0.00     0.215 C 
BRANCH  27  28
HETATM   28  O   UNK N   1      21.936  13.861   9.257  0.00  0.00    -0.294 OA
BRANCH  28  29
HETATM   29  P   UNK N   1      22.011  12.249   9.921  0.00  0.00     0.390 P 
HETATM   30  O   UNK N   1      23.057  12.929  10.850  0.00  0.00    -0.632 OA
BRANCH  29  31
HETATM   31  O   UNK N   1      21.392  11.891  11.504  0.00  0.00    -0.307 OA
HETATM   32  H   UNK N   1      21.715  11.158  12.051  0.00  0.00     0.222 HD
ENDBRANCH  29  31
BRANCH  29  33
HETATM   33  O   UNK N   1      20.471  12.994  10.221  0.00  0.00    -0.307 OA
HETATM   34  H   UNK N   1      19.633  12.549  10.424  0.00  0.00     0.222 HD
ENDBRANCH  29  33
ENDBRANCH  28  29
ENDBRANCH  27  28
ENDBRANCH   1  27
TORSDOF 9
ENDMDL
MODEL 2
REMARK VINA RESULT:      -6.5     10.802     12.238
REMARK  9 active torsions:
REMARK  status: ('A' for Active; 'I' for Inactive)
REMARK    1  A    between atoms: C_4  and  C_2 
REMARK    2  A    between atoms: O_25  and  C_2 
REMARK    3  A    between atoms: C_6  and  O_19 
REMARK    4  A    between atoms: C_7  and  O_20 
REMARK    5  A    between atoms: O_21  and  C_9 
REMARK    6  A    between atoms: C_10  and  N_18 
REMARK    7  A    between atoms: P_27  and  O_22 
REMARK    8  A    between atoms: P_27  and  O_23 
REMARK    9  A    between atoms: P_27  and  O_25 
ROOT
HETATM    1  C   UNK N   1      33.440  14.517   8.607  0.00  0.00     0.180 C 
HETATM    2  C   UNK N   1      34.360  15.139   7.544  0.00  0.00     0.182 C 
HETATM    3  C   UNK N   1      33.444  16.165   6.867  0.00  0.00     0.198 C 
HETATM    4  C   UNK N   1      32.093  15.837   7.494  0.00  0.00     0.258 C 
HETATM    5  O   UNK N   1      32.403  15.451   8.817  0.00  0.00    -0.354 OA
ENDROOT
BRANCH   4   6
HETATM    6  N   UNK N   1      31.136  16.932   7.470  0.00  0.00    -0.319 N 
HETATM    7  C   UNK N   1      30.438  17.348   8.691  0.00  0.00     0.253 A 
HETATM    8  N   UNK N   1      29.156  17.827   8.192  0.00  0.00    -0.362 N 
HETATM    9  C   UNK N   1      28.082  18.294   9.029  0.00  0.00     0.152 C 
HETATM   10  C   UNK N   1      29.105  17.674   6.804  0.00  0.00     0.128 A 
HETATM   11  C   UNK N   1      30.264  17.147   6.379  0.00  0.00     0.153 A 
HETATM   12  C   UNK N   1      28.083  17.931   5.896  0.00  0.00     0.186 A 
HETATM   13  N   UNK N   1      30.480  16.842   5.077  0.00  0.00    -0.174 N 
HETATM   14  C   UNK N   1      29.494  17.102   4.168  0.00  0.00     0.679 A 
HETATM   15  H   UNK N   1      31.333  16.439   4.791  0.00  0.00     0.186 HD
HETATM   16  N   UNK N   1      29.679  16.836   2.934  0.00  0.00    -0.234 N 
HETATM   17  N   UNK N   1      28.302  17.642   4.581  0.00  0.00    -0.168 N 
HETATM   18  H   UNK N   1      30.494  16.363   2.647  0.00  0.00     0.174 HD
ATOM     19  HN  UNK N   1      28.981  17.112   2.242  1.00  0.00     0.174 HD
ATOM     20  HN  UNK N   1      27.570  17.831   3.895  1.00  0.00     0.186 HD
BRANCH  12  21
HETATM   21  O   UNK N   1      26.903  18.435   6.295  0.00  0.00    -0.344 OA
HETATM   22  H   UNK N   1      26.187  17.862   6.486  0.00  0.00     0.219 HD
ENDBRANCH  12  21
ENDBRANCH   4   6
BRANCH   3  23
HETATM   23  O   UNK N   1      33.814  17.462   7.250  0.00  0.00    -0.388 OA
HETATM   24  H   UNK N   1      34.116  18.264   7.704  0.00  0.00     0.210 HD
ENDBRANCH   3  23
BRANCH   2  25
HETATM   25  O   UNK N   1      35.454  15.793   8.131  0.00  0.00    -0.390 OA
HETATM   26  H   UNK N   1      36.012  15.920   8.914  0.00  0.00     0.210 HD
ENDBRANCH   2  25
BRANCH   1  27
HETATM   27  C   UNK N   1      34.202  14.146   9.880  0.00  0.00     0.215 C 
BRANCH  27  28
HETATM   28  O   UNK N   1      34.017  15.087  10.904  0.00  0.00    -0.294 OA
BRANCH  28  29
HETATM   29  P   UNK N   1      35.565  15.351  11.665  0.00  0.00     0.390 P 
HETATM   30  O   UNK N   1      36.014  14.335  10.577  0.00  0.00    -0.632 OA
BRANCH  29  31
HETATM   31  O   UNK N   1      36.837  16.212  10.855  0.00  0.00    -0.307 OA
HETATM   32  H   UNK N   1      37.771  15.955  10.904  0.00  0.00     0.222 HD
ENDBRANCH  29  31
BRANCH  29  33
HETATM   33  O   UNK N   1      34.997  16.779  10.857  0.00  0.00    -0.307 OA
HETATM   34  H   UNK N   1      34.085  16.982  10.594  0.00  0.00     0.222 HD
ENDBRANCH  29  33
ENDBRANCH  28  29
ENDBRANCH  27  28
ENDBRANCH   1  27
TORSDOF 9
ENDMDL
MODEL 3
REMARK VINA RESULT:      -6.5     14.028     15.739
REMARK  9 active torsions:
REMARK  status: ('A' for Active; 'I' for Inactive)
REMARK    1  A    between atoms: C_4  and  C_2 
REMARK    2  A    between atoms: O_25  and  C_2 
REMARK    3  A    between atoms: C_6  and  O_19 
REMARK    4  A    between atoms: C_7  and  O_20 
REMARK    5  A    between atoms: O_21  and  C_9 
REMARK    6  A    between atoms: C_10  and  N_18 
REMARK    7  A    between atoms: P_27  and  O_22 
REMARK    8  A    between atoms: P_27  and  O_23 
REMARK    9  A    between atoms: P_27  and  O_25 
ROOT
HETATM    1  C   UNK N   1      35.490  12.780  11.194  0.00  0.00     0.180 C 
HETATM    2  C   UNK N   1      36.993  12.777  10.870  0.00  0.00     0.182 C 
HETATM    3  C   UNK N   1      37.084  13.754   9.693  0.00  0.00     0.198 C 
HETATM    4  C   UNK N   1      35.611  14.009   9.386  0.00  0.00     0.258 C 
HETATM    5  O   UNK N   1      34.978  13.977  10.648  0.00  0.00    -0.354 OA
ENDROOT
BRANCH   4   6
HETATM    6  N   UNK N   1      35.349  15.259   8.691  0.00  0.00    -0.319 N 
HETATM    7  C   UNK N   1      34.613  16.345   9.348  0.00  0.00     0.253 A 
HETATM    8  N   UNK N   1      33.925  16.995   8.241  0.00  0.00    -0.362 N 
HETATM    9  C   UNK N   1      33.015  18.100   8.387  0.00  0.00     0.152 C 
HETATM   10  C   UNK N   1      34.215  16.325   7.049  0.00  0.00     0.128 A 
HETATM   11  C   UNK N   1      35.047  15.306   7.311  0.00  0.00     0.153 A 
HETATM   12  C   UNK N   1      33.755  16.533   5.752  0.00  0.00     0.186 A 
HETATM   13  N   UNK N   1      35.460  14.448   6.347  0.00  0.00    -0.174 N 
HETATM   14  C   UNK N   1      35.033  14.646   5.064  0.00  0.00     0.679 A 
HETATM   15  H   UNK N   1      36.058  13.696   6.566  0.00  0.00     0.186 HD
HETATM   16  N   UNK N   1      35.418  13.860   4.136  0.00  0.00    -0.234 N 
HETATM   17  N   UNK N   1      34.183  15.684   4.774  0.00  0.00    -0.168 N 
HETATM   18  H   UNK N   1      35.951  13.062   4.355  0.00  0.00     0.174 HD
ATOM     19  HN  UNK N   1      35.174  14.058   3.165  1.00  0.00     0.174 HD
ATOM     20  HN  UNK N   1      33.866  15.822   3.814  1.00  0.00     0.186 HD
BRANCH  12  21
HETATM   21  O   UNK N   1      32.902  17.530   5.463  0.00  0.00    -0.344 OA
HETATM   22  H   UNK N   1      33.192  18.268   4.963  0.00  0.00     0.219 HD
ENDBRANCH  12  21
ENDBRANCH   4   6
BRANCH   3  23
HETATM   23  O   UNK N   1      37.670  14.956  10.113  0.00  0.00    -0.388 OA
HETATM   24  H   UNK N   1      37.925  15.877  10.275  0.00  0.00     0.210 HD
ENDBRANCH   3  23
BRANCH   2  25
HETATM   25  O   UNK N   1      37.752  13.259  11.947  0.00  0.00    -0.390 OA
HETATM   26  H   UNK N   1      38.602  13.597  12.268  0.00  0.00     0.210 HD
ENDBRANCH   2  25
BRANCH   1  27
HETATM   27  C   UNK N   1      35.225  12.624  12.692  0.00  0.00     0.215 C 
BRANCH  27  28
HETATM   28  O   UNK N   1      35.186  13.860  13.357  0.00  0.00    -0.294 OA
BRANCH  28  29
HETATM   29  P   UNK N   1      35.945  13.646  14.914  0.00  0.00     0.390 P 
HETATM   30  O   UNK N   1      36.246  12.242  14.317  0.00  0.00    -0.632 OA
BRANCH  29  31
HETATM   31  O   UNK N   1      37.671  13.538  15.073  0.00  0.00    -0.307 OA
HETATM   32  H   UNK N   1      38.135  12.720  15.314  0.00  0.00     0.222 HD
ENDBRANCH  29  31
BRANCH  29  33
HETATM   33  O   UNK N   1      36.781  14.824  13.949  0.00  0.00    -0.307 OA
HETATM   34  H   UNK N   1      36.581  15.085  13.037  0.00  0.00     0.222 HD
ENDBRANCH  29  33
ENDBRANCH  28  29
ENDBRANCH  27  28
ENDBRANCH   1  27
TORSDOF 9
ENDMDL
MODEL 4
REMARK VINA RESULT:      -6.5     10.607     11.804
REMARK  9 active torsions:
REMARK  status: ('A' for Active; 'I' for Inactive)
REMARK    1  A    between atoms: C_4  and  C_2 
REMARK    2  A    between atoms: O_25  and  C_2 
REMARK    3  A    between atoms: C_6  and  O_19 
REMARK    4  A    between atoms: C_7  and  O_20 
REMARK    5  A    between atoms: O_21  and  C_9 
REMARK    6  A    between atoms: C_10  and  N_18 
REMARK    7  A    between atoms: P_27  and  O_22 
REMARK    8  A    between atoms: P_27  and  O_23 
REMARK    9  A    between atoms: P_27  and  O_25 
ROOT
HETATM    1  C   UNK N   1      33.538  14.812   6.815  0.00  0.00     0.180 C 
HETATM    2  C   UNK N   1      33.944  15.869   5.775  0.00  0.00     0.182 C 
HETATM    3  C   UNK N   1      32.594  16.287   5.180  0.00  0.00     0.198 C 
HETATM    4  C   UNK N   1      31.647  15.272   5.811  0.00  0.00     0.258 C 
HETATM    5  O   UNK N   1      32.177  15.051   7.102  0.00  0.00    -0.354 OA
ENDROOT
BRANCH   4   6
HETATM    6  N   UNK N   1      30.258  15.700   5.872  0.00  0.00    -0.319 N 
HETATM    7  C   UNK N   1      29.453  15.818   4.652  0.00  0.00     0.253 A 
HETATM    8  N   UNK N   1      28.531  16.900   4.968  0.00  0.00    -0.362 N 
HETATM    9  C   UNK N   1      27.561  17.436   4.049  0.00  0.00     0.152 C 
HETATM   10  C   UNK N   1      28.799  17.386   6.251  0.00  0.00     0.128 A 
HETATM   11  C   UNK N   1      29.813  16.686   6.781  0.00  0.00     0.153 A 
HETATM   12  C   UNK N   1      28.232  18.438   6.963  0.00  0.00     0.186 A 
HETATM   13  N   UNK N   1      30.323  16.971   8.004  0.00  0.00    -0.174 N 
HETATM   14  C   UNK N   1      29.767  17.991   8.726  0.00  0.00     0.679 A 
HETATM   15  H   UNK N   1      31.079  16.454   8.365  0.00  0.00     0.186 HD
HETATM   16  N   UNK N   1      30.221  18.270   9.885  0.00  0.00    -0.234 N 
HETATM   17  N   UNK N   1      28.729  18.719   8.202  0.00  0.00    -0.168 N 
HETATM   18  H   UNK N   1      31.025  17.813  10.224  0.00  0.00     0.174 HD
ATOM     19  HN  UNK N   1      29.752  18.969  10.461  1.00  0.00     0.174 HD
ATOM     20  HN  UNK N   1      28.323  19.479   8.747  1.00  0.00     0.186 HD
BRANCH  12  21
HETATM   21  O   UNK N   1      27.232  19.173   6.448  0.00  0.00    -0.344 OA
HETATM   22  H   UNK N   1      27.324  19.567   5.603  0.00  0.00     0.219 HD
ENDBRANCH  12  21
ENDBRANCH   4   6
BRANCH   3  23
HETATM   23  O   UNK N   1      32.248  17.568   5.634  0.00  0.00    -0.388 OA
HETATM   24  H   UNK N   1      32.009  18.502   5.736  0.00  0.00     0.210 HD
ENDBRANCH   3  23
BRANCH   2  25
HETATM   25  O   UNK N   1      34.559  16.975   6.381  0.00  0.00    -0.390 OA
HETATM   26  H   UNK N   1      35.219  17.306   7.010  0.00  0.00     0.210 HD
ENDBRANCH   2  25
BRANCH   1  27
HETATM   27  C   UNK N   1      34.442  14.842   8.048  0.00  0.00     0.215 C 
BRANCH  27  28
HETATM   28  O   UNK N   1      33.742  15.199   9.211  0.00  0.00    -0.294 OA
BRANCH  28  29
HETATM   29  P   UNK N   1      34.672  16.428  10.031  0.00  0.00     0.390 P 
HETATM   30  O   UNK N   1      35.727  16.013   8.967  0.00  0.00    -0.632 OA
BRANCH  29  31
HETATM   31  O   UNK N   1      35.044  17.943   9.266  0.00  0.00    -0.307 OA
HETATM   32  H   UNK N   1      35.281  18.745   9.758  0.00  0.00     0.222 HD
ENDBRANCH  29  31
BRANCH  29  33
HETATM   33  O   UNK N   1      33.311  17.106   9.192  0.00  0.00    -0.307 OA
HETATM   34  H   UNK N   1      32.792  17.885   9.447  0.00  0.00     0.222 HD
ENDBRANCH  29  33
ENDBRANCH  28  29
ENDBRANCH  27  28
ENDBRANCH   1  27
TORSDOF 9
ENDMDL
MODEL 5
REMARK VINA RESULT:      -6.4     12.973     14.903
REMARK  9 active torsions:
REMARK  status: ('A' for Active; 'I' for Inactive)
REMARK    1  A    between atoms: C_4  and  C_2 
REMARK    2  A    between atoms: O_25  and  C_2 
REMARK    3  A    between atoms: C_6  and  O_19 
REMARK    4  A    between atoms: C_7  and  O_20 
REMARK    5  A    between atoms: O_21  and  C_9 
REMARK    6  A    between atoms: C_10  and  N_18 
REMARK    7  A    between atoms: P_27  and  O_22 
REMARK    8  A    between atoms: P_27  and  O_23 
REMARK    9  A    between atoms: P_27  and  O_25 
ROOT
HETATM    1  C   UNK N   1      36.481  13.423  11.642  0.00  0.00     0.180 C 
HETATM    2  C   UNK N   1      35.490  14.099  12.604  0.00  0.00     0.182 C 
HETATM    3  C   UNK N   1      34.873  15.197  11.731  0.00  0.00     0.198 C 
HETATM    4  C   UNK N   1      35.739  15.123  10.478  0.00  0.00     0.258 C 
HETATM    5  O   UNK N   1      36.043  13.751  10.341  0.00  0.00    -0.354 OA
ENDROOT
BRANCH   4   6
HETATM    6  N   UNK N   1      35.110  15.652   9.278  0.00  0.00    -0.319 N 
HETATM    7  C   UNK N   1      34.726  17.064   9.190  0.00  0.00     0.253 A 
HETATM    8  N   UNK N   1      33.558  17.035   8.321  0.00  0.00    -0.362 N 
HETATM    9  C   UNK N   1      32.774  18.192   7.974  0.00  0.00     0.152 C 
HETATM   10  C   UNK N   1      33.273  15.716   7.960  0.00  0.00     0.128 A 
HETATM   11  C   UNK N   1      34.180  14.902   8.523  0.00  0.00     0.153 A 
HETATM   12  C   UNK N   1      32.236  15.182   7.201  0.00  0.00     0.186 A 
HETATM   13  N   UNK N   1      34.122  13.556   8.386  0.00  0.00    -0.174 N 
HETATM   14  C   UNK N   1      33.120  13.014   7.630  0.00  0.00     0.679 A 
HETATM   15  H   UNK N   1      34.790  12.978   8.823  0.00  0.00     0.186 HD
HETATM   16  N   UNK N   1      33.051  11.750   7.476  0.00  0.00    -0.234 N 
HETATM   17  N   UNK N   1      32.183  13.828   7.045  0.00  0.00    -0.168 N 
HETATM   18  H   UNK N   1      33.665  11.158   7.969  0.00  0.00     0.174 HD
ATOM     19  HN  UNK N   1      32.360  11.351   6.840  1.00  0.00     0.174 HD
ATOM     20  HN  UNK N   1      31.437  13.415   6.485  1.00  0.00     0.186 HD
BRANCH  12  21
HETATM   21  O   UNK N   1      31.298  15.969   6.646  0.00  0.00    -0.344 OA
HETATM   22  H   UNK N   1      31.146  15.939   5.722  0.00  0.00     0.219 HD
ENDBRANCH  12  21
ENDBRANCH   4   6
BRANCH   3  23
HETATM   23  O   UNK N   1      33.558  14.853  11.389  0.00  0.00    -0.388 OA
HETATM   24  H   UNK N   1      32.613  14.829  11.170  0.00  0.00     0.210 HD
ENDBRANCH   3  23
BRANCH   2  25
HETATM   25  O   UNK N   1      34.491  13.206  13.022  0.00  0.00    -0.390 OA
HETATM   26  H   UNK N   1      34.031  12.364  12.883  0.00  0.00     0.210 HD
ENDBRANCH   2  25
BRANCH   1  27
HETATM   27  C   UNK N   1      36.591  11.918  11.894  0.00  0.00     0.215 C 
BRANCH  27  28
HETATM   28  O   UNK N   1      36.141  11.162  10.801  0.00  0.00    -0.294 OA
BRANCH  28  29
HETATM   29  P   UNK N   1      34.967  10.017  11.399  0.00  0.00     0.390 P 
HETATM   30  O   UNK N   1      35.536  10.496  12.764  0.00  0.00    -0.632 OA
BRANCH  29  31
HETATM   31  O   UNK N   1      33.537  10.538  12.235  0.00  0.00    -0.307 OA
HETATM   32  H   UNK N   1      33.506  11.327  12.799  0.00  0.00     0.222 HD
ENDBRANCH  29  31
BRANCH  29  33
HETATM   33  O   UNK N   1      34.204  11.377  10.634  0.00  0.00    -0.307 OA
HETATM   34  H   UNK N   1      33.309  11.415  10.262  0.00  0.00     0.222 HD
ENDBRANCH  29  33
ENDBRANCH  28  29
ENDBRANCH  27  28
ENDBRANCH   1  27
TORSDOF 9
ENDMDL
MODEL 6
REMARK VINA RESULT:      -6.4     15.202     17.699
REMARK  9 active torsions:
REMARK  status: ('A' for Active; 'I' for Inactive)
REMARK    1  A    between atoms: C_4  and  C_2 
REMARK    2  A    between atoms: O_25  and  C_2 
REMARK    3  A    between atoms: C_6  and  O_19 
REMARK    4  A    between atoms: C_7  and  O_20 
REMARK    5  A    between atoms: O_21  and  C_9 
REMARK    6  A    between atoms: C_10  and  N_18 
REMARK    7  A    between atoms: P_27  and  O_22 
REMARK    8  A    between atoms: P_27  and  O_23 
REMARK    9  A    between atoms: P_27  and  O_25 
ROOT
HETATM    1  C   UNK N   1      33.795  15.682   9.528  0.00  0.00     0.180 C 
HETATM    2  C   UNK N   1      34.519  16.845  10.225  0.00  0.00     0.182 C 
HETATM    3  C   UNK N   1      35.478  16.121  11.176  0.00  0.00     0.198 C 
HETATM    4  C   UNK N   1      35.020  14.672  11.037  0.00  0.00     0.258 C 
HETATM    5  O   UNK N   1      34.631  14.555   9.684  0.00  0.00    -0.354 OA
ENDROOT
BRANCH   4   6
HETATM    6  N   UNK N   1      36.029  13.685  11.388  0.00  0.00    -0.319 N 
HETATM    7  C   UNK N   1      36.041  12.363  10.752  0.00  0.00     0.253 A 
HETATM    8  N   UNK N   1      36.583  11.501  11.793  0.00  0.00    -0.362 N 
HETATM    9  C   UNK N   1      36.738  10.075  11.668  0.00  0.00     0.152 C 
HETATM   10  C   UNK N   1      36.835  12.254  12.943  0.00  0.00     0.128 A 
HETATM   11  C   UNK N   1      36.509  13.534  12.709  0.00  0.00     0.153 A 
HETATM   12  C   UNK N   1      37.294  11.872  14.199  0.00  0.00     0.186 A 
HETATM   13  N   UNK N   1      36.602  14.488  13.666  0.00  0.00    -0.174 N 
HETATM   14  C   UNK N   1      37.068  14.134  14.902  0.00  0.00     0.679 A 
HETATM   15  H   UNK N   1      36.340  15.418  13.475  0.00  0.00     0.186 HD
HETATM   16  N   UNK N   1      37.177  15.017  15.817  0.00  0.00    -0.234 N 
HETATM   17  N   UNK N   1      37.408  12.831  15.163  0.00  0.00    -0.168 N 
HETATM   18  H   UNK N   1      36.847  15.932  15.663  0.00  0.00     0.174 HD
ATOM     19  HN  UNK N   1      37.608  14.775  16.709  1.00  0.00     0.174 HD
ATOM     20  HN  UNK N   1      37.752  12.576  16.089  1.00  0.00     0.186 HD
BRANCH  12  21
HETATM   21  O   UNK N   1      37.606  10.593  14.472  0.00  0.00    -0.344 OA
HETATM   22  H   UNK N   1      38.119  10.385  15.227  0.00  0.00     0.219 HD
ENDBRANCH  12  21
ENDBRANCH   4   6
BRANCH   3  23
HETATM   23  O   UNK N   1      36.793  16.224  10.700  0.00  0.00    -0.388 OA
HETATM   24  H   UNK N   1      37.735  16.406  10.557  0.00  0.00     0.210 HD
ENDBRANCH   3  23
BRANCH   2  25
HETATM   25  O   UNK N   1      35.251  17.616   9.309  0.00  0.00    -0.390 OA
HETATM   26  H   UNK N   1      35.240  18.242   8.568  0.00  0.00     0.210 HD
ENDBRANCH   2  25
BRANCH   1  27
HETATM   27  C   UNK N   1      33.461  16.003   8.071  0.00  0.00     0.215 C 
BRANCH  27  28
HETATM   28  O   UNK N   1      34.575  15.873   7.228  0.00  0.00    -0.294 OA
BRANCH  28  29
HETATM   29  P   UNK N   1      34.056  16.250   5.604  0.00  0.00     0.390 P 
HETATM   30  O   UNK N   1      32.693  15.767   6.175  0.00  0.00    -0.632 OA
BRANCH  29  31
HETATM   31  O   UNK N   1      33.017  17.602   5.276  0.00  0.00    -0.307 OA
HETATM   32  H   UNK N   1      32.051  17.532   5.223  0.00  0.00     0.222 HD
ENDBRANCH  29  31
BRANCH  29  33
HETATM   33  O   UNK N   1      34.521  17.678   6.476  0.00  0.00    -0.307 OA
HETATM   34  H   UNK N   1      35.087  17.728   7.262  0.00  0.00     0.222 HD
ENDBRANCH  29  33
ENDBRANCH  28  29
ENDBRANCH  27  28
ENDBRANCH   1  27
TORSDOF 9
ENDMDL
MODEL 7
REMARK VINA RESULT:      -6.4      5.661      7.274
REMARK  9 active torsions:
REMARK  status: ('A' for Active; 'I' for Inactive)
REMARK    1  A    between atoms: C_4  and  C_2 
REMARK    2  A    between atoms: O_25  and  C_2 
REMARK    3  A    between atoms: C_6  and  O_19 
REMARK    4  A    between atoms: C_7  and  O_20 
REMARK    5  A    between atoms: O_21  and  C_9 
REMARK    6  A    between atoms: C_10  and  N_18 
REMARK    7  A    between atoms: P_27  and  O_22 
REMARK    8  A    between atoms: P_27  and  O_23 
REMARK    9  A    between atoms: P_27  and  O_25 
ROOT
HETATM    1  C   UNK N   1      21.785  16.696   4.095  0.00  0.00     0.180 C 
HETATM    2  C   UNK N   1      22.140  16.304   5.539  0.00  0.00     0.182 C 
HETATM    3  C   UNK N   1      23.600  15.853   5.414  0.00  0.00     0.198 C 
HETATM    4  C   UNK N   1      23.798  15.854   3.901  0.00  0.00     0.258 C 
HETATM    5  O   UNK N   1      23.015  16.938   3.445  0.00  0.00    -0.354 OA
ENDROOT
BRANCH   4   6
HETATM    6  N   UNK N   1      25.183  15.982   3.475  0.00  0.00    -0.319 N 
HETATM    7  C   UNK N   1      26.146  14.902   3.713  0.00  0.00     0.253 A 
HETATM    8  N   UNK N   1      27.405  15.614   3.882  0.00  0.00    -0.362 N 
HETATM    9  C   UNK N   1      28.659  14.982   4.200  0.00  0.00     0.152 C 
HETATM   10  C   UNK N   1      27.185  16.990   3.780  0.00  0.00     0.128 A 
HETATM   11  C   UNK N   1      25.882  17.209   3.545  0.00  0.00     0.153 A 
HETATM   12  C   UNK N   1      28.056  18.065   3.926  0.00  0.00     0.186 A 
HETATM   13  N   UNK N   1      25.368  18.458   3.449  0.00  0.00    -0.174 N 
HETATM   14  C   UNK N   1      26.211  19.527   3.573  0.00  0.00     0.679 A 
HETATM   15  H   UNK N   1      24.405  18.594   3.292  0.00  0.00     0.186 HD
HETATM   16  N   UNK N   1      25.754  20.714   3.473  0.00  0.00    -0.234 N 
HETATM   17  N   UNK N   1      27.547  19.326   3.813  0.00  0.00    -0.168 N 
HETATM   18  H   UNK N   1      24.783  20.864   3.395  0.00  0.00     0.174 HD
ATOM     19  HN  UNK N   1      26.393  21.509   3.475  1.00  0.00     0.174 HD
ATOM     20  HN  UNK N   1      28.168  20.130   3.906  1.00  0.00     0.186 HD
BRANCH  12  21
HETATM   21  O   UNK N   1      29.361  17.878   4.187  0.00  0.00    -0.344 OA
HETATM   22  H   UNK N   1      29.634  17.592   5.037  0.00  0.00     0.219 HD
ENDBRANCH  12  21
ENDBRANCH   4   6
BRANCH   3  23
HETATM   23  O   UNK N   1      24.448  16.815   5.979  0.00  0.00    -0.388 OA
HETATM   24  H   UNK N   1      24.874  17.501   6.516  0.00  0.00     0.210 HD
ENDBRANCH   3  23
BRANCH   2  25
HETATM   25  O   UNK N   1      22.056  17.405   6.404  0.00  0.00    -0.390 OA
HETATM   26  H   UNK N   1      21.653  17.803   7.191  0.00  0.00     0.210 HD
ENDBRANCH   2  25
BRANCH   1  27
HETATM   27  C   UNK N   1      20.817  17.878   4.041  0.00  0.00     0.215 C 
BRANCH  27  28
HETATM   28  O   UNK N   1      21.466  19.106   4.241  0.00  0.00    -0.294 OA
BRANCH  28  29
HETATM   29  P   UNK N   1      21.202  20.081   2.818  0.00  0.00     0.390 P 
HETATM   30  O   UNK N   1      20.313  20.880   3.813  0.00  0.00    -0.632 OA
BRANCH  29  31
HETATM   31  O   UNK N   1      21.850  21.688   2.688  0.00  0.00    -0.307 OA
HETATM   32  H   UNK N   1      21.648  22.397   3.318  0.00  0.00     0.222 HD
ENDBRANCH  29  31
BRANCH  29  33
HETATM   33  O   UNK N   1      22.845  20.187   3.372  0.00  0.00    -0.307 OA
HETATM   34  H   UNK N   1      23.650  20.124   2.835  0.00  0.00     0.222 HD
ENDBRANCH  29  33
ENDBRANCH  28  29
ENDBRANCH  27  28
ENDBRANCH   1  27
TORSDOF 9
ENDMDL
MODEL 8
REMARK VINA RESULT:      -6.4      9.821     10.890
REMARK  9 active torsions:
REMARK  status: ('A' for Active; 'I' for Inactive)
REMARK    1  A    between atoms: C_4  and  C_2 
REMARK    2  A    between atoms: O_25  and  C_2 
REMARK    3  A    between atoms: C_6  and  O_19 
REMARK    4  A    between atoms: C_7  and  O_20 
REMARK    5  A    between atoms: O_21  and  C_9 
REMARK    6  A    between atoms: C_10  and  N_18 
REMARK    7  A    between atoms: P_27  and  O_22 
REMARK    8  A    between atoms: P_27  and  O_23 
REMARK    9  A    between atoms: P_27  and  O_25 
ROOT
HETATM    1  C   UNK N   1      31.621  15.487   5.887  0.00  0.00     0.180 C 
HETATM    2  C   UNK N   1      32.084  16.049   4.533  0.00  0.00     0.182 C 
HETATM    3  C   UNK N   1      30.804  16.687   3.981  0.00  0.00     0.198 C 
HETATM    4  C   UNK N   1      29.762  16.220   4.992  0.00  0.00     0.258 C 
HETATM    5  O   UNK N   1      30.451  16.201   6.225  0.00  0.00    -0.354 OA
ENDROOT
BRANCH   4   6
HETATM    6  N   UNK N   1      28.572  17.054   5.060  0.00  0.00    -0.319 N 
HETATM    7  C   UNK N   1      28.076  17.755   3.872  0.00  0.00     0.253 A 
HETATM    8  N   UNK N   1      27.468  18.956   4.426  0.00  0.00    -0.362 N 
HETATM    9  C   UNK N   1      26.883  20.009   3.638  0.00  0.00     0.152 C 
HETATM   10  C   UNK N   1      27.625  18.965   5.815  0.00  0.00     0.128 A 
HETATM   11  C   UNK N   1      28.275  17.852   6.189  0.00  0.00     0.153 A 
HETATM   12  C   UNK N   1      27.269  19.915   6.766  0.00  0.00     0.186 A 
HETATM   13  N   UNK N   1      28.612  17.614   7.479  0.00  0.00    -0.174 N 
HETATM   14  C   UNK N   1      28.256  18.529   8.430  0.00  0.00     0.679 A 
HETATM   15  H   UNK N   1      29.105  16.797   7.727  0.00  0.00     0.186 HD
HETATM   16  N   UNK N   1      28.551  18.321   9.655  0.00  0.00    -0.234 N 
HETATM   17  N   UNK N   1      27.590  19.673   8.070  0.00  0.00    -0.168 N 
HETATM   18  H   UNK N   1      29.109  17.549   9.904  0.00  0.00     0.174 HD
ATOM     19  HN  UNK N   1      28.208  18.956  10.376  1.00  0.00     0.174 HD
ATOM     20  HN  UNK N   1      27.331  20.351   8.787  1.00  0.00     0.186 HD
BRANCH  12  21
HETATM   21  O   UNK N   1      26.641  21.051   6.420  0.00  0.00    -0.344 OA
HETATM   22  H   UNK N   1      25.812  21.016   5.984  0.00  0.00     0.219 HD
ENDBRANCH  12  21
ENDBRANCH   4   6
BRANCH   3  23
HETATM   23  O   UNK N   1      30.899  18.084   4.047  0.00  0.00    -0.388 OA
HETATM   24  H   UNK N   1      30.847  19.043   3.909  0.00  0.00     0.210 HD
ENDBRANCH   3  23
BRANCH   2  25
HETATM   25  O   UNK N   1      33.072  17.032   4.697  0.00  0.00    -0.390 OA
HETATM   26  H   UNK N   1      33.914  17.291   5.102  0.00  0.00     0.210 HD
ENDBRANCH   2  25
BRANCH   1  27
HETATM   27  C   UNK N   1      32.719  15.567   6.949  0.00  0.00     0.215 C 
BRANCH  27  28
HETATM   28  O   UNK N   1      32.836  16.854   7.496  0.00  0.00    -0.294 OA
BRANCH  28  29
HETATM   29  P   UNK N   1      34.479  17.042   8.056  0.00  0.00     0.390 P 
HETATM   30  O   UNK N   1      34.524  18.045   6.868  0.00  0.00    -0.632 OA
BRANCH  29  31
HETATM   31  O   UNK N   1      35.011  18.506   8.826  0.00  0.00    -0.307 OA
HETATM   32  H   UNK N   1      35.919  18.841   8.765  0.00  0.00     0.222 HD
ENDBRANCH  29  31
BRANCH  29  33
HETATM   33  O   UNK N   1      33.333  17.644   9.215  0.00  0.00    -0.307 OA
HETATM   34  H   UNK N   1      33.183  17.317  10.116  0.00  0.00     0.222 HD
ENDBRANCH  29  33
ENDBRANCH  28  29
ENDBRANCH  27  28
ENDBRANCH   1  27
TORSDOF 9
ENDMDL
MODEL 9
REMARK VINA RESULT:      -6.2      5.257      6.416
REMARK  9 active torsions:
REMARK  status: ('A' for Active; 'I' for Inactive)
REMARK    1  A    between atoms: C_4  and  C_2 
REMARK    2  A    between atoms: O_25  and  C_2 
REMARK    3  A    between atoms: C_6  and  O_19 
REMARK    4  A    between atoms: C_7  and  O_20 
REMARK    5  A    between atoms: O_21  and  C_9 
REMARK    6  A    between atoms: C_10  and  N_18 
REMARK    7  A    between atoms: P_27  and  O_22 
REMARK    8  A    between atoms: P_27  and  O_23 
REMARK    9  A    between atoms: P_27  and  O_25 
ROOT
HETATM    1  C   UNK N   1      26.745  18.520   3.411  0.00  0.00     0.180 C 
HETATM    2  C   UNK N   1      26.893  19.996   3.812  0.00  0.00     0.182 C 
HETATM    3  C   UNK N   1      25.440  20.429   4.036  0.00  0.00     0.198 C 
HETATM    4  C   UNK N   1      24.671  19.211   3.534  0.00  0.00     0.258 C 
HETATM    5  O   UNK N   1      25.483  18.111   3.891  0.00  0.00    -0.354 OA
ENDROOT
BRANCH   4   6
HETATM    6  N   UNK N   1      23.329  19.079   4.078  0.00  0.00    -0.319 N 
HETATM    7  C   UNK N   1      23.016  18.042   5.067  0.00  0.00     0.253 A 
HETATM    8  N   UNK N   1      21.620  17.731   4.789  0.00  0.00    -0.362 N 
HETATM    9  C   UNK N   1      20.864  16.713   5.470  0.00  0.00     0.152 C 
HETATM   10  C   UNK N   1      21.173  18.500   3.712  0.00  0.00     0.128 A 
HETATM   11  C   UNK N   1      22.173  19.290   3.291  0.00  0.00     0.153 A 
HETATM   12  C   UNK N   1      19.949  18.516   3.050  0.00  0.00     0.186 A 
HETATM   13  N   UNK N   1      22.041  20.112   2.224  0.00  0.00    -0.174 N 
HETATM   14  C   UNK N   1      20.840  20.154   1.571  0.00  0.00     0.679 A 
HETATM   15  H   UNK N   1      22.795  20.670   1.923  0.00  0.00     0.186 HD
HETATM   16  N   UNK N   1      20.686  20.931   0.570  0.00  0.00    -0.234 N 
HETATM   17  N   UNK N   1      19.803  19.357   1.985  0.00  0.00    -0.168 N 
HETATM   18  H   UNK N   1      21.454  21.434   0.213  0.00  0.00     0.174 HD
ATOM     19  HN  UNK N   1      19.767  21.031   0.139  1.00  0.00     0.174 HD
ATOM     20  HN  UNK N   1      18.912  19.393   1.490  1.00  0.00     0.186 HD
BRANCH  12  21
HETATM   21  O   UNK N   1      18.936  17.720   3.432  0.00  0.00    -0.344 OA
HETATM   22  H   UNK N   1      18.837  16.870   3.050  0.00  0.00     0.219 HD
ENDBRANCH  12  21
ENDBRANCH   4   6
BRANCH   3  23
HETATM   23  O   UNK N   1      25.193  20.582   5.408  0.00  0.00    -0.388 OA
HETATM   24  H   UNK N   1      25.234  20.643   6.375  0.00  0.00     0.210 HD
ENDBRANCH   3  23
BRANCH   2  25
HETATM   25  O   UNK N   1      27.619  20.133   5.005  0.00  0.00    -0.390 OA
HETATM   26  H   UNK N   1      28.473  20.066   5.460  0.00  0.00     0.210 HD
ENDBRANCH   2  25
BRANCH   1  27
HETATM   27  C   UNK N   1      27.906  17.666   3.924  0.00  0.00     0.215 C 
BRANCH  27  28
HETATM   28  O   UNK N   1      27.486  16.700   4.852  0.00  0.00    -0.294 OA
BRANCH  28  29
HETATM   29  P   UNK N   1      28.494  16.854   6.268  0.00  0.00     0.390 P 
HETATM   30  O   UNK N   1      29.327  17.736   5.295  0.00  0.00    -0.632 OA
BRANCH  29  31
HETATM   31  O   UNK N   1      28.613  18.354   7.136  0.00  0.00    -0.307 OA
HETATM   32  H   UNK N   1      29.184  18.479   7.910  0.00  0.00     0.222 HD
ENDBRANCH  29  31
BRANCH  29  33
HETATM   33  O   UNK N   1      26.952  17.622   6.492  0.00  0.00    -0.307 OA
HETATM   34  H   UNK N   1      26.448  18.129   5.837  0.00  0.00     0.222 HD
ENDBRANCH  29  33
ENDBRANCH  28  29
ENDBRANCH  27  28
ENDBRANCH   1  27
TORSDOF 9
ENDMDL
