MODEL 1
REMARK VINA RESULT:      -8.1      0.000      0.000
REMARK  10 active torsions:
REMARK  status: ('A' for Active; 'I' for Inactive)
REMARK    1  A    between atoms: O_2  and  C_3 
REMARK    2  A    between atoms: C_3  and  C_5 
REMARK    3  A    between atoms: C_5  and  C_6 
REMARK    4  A    between atoms: C_6  and  C_7 
REMARK    5  A    between atoms: C_13  and  C_14 
REMARK    6  A    between atoms: C_27  and  C_28 
REMARK    7  A    between atoms: C_28  and  C_29 
REMARK    8  A    between atoms: C_29  and  C_30 
REMARK    9  A    between atoms: C_30  and  O_32 
REMARK   10  A    between atoms: C_43  and  C_44 
ROOT
HETATM    1  C   UNK N   1      26.791  19.511   3.828  0.00  0.00     0.048 C 
HETATM    2  C   UNK N   1      25.447  19.562   4.126  0.00  0.00     0.043 C 
HETATM    3  C   UNK N   1      24.451  20.473   3.415  0.00  0.00     0.017 C 
HETATM    4  C   UNK N   1      25.066  18.282   4.205  0.00  0.00     0.041 C 
HETATM    5  C   UNK N   1      23.806  17.974   4.280  0.00  0.00     0.060 C 
HETATM    6  C   UNK N   1      23.362  16.737   3.738  0.00  0.00     0.070 A 
HETATM    7  C   UNK N   1      22.050  16.368   3.716  0.00  0.00     0.000 A 
HETATM    8  C   UNK N   1      22.042  15.151   3.098  0.00  0.00    -0.021 A 
HETATM    9  C   UNK N   1      20.905  14.391   2.601  0.00  0.00     0.052 C 
HETATM   10  C   UNK N   1      23.337  14.787   2.861  0.00  0.00     0.066 A 
HETATM   11  C   UNK N   1      23.774  13.520   2.311  0.00  0.00     0.064 A 
HETATM   12  C   UNK N   1      25.052  13.137   2.166  0.00  0.00     0.070 A 
HETATM   13  N   UNK N   1      26.133  13.854   2.513  0.00  0.00    -0.248 N 
HETATM   14  C   UNK N   1      27.231  13.098   2.185  0.00  0.00     0.066 A 
HETATM   15  C   UNK N   1      28.529  13.375   2.367  0.00  0.00     0.064 C 
HETATM   16  C   UNK N   1      28.932  14.613   2.875  0.00  0.00     0.066 C 
HETATM   17  C   UNK N   1      30.184  14.911   3.352  0.00  0.00    -0.025 C 
HETATM   18  C   UNK N   1      31.411  14.106   3.131  0.00  0.00     0.051 C 
HETATM   19  C   UNK N   1      30.049  16.084   4.009  0.00  0.00    -0.021 C 
HETATM   20  C   UNK N   1      28.820  16.554   3.611  0.00  0.00     0.066 C 
HETATM   21  C   UNK N   1      28.408  17.860   3.620  0.00  0.00     0.059 C 
HETATM   22  C   UNK N   1      27.137  18.244   3.705  0.00  0.00     0.042 C 
HETATM   23  N   UNK N   1      26.087  17.482   3.824  0.00  0.00    -0.257 N 
HETATM   24 Fe   UNK N   1      26.135  15.697   3.178  0.00  0.00     0.000 Fe
HETATM   25  N   UNK N   1      28.089  15.608   3.118  0.00  0.00    -0.248 N 
HETATM   26  N   UNK N   1      24.154  15.758   3.224  0.00  0.00    -0.248 N 
HETATM   27  C   UNK N   1      26.852  11.965   1.567  0.00  0.00    -0.021 A 
HETATM   28  C   UNK N   1      27.803  10.918   1.122  0.00  0.00     0.052 C 
HETATM   29  C   UNK N   1      25.469  11.961   1.566  0.00  0.00     0.000 A 
ENDROOT
BRANCH   1  30
HETATM   30  C   UNK N   1      27.753  20.007   4.720  0.00  0.00     0.021 C 
BRANCH  30  31
HETATM   31  C   UNK N   1      27.380  21.150   5.578  0.00  0.00     0.112 C 
BRANCH  31  32
HETATM   32  C   UNK N   1      27.444  20.302   6.793  0.00  0.00     0.258 C 
HETATM   33  O   UNK N   1      26.655  20.537   7.708  0.00  0.00    -0.265 OA
BRANCH  32  34
HETATM   34  O   UNK N   1      28.287  19.273   6.956  0.00  0.00    -0.326 OA
HETATM   35  C   UNK N   1      28.260  18.730   8.229  0.00  0.00     0.213 C 
ENDBRANCH  32  34
ENDBRANCH  31  32
ENDBRANCH  30  31
ENDBRANCH   1  30
BRANCH  19  36
HETATM   36  C   UNK N   1      30.955  16.563   5.145  0.00  0.00     0.051 C 
BRANCH  36  37
HETATM   37  C   UNK N   1      32.037  17.514   4.721  0.00  0.00     0.116 C 
BRANCH  37  38
HETATM   38  C   UNK N   1      33.340  17.076   5.328  0.00  0.00     0.258 C 
HETATM   39  O   UNK N   1      33.699  15.931   5.141  0.00  0.00    -0.265 OA
BRANCH  38  40
HETATM   40  O   UNK N   1      34.109  17.872   6.125  0.00  0.00    -0.326 OA
HETATM   41  C   UNK N   1      34.078  17.927   7.504  0.00  0.00     0.213 C 
ENDBRANCH  38  40
ENDBRANCH  37  38
ENDBRANCH  36  37
ENDBRANCH  19  36
BRANCH   7  42
HETATM   42  C   UNK N   1      20.878  17.154   4.132  0.00  0.00     0.004 C 
HETATM   43  C   UNK N   1      20.276  17.957   3.244  0.00  0.00     0.012 C 
ENDBRANCH   7  42
BRANCH  29  44
HETATM   44  C   UNK N   1      24.607  10.878   1.113  0.00  0.00     0.004 C 
HETATM   45  C   UNK N   1      24.042  10.901  -0.097  0.00  0.00     0.012 C 
ENDBRANCH  29  44
TORSDOF 10
ENDMDL
MODEL 2
REMARK VINA RESULT:      -7.7      3.112      7.665
REMARK  10 active torsions:
REMARK  status: ('A' for Active; 'I' for Inactive)
REMARK    1  A    between atoms: O_2  and  C_3 
REMARK    2  A    between atoms: C_3  and  C_5 
REMARK    3  A    between atoms: C_5  and  C_6 
REMARK    4  A    between atoms: C_6  and  C_7 
REMARK    5  A    between atoms: C_13  and  C_14 
REMARK    6  A    between atoms: C_27  and  C_28 
REMARK    7  A    between atoms: C_28  and  C_29 
REMARK    8  A    between atoms: C_29  and  C_30 
REMARK    9  A    between atoms: C_30  and  O_32 
REMARK   10  A    between atoms: C_43  and  C_44 
ROOT
HETATM    1  C   UNK N   1      33.151  13.241   7.031  0.00  0.00     0.048 C 
HETATM    2  C   UNK N   1      33.571  12.579   5.898  0.00  0.00     0.043 C 
HETATM    3  C   UNK N   1      33.697  11.061   5.796  0.00  0.00     0.017 C 
HETATM    4  C   UNK N   1      32.888  13.146   4.898  0.00  0.00     0.041 C 
HETATM    5  C   UNK N   1      32.903  12.620   3.709  0.00  0.00     0.060 C 
HETATM    6  C   UNK N   1      31.770  12.780   2.867  0.00  0.00     0.070 A 
HETATM    7  C   UNK N   1      31.679  12.206   1.634  0.00  0.00     0.000 A 
HETATM    8  C   UNK N   1      30.448  12.572   1.171  0.00  0.00    -0.021 A 
HETATM    9  C   UNK N   1      29.725  12.067   0.013  0.00  0.00     0.052 C 
HETATM   10  C   UNK N   1      29.887  13.422   2.081  0.00  0.00     0.066 A 
HETATM   11  C   UNK N   1      28.627  14.118   1.926  0.00  0.00     0.064 A 
HETATM   12  C   UNK N   1      28.128  15.020   2.786  0.00  0.00     0.070 A 
HETATM   13  N   UNK N   1      28.715  15.434   3.920  0.00  0.00    -0.248 N 
HETATM   14  C   UNK N   1      27.864  16.346   4.495  0.00  0.00     0.066 A 
HETATM   15  C   UNK N   1      28.025  17.055   5.620  0.00  0.00     0.064 C 
HETATM   16  C   UNK N   1      29.137  16.851   6.441  0.00  0.00     0.066 C 
HETATM   17  C   UNK N   1      29.546  17.683   7.454  0.00  0.00    -0.025 C 
HETATM   18  C   UNK N   1      28.734  18.760   8.073  0.00  0.00     0.051 C 
HETATM   19  C   UNK N   1      30.797  17.279   7.769  0.00  0.00    -0.021 C 
HETATM   20  C   UNK N   1      30.921  16.056   7.155  0.00  0.00     0.066 C 
HETATM   21  C   UNK N   1      31.781  15.052   7.511  0.00  0.00     0.059 C 
HETATM   22  C   UNK N   1      32.233  14.120   6.676  0.00  0.00     0.042 C 
HETATM   23  N   UNK N   1      31.979  14.008   5.403  0.00  0.00    -0.257 N 
HETATM   24 Fe   UNK N   1      30.369  14.724   4.695  0.00  0.00     0.000 Fe
HETATM   25  N   UNK N   1      30.039  15.903   6.222  0.00  0.00    -0.248 N 
HETATM   26  N   UNK N   1      30.674  13.538   3.135  0.00  0.00    -0.248 N 
HETATM   27  C   UNK N   1      26.728  16.443   3.781  0.00  0.00    -0.021 A 
HETATM   28  C   UNK N   1      25.625  17.373   4.120  0.00  0.00     0.052 C 
HETATM   29  C   UNK N   1      26.887  15.624   2.677  0.00  0.00     0.000 A 
ENDROOT
BRANCH   1  30
HETATM   30  C   UNK N   1      34.039  14.015   7.792  0.00  0.00     0.021 C 
BRANCH  30  31
HETATM   31  C   UNK N   1      34.553  13.442   9.053  0.00  0.00     0.112 C 
BRANCH  31  32
HETATM   32  C   UNK N   1      35.649  14.440   9.097  0.00  0.00     0.258 C 
HETATM   33  O   UNK N   1      36.219  14.725   8.043  0.00  0.00    -0.265 OA
BRANCH  32  34
HETATM   34  O   UNK N   1      36.050  15.078  10.205  0.00  0.00    -0.326 OA
HETATM   35  C   UNK N   1      35.042  15.259  11.136  0.00  0.00     0.213 C 
ENDBRANCH  32  34
ENDBRANCH  31  32
ENDBRANCH  30  31
ENDBRANCH   1  30
BRANCH  19  36
HETATM   36  C   UNK N   1      31.871  18.164   8.404  0.00  0.00     0.051 C 
BRANCH  36  37
HETATM   37  C   UNK N   1      33.167  17.463   8.690  0.00  0.00     0.116 C 
BRANCH  37  38
HETATM   38  C   UNK N   1      34.241  18.040   7.811  0.00  0.00     0.258 C 
HETATM   39  O   UNK N   1      34.835  19.021   8.207  0.00  0.00    -0.265 OA
BRANCH  38  40
HETATM   40  O   UNK N   1      34.543  17.559   6.571  0.00  0.00    -0.326 OA
HETATM   41  C   UNK N   1      33.698  17.516   5.481  0.00  0.00     0.213 C 
ENDBRANCH  38  40
ENDBRANCH  37  38
ENDBRANCH  36  37
ENDBRANCH  19  36
BRANCH   7  42
HETATM   42  C   UNK N   1      32.624  11.281   0.990  0.00  0.00     0.004 C 
HETATM   43  C   UNK N   1      33.480  11.749   0.071  0.00  0.00     0.012 C 
ENDBRANCH   7  42
BRANCH  29  44
HETATM   44  C   UNK N   1      25.967  15.496   1.555  0.00  0.00     0.004 C 
HETATM   45  C   UNK N   1      24.943  14.640   1.593  0.00  0.00     0.012 C 
ENDBRANCH  29  44
TORSDOF 10
ENDMDL
MODEL 3
REMARK VINA RESULT:      -7.6     13.292     15.340
REMARK  10 active torsions:
REMARK  status: ('A' for Active; 'I' for Inactive)
REMARK    1  A    between atoms: O_2  and  C_3 
REMARK    2  A    between atoms: C_3  and  C_5 
REMARK    3  A    between atoms: C_5  and  C_6 
REMARK    4  A    between atoms: C_6  and  C_7 
REMARK    5  A    between atoms: C_13  and  C_14 
REMARK    6  A    between atoms: C_27  and  C_28 
REMARK    7  A    between atoms: C_28  and  C_29 
REMARK    8  A    between atoms: C_29  and  C_30 
REMARK    9  A    between atoms: C_30  and  O_32 
REMARK   10  A    between atoms: C_43  and  C_44 
ROOT
HETATM    1  C   UNK N   1      25.920  25.021  -5.844  0.00  0.00     0.048 C 
HETATM    2  C   UNK N   1      26.864  24.894  -4.848  0.00  0.00     0.043 C 
HETATM    3  C   UNK N   1      26.549  24.425  -3.431  0.00  0.00     0.017 C 
HETATM    4  C   UNK N   1      27.887  24.256  -5.427  0.00  0.00     0.041 C 
HETATM    5  C   UNK N   1      28.871  23.802  -4.709  0.00  0.00     0.060 C 
HETATM    6  C   UNK N   1      29.571  22.646  -5.147  0.00  0.00     0.070 A 
HETATM    7  C   UNK N   1      30.569  22.067  -4.421  0.00  0.00     0.000 A 
HETATM    8  C   UNK N   1      30.954  20.986  -5.161  0.00  0.00    -0.021 A 
HETATM    9  C   UNK N   1      31.820  19.882  -4.774  0.00  0.00     0.052 C 
HETATM   10  C   UNK N   1      30.257  21.005  -6.335  0.00  0.00     0.066 A 
HETATM   11  C   UNK N   1      30.439  20.089  -7.443  0.00  0.00     0.064 A 
HETATM   12  C   UNK N   1      29.812  20.171  -8.627  0.00  0.00     0.070 A 
HETATM   13  N   UNK N   1      28.925  21.114  -8.984  0.00  0.00    -0.248 N 
HETATM   14  C   UNK N   1      28.527  20.816 -10.265  0.00  0.00     0.066 A 
HETATM   15  C   UNK N   1      27.678  21.482 -11.058  0.00  0.00     0.064 C 
HETATM   16  C   UNK N   1      26.983  22.598 -10.585  0.00  0.00     0.066 C 
HETATM   17  C   UNK N   1      26.307  23.506 -11.362  0.00  0.00    -0.025 C 
HETATM   18  C   UNK N   1      25.917  23.314 -12.782  0.00  0.00     0.051 C 
HETATM   19  C   UNK N   1      26.055  24.558 -10.551  0.00  0.00    -0.021 C 
HETATM   20  C   UNK N   1      26.309  24.077  -9.288  0.00  0.00     0.066 C 
HETATM   21  C   UNK N   1      25.798  24.565  -8.115  0.00  0.00     0.059 C 
HETATM   22  C   UNK N   1      26.387  24.435  -6.930  0.00  0.00     0.042 C 
HETATM   23  N   UNK N   1      27.533  23.872  -6.673  0.00  0.00    -0.257 N 
HETATM   24 Fe   UNK N   1      28.201  22.521  -7.829  0.00  0.00     0.000 Fe
HETATM   25  N   UNK N   1      27.040  23.010  -9.326  0.00  0.00    -0.248 N 
HETATM   26  N   UNK N   1      29.389  21.999  -6.330  0.00  0.00    -0.248 N 
HETATM   27  C   UNK N   1      29.087  19.664 -10.674  0.00  0.00    -0.021 A 
HETATM   28  C   UNK N   1      28.886  19.091 -12.026  0.00  0.00     0.052 C 
HETATM   29  C   UNK N   1      29.926  19.250  -9.654  0.00  0.00     0.000 A 
ENDROOT
BRANCH   1  30
HETATM   30  C   UNK N   1      25.529  26.282  -6.318  0.00  0.00     0.021 C 
BRANCH  30  31
HETATM   31  C   UNK N   1      24.521  27.032  -5.543  0.00  0.00     0.112 C 
BRANCH  31  32
HETATM   32  C   UNK N   1      25.578  27.854  -4.903  0.00  0.00     0.258 C 
HETATM   33  O   UNK N   1      26.403  28.407  -5.631  0.00  0.00    -0.265 OA
BRANCH  32  34
HETATM   34  O   UNK N   1      25.683  28.061  -3.584  0.00  0.00    -0.326 OA
HETATM   35  C   UNK N   1      26.787  28.816  -3.227  0.00  0.00     0.213 C 
ENDBRANCH  32  34
ENDBRANCH  31  32
ENDBRANCH  30  31
ENDBRANCH   1  30
BRANCH  19  36
HETATM   36  C   UNK N   1      25.839  25.997 -11.021  0.00  0.00     0.051 C 
BRANCH  36  37
HETATM   37  C   UNK N   1      24.398  26.398 -11.156  0.00  0.00     0.116 C 
BRANCH  37  38
HETATM   38  C   UNK N   1      24.282  27.456 -12.218  0.00  0.00     0.258 C 
HETATM   39  O   UNK N   1      25.305  27.965 -12.629  0.00  0.00    -0.265 OA
BRANCH  38  40
HETATM   40  O   UNK N   1      23.093  27.916 -12.702  0.00  0.00    -0.326 OA
HETATM   41  C   UNK N   1      21.909  28.023 -12.000  0.00  0.00     0.213 C 
ENDBRANCH  38  40
ENDBRANCH  37  38
ENDBRANCH  36  37
ENDBRANCH  19  36
BRANCH   7  42
HETATM   42  C   UNK N   1      31.042  22.429  -3.077  0.00  0.00     0.004 C 
HETATM   43  C   UNK N   1      30.153  22.798  -2.143  0.00  0.00     0.012 C 
ENDBRANCH   7  42
BRANCH  29  44
HETATM   44  C   UNK N   1      30.838  18.115  -9.691  0.00  0.00     0.004 C 
HETATM   45  C   UNK N   1      32.067  18.230 -10.201  0.00  0.00     0.012 C 
ENDBRANCH  29  44
TORSDOF 10
ENDMDL
MODEL 4
REMARK VINA RESULT:      -7.4      2.406      7.128
REMARK  10 active torsions:
REMARK  status: ('A' for Active; 'I' for Inactive)
REMARK    1  A    between atoms: O_2  and  C_3 
REMARK    2  A    between atoms: C_3  and  C_5 
REMARK    3  A    between atoms: C_5  and  C_6 
REMARK    4  A    between atoms: C_6  and  C_7 
REMARK    5  A    between atoms: C_13  and  C_14 
REMARK    6  A    between atoms: C_27  and  C_28 
REMARK    7  A    between atoms: C_28  and  C_29 
REMARK    8  A    between atoms: C_29  and  C_30 
REMARK    9  A    between atoms: C_30  and  O_32 
REMARK   10  A    between atoms: C_43  and  C_44 
ROOT
HETATM    1  C   UNK N   1      28.067  17.664   6.469  0.00  0.00     0.048 C 
HETATM    2  C   UNK N   1      29.414  17.692   6.179  0.00  0.00     0.043 C 
HETATM    3  C   UNK N   1      30.511  17.397   7.198  0.00  0.00     0.017 C 
HETATM    4  C   UNK N   1      29.530  17.018   5.029  0.00  0.00     0.041 C 
HETATM    5  C   UNK N   1      30.702  16.689   4.575  0.00  0.00     0.060 C 
HETATM    6  C   UNK N   1      30.836  15.509   3.795  0.00  0.00     0.070 A 
HETATM    7  C   UNK N   1      32.038  15.058   3.338  0.00  0.00     0.000 A 
HETATM    8  C   UNK N   1      31.744  13.904   2.669  0.00  0.00    -0.021 A 
HETATM    9  C   UNK N   1      32.655  12.885   2.171  0.00  0.00     0.052 C 
HETATM   10  C   UNK N   1      30.387  13.753   2.660  0.00  0.00     0.066 A 
HETATM   11  C   UNK N   1      29.655  12.711   1.969  0.00  0.00     0.064 A 
HETATM   12  C   UNK N   1      28.317  12.623   1.893  0.00  0.00     0.070 A 
HETATM   13  N   UNK N   1      27.440  13.485   2.430  0.00  0.00    -0.248 N 
HETATM   14  C   UNK N   1      26.186  13.016   2.123  0.00  0.00     0.066 A 
HETATM   15  C   UNK N   1      24.993  13.550   2.415  0.00  0.00     0.064 C 
HETATM   16  C   UNK N   1      24.897  14.695   3.210  0.00  0.00     0.066 C 
HETATM   17  C   UNK N   1      23.777  15.477   3.352  0.00  0.00    -0.025 C 
HETATM   18  C   UNK N   1      22.397  15.095   2.962  0.00  0.00     0.051 C 
HETATM   19  C   UNK N   1      24.204  16.614   3.945  0.00  0.00    -0.021 C 
HETATM   20  C   UNK N   1      25.465  16.304   4.397  0.00  0.00     0.066 C 
HETATM   21  C   UNK N   1      26.135  16.921   5.420  0.00  0.00     0.059 C 
HETATM   22  C   UNK N   1      27.460  16.960   5.532  0.00  0.00     0.042 C 
HETATM   23  N   UNK N   1      28.339  16.469   4.705  0.00  0.00    -0.257 N 
HETATM   24 Fe   UNK N   1      27.871  15.004   3.590  0.00  0.00     0.000 Fe
HETATM   25  N   UNK N   1      25.942  15.265   3.794  0.00  0.00    -0.248 N 
HETATM   26  N   UNK N   1      29.820  14.713   3.367  0.00  0.00    -0.248 N 
HETATM   27  C   UNK N   1      26.272  11.839   1.478  0.00  0.00    -0.021 A 
HETATM   28  C   UNK N   1      25.092  11.094   0.976  0.00  0.00     0.052 C 
HETATM   29  C   UNK N   1      27.620  11.583   1.301  0.00  0.00     0.000 A 
ENDROOT
BRANCH   1  30
HETATM   30  C   UNK N   1      27.306  18.841   6.510  0.00  0.00     0.021 C 
BRANCH  30  31
HETATM   31  C   UNK N   1      27.955  20.101   6.091  0.00  0.00     0.112 C 
BRANCH  31  32
HETATM   32  C   UNK N   1      26.640  20.709   5.771  0.00  0.00     0.258 C 
HETATM   33  O   UNK N   1      26.249  21.647   6.467  0.00  0.00    -0.265 OA
BRANCH  32  34
HETATM   34  O   UNK N   1      25.854  20.326   4.757  0.00  0.00    -0.326 OA
HETATM   35  C   UNK N   1      26.465  20.412   3.517  0.00  0.00     0.213 C 
ENDBRANCH  32  34
ENDBRANCH  31  32
ENDBRANCH  30  31
ENDBRANCH   1  30
BRANCH  19  36
HETATM   36  C   UNK N   1      23.516  17.975   3.832  0.00  0.00     0.051 C 
BRANCH  36  37
HETATM   37  C   UNK N   1      22.545  18.276   4.937  0.00  0.00     0.116 C 
BRANCH  37  38
HETATM   38  C   UNK N   1      21.231  18.688   4.336  0.00  0.00     0.258 C 
HETATM   39  O   UNK N   1      20.897  19.851   4.439  0.00  0.00    -0.265 OA
BRANCH  38  40
HETATM   40  O   UNK N   1      20.367  17.819   3.737  0.00  0.00    -0.326 OA
HETATM   41  C   UNK N   1      19.854  17.923   2.460  0.00  0.00     0.213 C 
ENDBRANCH  38  40
ENDBRANCH  37  38
ENDBRANCH  36  37
ENDBRANCH  19  36
BRANCH   7  42
HETATM   42  C   UNK N   1      33.377  15.601   3.612  0.00  0.00     0.004 C 
HETATM   43  C   UNK N   1      34.036  15.204   4.710  0.00  0.00     0.012 C 
ENDBRANCH   7  42
BRANCH  29  44
HETATM   44  C   UNK N   1      28.200  10.482   0.546  0.00  0.00     0.004 C 
HETATM   45  C   UNK N   1      28.486   9.316   1.130  0.00  0.00     0.012 C 
ENDBRANCH  29  44
TORSDOF 10
ENDMDL
MODEL 5
REMARK VINA RESULT:      -7.3     12.086     15.272
REMARK  10 active torsions:
REMARK  status: ('A' for Active; 'I' for Inactive)
REMARK    1  A    between atoms: O_2  and  C_3 
REMARK    2  A    between atoms: C_3  and  C_5 
REMARK    3  A    between atoms: C_5  and  C_6 
REMARK    4  A    between atoms: C_6  and  C_7 
REMARK    5  A    between atoms: C_13  and  C_14 
REMARK    6  A    between atoms: C_27  and  C_28 
REMARK    7  A    between atoms: C_28  and  C_29 
REMARK    8  A    between atoms: C_29  and  C_30 
REMARK    9  A    between atoms: C_30  and  O_32 
REMARK   10  A    between atoms: C_43  and  C_44 
ROOT
HETATM    1  C   UNK N   1      28.355  21.514  -7.731  0.00  0.00     0.048 C 
HETATM    2  C   UNK N   1      29.215  20.529  -7.298  0.00  0.00     0.043 C 
HETATM    3  C   UNK N   1      29.868  19.502  -8.219  0.00  0.00     0.017 C 
HETATM    4  C   UNK N   1      30.066  21.155  -6.476  0.00  0.00     0.041 C 
HETATM    5  C   UNK N   1      31.131  20.548  -6.045  0.00  0.00     0.060 C 
HETATM    6  C   UNK N   1      32.292  21.313  -5.750  0.00  0.00     0.070 A 
HETATM    7  C   UNK N   1      33.469  20.749  -5.358  0.00  0.00     0.000 A 
HETATM    8  C   UNK N   1      34.324  21.801  -5.205  0.00  0.00    -0.021 A 
HETATM    9  C   UNK N   1      35.768  21.780  -5.020  0.00  0.00     0.052 C 
HETATM   10  C   UNK N   1      33.621  22.953  -5.409  0.00  0.00     0.066 A 
HETATM   11  C   UNK N   1      34.132  24.299  -5.245  0.00  0.00     0.064 A 
HETATM   12  C   UNK N   1      33.407  25.423  -5.362  0.00  0.00     0.070 A 
HETATM   13  N   UNK N   1      32.095  25.489  -5.638  0.00  0.00    -0.248 N 
HETATM   14  C   UNK N   1      31.764  26.821  -5.674  0.00  0.00     0.066 A 
HETATM   15  C   UNK N   1      30.568  27.387  -5.882  0.00  0.00     0.064 C 
HETATM   16  C   UNK N   1      29.454  26.606  -6.199  0.00  0.00     0.066 C 
HETATM   17  C   UNK N   1      28.148  27.029  -6.169  0.00  0.00    -0.025 C 
HETATM   18  C   UNK N   1      27.694  28.441  -6.110  0.00  0.00     0.051 C 
HETATM   19  C   UNK N   1      27.403  25.904  -6.243  0.00  0.00    -0.021 C 
HETATM   20  C   UNK N   1      28.297  24.933  -6.629  0.00  0.00     0.066 C 
HETATM   21  C   UNK N   1      27.996  23.758  -7.264  0.00  0.00     0.059 C 
HETATM   22  C   UNK N   1      28.741  22.658  -7.200  0.00  0.00     0.042 C 
HETATM   23  N   UNK N   1      29.839  22.486  -6.520  0.00  0.00    -0.257 N 
HETATM   24 Fe   UNK N   1      30.930  23.980  -6.091  0.00  0.00     0.000 Fe
HETATM   25  N   UNK N   1      29.517  25.298  -6.405  0.00  0.00    -0.248 N 
HETATM   26  N   UNK N   1      32.382  22.670  -5.769  0.00  0.00    -0.248 N 
HETATM   27  C   UNK N   1      32.862  27.581  -5.507  0.00  0.00    -0.021 A 
HETATM   28  C   UNK N   1      32.833  29.062  -5.458  0.00  0.00     0.052 C 
HETATM   29  C   UNK N   1      33.914  26.709  -5.284  0.00  0.00     0.000 A 
ENDROOT
BRANCH   1  30
HETATM   30  C   UNK N   1      26.989  21.475  -7.419  0.00  0.00     0.021 C 
BRANCH  30  31
HETATM   31  C   UNK N   1      26.046  21.070  -8.481  0.00  0.00     0.112 C 
BRANCH  31  32
HETATM   32  C   UNK N   1      24.981  21.928  -7.907  0.00  0.00     0.258 C 
HETATM   33  O   UNK N   1      24.695  21.784  -6.718  0.00  0.00    -0.265 OA
BRANCH  32  34
HETATM   34  O   UNK N   1      24.320  22.874  -8.588  0.00  0.00    -0.326 OA
HETATM   35  C   UNK N   1      25.114  23.946  -8.961  0.00  0.00     0.213 C 
ENDBRANCH  32  34
ENDBRANCH  31  32
ENDBRANCH  30  31
ENDBRANCH   1  30
BRANCH  19  36
HETATM   36  C   UNK N   1      25.976  25.759  -5.711  0.00  0.00     0.051 C 
BRANCH  36  37
HETATM   37  C   UNK N   1      25.772  24.599  -4.781  0.00  0.00     0.116 C 
BRANCH  37  38
HETATM   38  C   UNK N   1      26.418  24.911  -3.460  0.00  0.00     0.258 C 
HETATM   39  O   UNK N   1      26.322  26.043  -3.033  0.00  0.00    -0.265 OA
BRANCH  38  40
HETATM   40  O   UNK N   1      27.154  24.012  -2.746  0.00  0.00    -0.326 OA
HETATM   41  C   UNK N   1      28.453  23.625  -3.008  0.00  0.00     0.213 C 
ENDBRANCH  38  40
ENDBRANCH  37  38
ENDBRANCH  36  37
ENDBRANCH  19  36
BRANCH   7  42
HETATM   42  C   UNK N   1      33.802  19.320  -5.254  0.00  0.00     0.004 C 
HETATM   43  C   UNK N   1      33.951  18.765  -4.043  0.00  0.00     0.012 C 
ENDBRANCH   7  42
BRANCH  29  44
HETATM   44  C   UNK N   1      35.279  27.073  -4.931  0.00  0.00     0.004 C 
HETATM   45  C   UNK N   1      36.175  27.393  -5.868  0.00  0.00     0.012 C 
ENDBRANCH  29  44
TORSDOF 10
ENDMDL
MODEL 6
REMARK VINA RESULT:      -7.0      3.788      5.758
REMARK  10 active torsions:
REMARK  status: ('A' for Active; 'I' for Inactive)
REMARK    1  A    between atoms: O_2  and  C_3 
REMARK    2  A    between atoms: C_3  and  C_5 
REMARK    3  A    between atoms: C_5  and  C_6 
REMARK    4  A    between atoms: C_6  and  C_7 
REMARK    5  A    between atoms: C_13  and  C_14 
REMARK    6  A    between atoms: C_27  and  C_28 
REMARK    7  A    between atoms: C_28  and  C_29 
REMARK    8  A    between atoms: C_29  and  C_30 
REMARK    9  A    between atoms: C_30  and  O_32 
REMARK   10  A    between atoms: C_43  and  C_44 
ROOT
HETATM    1  C   UNK N   1      31.743  17.118   6.211  0.00  0.00     0.048 C 
HETATM    2  C   UNK N   1      30.414  16.926   6.520  0.00  0.00     0.043 C 
HETATM    3  C   UNK N   1      29.351  18.017   6.426  0.00  0.00     0.017 C 
HETATM    4  C   UNK N   1      30.085  15.780   5.913  0.00  0.00     0.041 C 
HETATM    5  C   UNK N   1      28.842  15.407   5.840  0.00  0.00     0.060 C 
HETATM    6  C   UNK N   1      28.418  14.625   4.733  0.00  0.00     0.070 A 
HETATM    7  C   UNK N   1      27.121  14.249   4.547  0.00  0.00     0.000 A 
HETATM    8  C   UNK N   1      27.127  13.548   3.375  0.00  0.00    -0.021 A 
HETATM    9  C   UNK N   1      25.996  13.104   2.575  0.00  0.00     0.052 C 
HETATM   10  C   UNK N   1      28.421  13.440   2.952  0.00  0.00     0.066 A 
HETATM   11  C   UNK N   1      28.876  12.686   1.802  0.00  0.00     0.064 A 
HETATM   12  C   UNK N   1      30.159  12.513   1.447  0.00  0.00     0.070 A 
HETATM   13  N   UNK N   1      31.229  12.996   2.099  0.00  0.00    -0.248 N 
HETATM   14  C   UNK N   1      32.337  12.595   1.393  0.00  0.00     0.066 A 
HETATM   15  C   UNK N   1      33.631  12.807   1.666  0.00  0.00     0.064 C 
HETATM   16  C   UNK N   1      34.012  13.606   2.747  0.00  0.00     0.066 C 
HETATM   17  C   UNK N   1      35.275  13.677   3.281  0.00  0.00    -0.025 C 
HETATM   18  C   UNK N   1      36.519  13.184   2.638  0.00  0.00     0.051 C 
HETATM   19  C   UNK N   1      35.130  14.312   4.466  0.00  0.00    -0.021 C 
HETATM   20  C   UNK N   1      33.866  14.850   4.407  0.00  0.00     0.066 C 
HETATM   21  C   UNK N   1      33.407  15.925   5.119  0.00  0.00     0.059 C 
HETATM   22  C   UNK N   1      32.129  16.133   5.423  0.00  0.00     0.042 C 
HETATM   23  N   UNK N   1      31.114  15.365   5.142  0.00  0.00    -0.257 N 
HETATM   24 Fe   UNK N   1      31.196  14.202   3.643  0.00  0.00     0.000 Fe
HETATM   25  N   UNK N   1      33.147  14.270   3.501  0.00  0.00    -0.248 N 
HETATM   26  N   UNK N   1      29.219  14.116   3.759  0.00  0.00    -0.248 N 
HETATM   27  C   UNK N   1      31.969  11.943   0.275  0.00  0.00    -0.021 A 
HETATM   28  C   UNK N   1      32.935  11.349  -0.680  0.00  0.00     0.052 C 
HETATM   29  C   UNK N   1      30.588  11.861   0.303  0.00  0.00     0.000 A 
ENDROOT
BRANCH   1  30
HETATM   30  C   UNK N   1      32.729  17.119   7.208  0.00  0.00     0.021 C 
BRANCH  30  31
HETATM   31  C   UNK N   1      32.777  18.267   8.136  0.00  0.00     0.112 C 
BRANCH  31  32
HETATM   32  C   UNK N   1      34.231  18.072   8.354  0.00  0.00     0.258 C 
HETATM   33  O   UNK N   1      34.967  19.056   8.274  0.00  0.00    -0.265 OA
BRANCH  32  34
HETATM   34  O   UNK N   1      34.801  16.899   8.660  0.00  0.00    -0.326 OA
HETATM   35  C   UNK N   1      35.088  16.756  10.007  0.00  0.00     0.213 C 
ENDBRANCH  32  34
ENDBRANCH  31  32
ENDBRANCH  30  31
ENDBRANCH   1  30
BRANCH  19  36
HETATM   36  C   UNK N   1      36.072  14.166   5.661  0.00  0.00     0.051 C 
BRANCH  36  37
HETATM   37  C   UNK N   1      35.758  13.009   6.564  0.00  0.00     0.116 C 
BRANCH  37  38
HETATM   38  C   UNK N   1      35.654  13.505   7.979  0.00  0.00     0.258 C 
HETATM   39  O   UNK N   1      36.637  14.016   8.477  0.00  0.00    -0.265 OA
BRANCH  38  40
HETATM   40  O   UNK N   1      34.541  13.359   8.753  0.00  0.00    -0.326 OA
HETATM   41  C   UNK N   1      33.246  13.674   8.394  0.00  0.00     0.213 C 
ENDBRANCH  38  40
ENDBRANCH  37  38
ENDBRANCH  36  37
ENDBRANCH  19  36
BRANCH   7  42
HETATM   42  C   UNK N   1      25.943  14.625   5.343  0.00  0.00     0.004 C 
HETATM   43  C   UNK N   1      25.508  13.800   6.305  0.00  0.00     0.012 C 
ENDBRANCH   7  42
BRANCH  29  44
HETATM   44  C   UNK N   1      29.746  11.136  -0.638  0.00  0.00     0.004 C 
HETATM   45  C   UNK N   1      29.512   9.829  -0.495  0.00  0.00     0.012 C 
ENDBRANCH  29  44
TORSDOF 10
ENDMDL
MODEL 7
REMARK VINA RESULT:      -7.0      2.493      5.904
REMARK  10 active torsions:
REMARK  status: ('A' for Active; 'I' for Inactive)
REMARK    1  A    between atoms: O_2  and  C_3 
REMARK    2  A    between atoms: C_3  and  C_5 
REMARK    3  A    between atoms: C_5  and  C_6 
REMARK    4  A    between atoms: C_6  and  C_7 
REMARK    5  A    between atoms: C_13  and  C_14 
REMARK    6  A    between atoms: C_27  and  C_28 
REMARK    7  A    between atoms: C_28  and  C_29 
REMARK    8  A    between atoms: C_29  and  C_30 
REMARK    9  A    between atoms: C_30  and  O_32 
REMARK   10  A    between atoms: C_43  and  C_44 
ROOT
HETATM    1  C   UNK N   1      26.395  16.125   2.718  0.00  0.00     0.048 C 
HETATM    2  C   UNK N   1      25.745  14.955   2.395  0.00  0.00     0.043 C 
HETATM    3  C   UNK N   1      24.812  14.800   1.198  0.00  0.00     0.017 C 
HETATM    4  C   UNK N   1      26.683  14.005   2.492  0.00  0.00     0.041 C 
HETATM    5  C   UNK N   1      26.448  12.802   2.060  0.00  0.00     0.060 C 
HETATM    6  C   UNK N   1      27.528  12.020   1.570  0.00  0.00     0.070 A 
HETATM    7  C   UNK N   1      27.358  10.776   1.039  0.00  0.00     0.000 A 
HETATM    8  C   UNK N   1      28.611  10.383   0.666  0.00  0.00    -0.021 A 
HETATM    9  C   UNK N   1      29.002   9.247  -0.154  0.00  0.00     0.052 C 
HETATM   10  C   UNK N   1      29.494  11.344   1.068  0.00  0.00     0.066 A 
HETATM   11  C   UNK N   1      30.937  11.271   0.955  0.00  0.00     0.064 A 
HETATM   12  C   UNK N   1      31.800  12.181   1.434  0.00  0.00     0.070 A 
HETATM   13  N   UNK N   1      31.474  13.298   2.103  0.00  0.00    -0.248 N 
HETATM   14  C   UNK N   1      32.652  13.940   2.397  0.00  0.00     0.066 A 
HETATM   15  C   UNK N   1      32.844  15.078   3.078  0.00  0.00     0.064 C 
HETATM   16  C   UNK N   1      31.758  15.838   3.520  0.00  0.00     0.066 C 
HETATM   17  C   UNK N   1      31.818  16.855   4.441  0.00  0.00    -0.025 C 
HETATM   18  C   UNK N   1      33.052  17.545   4.893  0.00  0.00     0.051 C 
HETATM   19  C   UNK N   1      30.535  17.097   4.794  0.00  0.00    -0.021 C 
HETATM   20  C   UNK N   1      29.794  16.442   3.840  0.00  0.00     0.066 C 
HETATM   21  C   UNK N   1      28.505  16.725   3.476  0.00  0.00     0.059 C 
HETATM   22  C   UNK N   1      27.664  15.842   2.945  0.00  0.00     0.042 C 
HETATM   23  N   UNK N   1      27.886  14.580   2.712  0.00  0.00    -0.257 N 
HETATM   24 Fe   UNK N   1      29.661  13.971   2.422  0.00  0.00     0.000 Fe
HETATM   25  N   UNK N   1      30.498  15.547   3.225  0.00  0.00    -0.248 N 
HETATM   26  N   UNK N   1      28.844  12.363   1.599  0.00  0.00    -0.248 N 
HETATM   27  C   UNK N   1      33.692  13.284   1.851  0.00  0.00    -0.021 A 
HETATM   28  C   UNK N   1      35.104  13.703   2.021  0.00  0.00     0.052 C 
HETATM   29  C   UNK N   1      33.172  12.149   1.254  0.00  0.00     0.000 A 
ENDROOT
BRANCH   1  30
HETATM   30  C   UNK N   1      26.038  16.867   3.854  0.00  0.00     0.021 C 
BRANCH  30  31
HETATM   31  C   UNK N   1      24.650  17.362   3.950  0.00  0.00     0.112 C 
BRANCH  31  32
HETATM   32  C   UNK N   1      25.123  18.765   4.041  0.00  0.00     0.258 C 
HETATM   33  O   UNK N   1      26.094  19.006   4.760  0.00  0.00    -0.265 OA
BRANCH  32  34
HETATM   34  O   UNK N   1      24.582  19.793   3.373  0.00  0.00    -0.326 OA
HETATM   35  C   UNK N   1      25.510  20.559   2.688  0.00  0.00     0.213 C 
ENDBRANCH  32  34
ENDBRANCH  31  32
ENDBRANCH  30  31
ENDBRANCH   1  30
BRANCH  19  36
HETATM   36  C   UNK N   1      30.091  17.708   6.124  0.00  0.00     0.051 C 
BRANCH  36  37
HETATM   37  C   UNK N   1      30.461  16.900   7.334  0.00  0.00     0.116 C 
BRANCH  37  38
HETATM   38  C   UNK N   1      31.175  17.787   8.316  0.00  0.00     0.258 C 
HETATM   39  O   UNK N   1      32.389  17.761   8.329  0.00  0.00    -0.265 OA
BRANCH  38  40
HETATM   40  O   UNK N   1      30.537  18.572   9.230  0.00  0.00    -0.326 OA
HETATM   41  C   UNK N   1      29.312  18.320   9.814  0.00  0.00     0.213 C 
ENDBRANCH  38  40
ENDBRANCH  37  38
ENDBRANCH  36  37
ENDBRANCH  19  36
BRANCH   7  42
HETATM   42  C   UNK N   1      26.099  10.060   0.786  0.00  0.00     0.004 C 
HETATM   43  C   UNK N   1      25.689   9.123   1.653  0.00  0.00     0.012 C 
ENDBRANCH   7  42
BRANCH  29  44
HETATM   44  C   UNK N   1      33.932  11.070   0.640  0.00  0.00     0.004 C 
HETATM   45  C   UNK N   1      34.563  11.241  -0.524  0.00  0.00     0.012 C 
ENDBRANCH  29  44
TORSDOF 10
ENDMDL
MODEL 8
REMARK VINA RESULT:      -7.0     12.529     15.717
REMARK  10 active torsions:
REMARK  status: ('A' for Active; 'I' for Inactive)
REMARK    1  A    between atoms: O_2  and  C_3 
REMARK    2  A    between atoms: C_3  and  C_5 
REMARK    3  A    between atoms: C_5  and  C_6 
REMARK    4  A    between atoms: C_6  and  C_7 
REMARK    5  A    between atoms: C_13  and  C_14 
REMARK    6  A    between atoms: C_27  and  C_28 
REMARK    7  A    between atoms: C_28  and  C_29 
REMARK    8  A    between atoms: C_29  and  C_30 
REMARK    9  A    between atoms: C_30  and  O_32 
REMARK   10  A    between atoms: C_43  and  C_44 
ROOT
HETATM    1  C   UNK N   1      27.746  23.674  -7.261  0.00  0.00     0.048 C 
HETATM    2  C   UNK N   1      28.346  22.543  -6.754  0.00  0.00     0.043 C 
HETATM    3  C   UNK N   1      28.673  21.306  -7.585  0.00  0.00     0.017 C 
HETATM    4  C   UNK N   1      29.364  22.998  -6.015  0.00  0.00     0.041 C 
HETATM    5  C   UNK N   1      30.259  22.177  -5.551  0.00  0.00     0.060 C 
HETATM    6  C   UNK N   1      31.588  22.640  -5.356  0.00  0.00     0.070 A 
HETATM    7  C   UNK N   1      32.599  21.828  -4.937  0.00  0.00     0.000 A 
HETATM    8  C   UNK N   1      33.701  22.634  -4.905  0.00  0.00    -0.021 A 
HETATM    9  C   UNK N   1      35.098  22.258  -4.750  0.00  0.00     0.052 C 
HETATM   10  C   UNK N   1      33.305  23.906  -5.205  0.00  0.00     0.066 A 
HETATM   11  C   UNK N   1      34.149  25.083  -5.183  0.00  0.00     0.064 A 
HETATM   12  C   UNK N   1      33.730  26.341  -5.392  0.00  0.00     0.070 A 
HETATM   13  N   UNK N   1      32.467  26.718  -5.645  0.00  0.00    -0.248 N 
HETATM   14  C   UNK N   1      32.486  28.083  -5.803  0.00  0.00     0.066 A 
HETATM   15  C   UNK N   1      31.465  28.917  -6.039  0.00  0.00     0.064 C 
HETATM   16  C   UNK N   1      30.175  28.426  -6.255  0.00  0.00     0.066 C 
HETATM   17  C   UNK N   1      29.023  29.172  -6.237  0.00  0.00    -0.025 C 
HETATM   18  C   UNK N   1      28.946  30.653  -6.306  0.00  0.00     0.051 C 
HETATM   19  C   UNK N   1      28.013  28.275  -6.186  0.00  0.00    -0.021 C 
HETATM   20  C   UNK N   1      28.611  27.076  -6.495  0.00  0.00     0.066 C 
HETATM   21  C   UNK N   1      27.992  25.968  -7.007  0.00  0.00     0.059 C 
HETATM   22  C   UNK N   1      28.435  24.723  -6.853  0.00  0.00     0.042 C 
HETATM   23  N   UNK N   1      29.482  24.334  -6.183  0.00  0.00    -0.257 N 
HETATM   24 Fe   UNK N   1      30.937  25.527  -5.925  0.00  0.00     0.000 Fe
HETATM   25  N   UNK N   1      29.893  27.132  -6.334  0.00  0.00    -0.248 N 
HETATM   26  N   UNK N   1      32.020  23.920  -5.509  0.00  0.00    -0.248 N 
HETATM   27  C   UNK N   1      33.747  28.545  -5.734  0.00  0.00    -0.021 A 
HETATM   28  C   UNK N   1      34.098  29.982  -5.828  0.00  0.00     0.052 C 
HETATM   29  C   UNK N   1      34.551  27.455  -5.451  0.00  0.00     0.000 A 
ENDROOT
BRANCH   1  30
HETATM   30  C   UNK N   1      26.431  24.017  -6.918  0.00  0.00     0.021 C 
BRANCH  30  31
HETATM   31  C   UNK N   1      25.720  23.158  -5.949  0.00  0.00     0.112 C 
BRANCH  31  32
HETATM   32  C   UNK N   1      25.554  24.295  -5.012  0.00  0.00     0.258 C 
HETATM   33  O   UNK N   1      25.015  25.320  -5.432  0.00  0.00    -0.265 OA
BRANCH  32  34
HETATM   34  O   UNK N   1      25.926  24.279  -3.725  0.00  0.00    -0.326 OA
HETATM   35  C   UNK N   1      27.104  24.963  -3.479  0.00  0.00     0.213 C 
ENDBRANCH  32  34
ENDBRANCH  31  32
ENDBRANCH  30  31
ENDBRANCH   1  30
BRANCH  19  36
HETATM   36  C   UNK N   1      26.622  28.551  -5.612  0.00  0.00     0.051 C 
BRANCH  36  37
HETATM   37  C   UNK N   1      26.603  29.511  -4.459  0.00  0.00     0.116 C 
BRANCH  37  38
HETATM   38  C   UNK N   1      26.466  28.736  -3.178  0.00  0.00     0.258 C 
HETATM   39  O   UNK N   1      25.487  28.030  -3.041  0.00  0.00    -0.265 OA
BRANCH  38  40
HETATM   40  O   UNK N   1      27.346  28.827  -2.140  0.00  0.00    -0.326 OA
HETATM   41  C   UNK N   1      28.497  29.587  -2.106  0.00  0.00     0.213 C 
ENDBRANCH  38  40
ENDBRANCH  37  38
ENDBRANCH  36  37
ENDBRANCH  19  36
BRANCH   7  42
HETATM   42  C   UNK N   1      32.561  20.377  -4.702  0.00  0.00     0.004 C 
HETATM   43  C   UNK N   1      32.853  19.540  -5.707  0.00  0.00     0.012 C 
ENDBRANCH   7  42
BRANCH  29  44
HETATM   44  C   UNK N   1      35.978  27.484  -5.164  0.00  0.00     0.004 C 
HETATM   45  C   UNK N   1      36.880  27.580  -6.145  0.00  0.00     0.012 C 
ENDBRANCH  29  44
TORSDOF 10
ENDMDL
MODEL 9
REMARK VINA RESULT:      -6.9      4.746      7.975
REMARK  10 active torsions:
REMARK  status: ('A' for Active; 'I' for Inactive)
REMARK    1  A    between atoms: O_2  and  C_3 
REMARK    2  A    between atoms: C_3  and  C_5 
REMARK    3  A    between atoms: C_5  and  C_6 
REMARK    4  A    between atoms: C_6  and  C_7 
REMARK    5  A    between atoms: C_13  and  C_14 
REMARK    6  A    between atoms: C_27  and  C_28 
REMARK    7  A    between atoms: C_28  and  C_29 
REMARK    8  A    between atoms: C_29  and  C_30 
REMARK    9  A    between atoms: C_30  and  O_32 
REMARK   10  A    between atoms: C_43  and  C_44 
ROOT
HETATM    1  C   UNK N   1      34.747  16.260   8.556  0.00  0.00     0.048 C 
HETATM    2  C   UNK N   1      33.699  17.139   8.717  0.00  0.00     0.043 C 
HETATM    3  C   UNK N   1      33.738  18.601   8.283  0.00  0.00     0.017 C 
HETATM    4  C   UNK N   1      32.621  16.467   8.297  0.00  0.00     0.041 C 
HETATM    5  C   UNK N   1      31.486  17.078   8.132  0.00  0.00     0.060 C 
HETATM    6  C   UNK N   1      30.582  16.605   7.144  0.00  0.00     0.070 A 
HETATM    7  C   UNK N   1      29.403  17.228   6.862  0.00  0.00     0.000 A 
HETATM    8  C   UNK N   1      28.853  16.490   5.854  0.00  0.00    -0.021 A 
HETATM    9  C   UNK N   1      27.713  16.813   5.009  0.00  0.00     0.052 C 
HETATM   10  C   UNK N   1      29.656  15.409   5.632  0.00  0.00     0.066 A 
HETATM   11  C   UNK N   1      29.382  14.323   4.713  0.00  0.00     0.064 A 
HETATM   12  C   UNK N   1      30.134  13.221   4.568  0.00  0.00     0.070 A 
HETATM   13  N   UNK N   1      31.253  12.936   5.253  0.00  0.00    -0.248 N 
HETATM   14  C   UNK N   1      31.704  11.725   4.787  0.00  0.00     0.066 A 
HETATM   15  C   UNK N   1      32.767  11.014   5.183  0.00  0.00     0.064 C 
HETATM   16  C   UNK N   1      33.653  11.523   6.136  0.00  0.00     0.066 C 
HETATM   17  C   UNK N   1      34.605  10.798   6.810  0.00  0.00    -0.025 C 
HETATM   18  C   UNK N   1      35.088   9.444   6.439  0.00  0.00     0.051 C 
HETATM   19  C   UNK N   1      35.012  11.592   7.825  0.00  0.00    -0.021 C 
HETATM   20  C   UNK N   1      34.517  12.833   7.501  0.00  0.00     0.066 C 
HETATM   21  C   UNK N   1      35.000  14.039   7.934  0.00  0.00     0.059 C 
HETATM   22  C   UNK N   1      34.273  15.149   8.023  0.00  0.00     0.042 C 
HETATM   23  N   UNK N   1      33.005  15.288   7.759  0.00  0.00    -0.257 N 
HETATM   24 Fe   UNK N   1      32.162  14.114   6.527  0.00  0.00     0.000 Fe
HETATM   25  N   UNK N   1      33.561  12.749   6.633  0.00  0.00    -0.248 N 
HETATM   26  N   UNK N   1      30.731  15.479   6.396  0.00  0.00    -0.248 N 
HETATM   27  C   UNK N   1      30.932  11.297   3.772  0.00  0.00    -0.021 A 
HETATM   28  C   UNK N   1      31.136  10.002   3.079  0.00  0.00     0.052 C 
HETATM   29  C   UNK N   1      29.915  12.224   3.632  0.00  0.00     0.000 A 
ENDROOT
BRANCH   1  30
HETATM   30  C   UNK N   1      35.476  15.787   9.656  0.00  0.00     0.021 C 
BRANCH  30  31
HETATM   31  C   UNK N   1      35.360  16.522  10.932  0.00  0.00     0.112 C 
BRANCH  31  32
HETATM   32  C   UNK N   1      35.255  15.252  11.691  0.00  0.00     0.258 C 
HETATM   33  O   UNK N   1      34.227  14.585  11.568  0.00  0.00    -0.265 OA
BRANCH  32  34
HETATM   34  O   UNK N   1      36.215  14.761  12.486  0.00  0.00    -0.326 OA
HETATM   35  C   UNK N   1      35.740  13.915  13.474  0.00  0.00     0.213 C 
ENDBRANCH  32  34
ENDBRANCH  31  32
ENDBRANCH  30  31
ENDBRANCH   1  30
BRANCH  19  36
HETATM   36  C   UNK N   1      35.614  11.096   9.141  0.00  0.00     0.051 C 
BRANCH  36  37
HETATM   37  C   UNK N   1      37.115  11.119   9.187  0.00  0.00     0.116 C 
BRANCH  37  38
HETATM   38  C   UNK N   1      37.557  12.070  10.263  0.00  0.00     0.258 C 
HETATM   39  O   UNK N   1      37.531  11.681  11.413  0.00  0.00    -0.265 OA
BRANCH  38  40
HETATM   40  O   UNK N   1      37.928  13.361  10.028  0.00  0.00    -0.326 OA
HETATM   41  C   UNK N   1      38.641  13.824   8.940  0.00  0.00     0.213 C 
ENDBRANCH  38  40
ENDBRANCH  37  38
ENDBRANCH  36  37
ENDBRANCH  19  36
BRANCH   7  42
HETATM   42  C   UNK N   1      28.888  18.491   7.412  0.00  0.00     0.004 C 
HETATM   43  C   UNK N   1      28.146  18.469   8.528  0.00  0.00     0.012 C 
ENDBRANCH   7  42
BRANCH  29  44
HETATM   44  C   UNK N   1      28.768  12.122   2.741  0.00  0.00     0.004 C 
HETATM   45  C   UNK N   1      28.854  12.481   1.458  0.00  0.00     0.012 C 
ENDBRANCH  29  44
TORSDOF 10
ENDMDL
