REMARK  6 active torsions:
REMARK  status: ('A' for Active; 'I' for Inactive)
REMARK    1  A    between atoms: S_2  and  C_3 
REMARK    2  A    between atoms: C_3  and  C_4 
REMARK    3  A    between atoms: C_4  and  C_5 
REMARK    4  A    between atoms: C_5  and  N_6 
REMARK    5  A    between atoms: C_5  and  P_7 
REMARK    6  A    between atoms: P_7  and  O_8 
ROOT
HETATM    1  C   UNK N   1       4.973   2.275   0.212  0.00  0.00     0.156 C 
ENDROOT
BRANCH   1   2
HETATM    2  C   UNK N   1       3.546   2.158  -0.288  0.00  0.00     0.044 C 
BRANCH   2   3
HETATM    3  C   UNK N   1       2.792   1.062   0.443  0.00  0.00     0.076 C 
BRANCH   3   4
HETATM    4  S   UNK N   1       1.187   0.792  -0.363  0.00  0.00    -0.173 SA
HETATM    5  C   UNK N   1       0.494   2.350   0.264  0.00  0.00     0.089 C 
ENDBRANCH   3   4
ENDBRANCH   2   3
ENDBRANCH   1   2
BRANCH   1   6
HETATM    6  N   UNK N   1       5.451   3.619  -0.064  0.00  0.00    -0.419 N 
HETATM    7  H   UNK N   1       6.436   3.800  -0.258  0.00  0.00     0.150 HD
HETATM    8  H   UNK N   1       4.790   4.396  -0.064  0.00  0.00     0.150 HD
ENDBRANCH   1   6
BRANCH   1   9
HETATM    9  P   UNK N   1       6.061   1.049  -0.678  0.00  0.00     0.111 P 
HETATM   10  O   UNK N   1       5.615  -0.163   0.184  0.00  0.00    -0.674 OA
HETATM   11  H   UNK N   1       6.288   1.914   0.373  0.00  0.00     0.122 HD
BRANCH   9  12
HETATM   12  O   UNK N   1       7.461   1.388   0.290  0.00  0.00    -0.350 OA
HETATM   13  H   UNK N   1       8.016   0.805   0.832  0.00  0.00     0.217 HD
ENDBRANCH   9  12
ENDBRANCH   1   9
TORSDOF 6
