REMARK  14 active torsions:
REMARK  status: ('A' for Active; 'I' for Inactive)
REMARK    1  A    between atoms: C_1  and  O_9 
REMARK    2  A    between atoms: C_2  and  O_10 
REMARK    3  A    between atoms: C_3  and  N_6 
REMARK    4  A    between atoms: C_5  and  C_7 
REMARK    5  A    between atoms: C_7  and  O_8 
REMARK    6  A    between atoms: O_8  and  P_19 
REMARK    7  A    between atoms: C_13  and  N_18 
REMARK    8  A    between atoms: P_19  and  O_20 
REMARK    9  A    between atoms: P_19  and  O_24 
REMARK   10  A    between atoms: O_20  and  P_21 
REMARK   11  A    between atoms: P_21  and  O_22 
REMARK   12  A    between atoms: O_22  and  C_27 
REMARK   13  A    between atoms: C_27  and  C_28 
REMARK   14  A    between atoms: C_28  and  N_29 
ROOT
HETATM    1  C   UNK N   1      16.885  -8.962  -0.365  0.00  0.00     0.182 C 
HETATM    2  C   UNK N   1      18.310  -9.031  -0.826  0.00  0.00     0.198 C 
HETATM    3  C   UNK N   1      18.943  -8.041   0.141  0.00  0.00     0.263 C 
HETATM    4  O   UNK N   1      18.275  -8.142   1.381  0.00  0.00    -0.353 OA
HETATM    5  C   UNK N   1      16.998  -8.679   1.115  0.00  0.00     0.180 C 
ENDROOT
BRANCH   5   6
HETATM    6  C   UNK N   1      15.890  -7.727   1.567  0.00  0.00     0.215 C 
BRANCH   6   7
HETATM    7  O   UNK N   1      15.872  -6.552   0.804  0.00  0.00    -0.294 OA
BRANCH   7   8
HETATM    8  P   UNK N   1      14.432  -6.655  -0.168  0.00  0.00     0.402 P 
HETATM    9  O   UNK N   1      14.074  -5.210  -0.611  0.00  0.00    -0.631 OA
BRANCH   8  10
HETATM   10  O   UNK N   1      13.133  -7.257   0.816  0.00  0.00    -0.188 OA
BRANCH  10  11
HETATM   11  P   UNK N   1      11.738  -7.288  -0.205  0.00  0.00     0.417 P 
HETATM   12  O   UNK N   1      11.299  -6.520   1.071  0.00  0.00    -0.624 OA
HETATM   13  O   UNK N   1      12.227  -8.909   0.191  0.00  0.00    -0.624 OA
BRANCH  11  14
HETATM   14  O   UNK N   1      10.327  -8.154   0.322  0.00  0.00    -0.288 OA
BRANCH  14  15
HETATM   15  C   UNK N   1       9.595  -8.461  -0.833  0.00  0.00     0.209 C 
BRANCH  15  16
HETATM   16  C   UNK N   1       8.531  -7.405  -1.201  0.00  0.00     0.262 C 
BRANCH  16  17
HETATM   17  N   UNK N   1       8.009  -6.562  -0.115  0.00  0.00    -0.077 N 
HETATM   18  C   UNK N   1       6.722  -6.047  -0.538  0.00  0.00     0.271 C 
HETATM   19  C   UNK N   1       7.806  -7.275   1.139  0.00  0.00     0.271 C 
HETATM   20  C   UNK N   1       8.878  -5.417   0.095  0.00  0.00     0.271 C 
ENDBRANCH  16  17
ENDBRANCH  15  16
ENDBRANCH  14  15
ENDBRANCH  11  14
ENDBRANCH  10  11
ENDBRANCH   8  10
BRANCH   8  21
HETATM   21  O   UNK N   1      14.663  -7.608  -1.603  0.00  0.00    -0.307 OA
HETATM   22  H   UNK N   1      14.266  -7.986  -2.404  0.00  0.00     0.222 HD
ENDBRANCH   8  21
ENDBRANCH   7   8
ENDBRANCH   6   7
ENDBRANCH   5   6
BRANCH   1  23
HETATM   23  O   UNK N   1      16.168 -10.136  -0.610  0.00  0.00    -0.390 OA
HETATM   24  H   UNK N   1      15.214 -10.113  -0.779  0.00  0.00     0.210 HD
ENDBRANCH   1  23
BRANCH   3  25
HETATM   25  N   UNK N   1      18.949  -6.632  -0.287  0.00  0.00    -0.280 N 
HETATM   26  C   UNK N   1      17.916  -6.103  -1.001  0.00  0.00     0.102 A 
HETATM   27  C   UNK N   1      17.861  -4.737  -1.268  0.00  0.00     0.065 A 
HETATM   28  C   UNK N   1      18.880  -3.920  -0.790  0.00  0.00     0.103 A 
HETATM   29  N   UNK N   1      19.916  -4.462  -0.103  0.00  0.00    -0.295 N 
HETATM   30  C   UNK N   1      19.965  -5.807   0.155  0.00  0.00     0.330 A 
ATOM     31  HN  UNK N   1      20.670  -3.859   0.226  1.00  0.00     0.172 HD
HETATM   32  O   UNK N   1      20.894  -6.260   0.800  0.00  0.00    -0.246 OA
BRANCH  28  33
HETATM   33  N   UNK N   1      18.828  -2.529  -1.002  0.00  0.00    -0.385 N 
HETATM   34  H   UNK N   1      19.652  -2.011  -1.150  0.00  0.00     0.157 HD
HETATM   35  H   UNK N   1      17.957  -2.069  -1.002  0.00  0.00     0.157 HD
ENDBRANCH  28  33
ENDBRANCH   3  25
BRANCH   2  36
HETATM   36  O   UNK N   1      18.830 -10.300  -0.553  0.00  0.00    -0.388 OA
HETATM   37  H   UNK N   1      18.248 -11.052  -0.363  0.00  0.00     0.210 HD
ENDBRANCH   2  36
TORSDOF 14
