MODEL 1
REMARK VINA RESULT:      -8.2      0.000      0.000
REMARK  3 active torsions:
REMARK  status: ('A' for Active; 'I' for Inactive)
REMARK    1  A    between atoms: C_13  and  C_14 
REMARK    2  A    between atoms: O_25  and  C_21 
REMARK    3  A    between atoms: O_26  and  C_22 
ROOT
HETATM    1  C   UNK N   1      20.128  17.281   3.570  0.00  0.00     0.001 A 
HETATM    2  C   UNK N   1      19.874  18.589   3.153  0.00  0.00     0.001 A 
HETATM    3  C   UNK N   1      21.430  16.893   3.883  0.00  0.00     0.016 A 
HETATM    4  C   UNK N   1      20.924  19.506   3.043  0.00  0.00     0.015 A 
HETATM    5  C   UNK N   1      27.860  16.652   5.831  0.00  0.00     0.014 C 
HETATM    6  C   UNK N   1      27.858  19.168   6.296  0.00  0.00     0.014 C 
HETATM    7  C   UNK N   1      26.437  16.789   5.340  0.00  0.00     0.036 C 
HETATM    8  C   UNK N   1      27.279  19.170   4.870  0.00  0.00     0.036 C 
HETATM    9  C   UNK N   1      28.248  17.757   6.820  0.00  0.00     0.019 C 
HETATM   10  C   UNK N   1      26.162  18.155   4.758  0.00  0.00    -0.063 C 
HETATM   11  C   UNK N   1      22.485  17.812   3.789  0.00  0.00     0.028 A 
HETATM   12  C   UNK N   1      22.236  19.127   3.364  0.00  0.00     0.014 A 
HETATM   13  C   UNK N   1      24.936  18.444   4.212  0.00  0.00     0.053 C 
HETATM   14  C   UNK N   1      23.845  17.412   4.164  0.00  0.00     0.196 C 
HETATM   15  C   UNK N   1      23.344  20.108   3.257  0.00  0.00     0.111 C 
HETATM   16  C   UNK N   1      24.603  19.808   3.651  0.00  0.00     0.114 C 
HETATM   17  O   UNK N   1      24.054  16.241   4.457  0.00  0.00    -0.286 OA
ENDROOT
BRANCH  16  18
HETATM   18  O   UNK N   1      25.557  20.754   3.534  0.00  0.00    -0.357 OA
HETATM   19  H   UNK N   1      25.341  21.609   3.218  0.00  0.00     0.217 HD
ENDBRANCH  16  18
BRANCH  15  20
HETATM   20  O   UNK N   1      23.082  21.340   2.764  0.00  0.00    -0.357 OA
HETATM   21  H   UNK N   1      22.800  21.439   1.877  0.00  0.00     0.217 HD
ENDBRANCH  15  20
BRANCH   9  22
HETATM   22  C   UNK N   1      29.724  17.582   7.081  0.00  0.00    -0.054 A 
HETATM   23  C   UNK N   1      30.306  17.907   8.318  0.00  0.00     0.009 A 
HETATM   24  C   UNK N   1      31.691  17.803   8.491  0.00  0.00     0.024 A 
HETATM   25  C   UNK N   1      32.501  17.376   7.434  0.00  0.00     0.034 A 
HETATM   26  C   UNK N   1      31.928  17.034   6.209  0.00  0.00     0.024 A 
HETATM   27 Cl   UNK N   1      34.236  17.280   7.638  0.00  0.00    -0.084 Cl
HETATM   28  C   UNK N   1      30.548  17.135   6.035  0.00  0.00     0.009 A 
ENDBRANCH   9  22
TORSDOF 3
ENDMDL
MODEL 2
REMARK VINA RESULT:      -8.1      3.980      9.043
REMARK  3 active torsions:
REMARK  status: ('A' for Active; 'I' for Inactive)
REMARK    1  A    between atoms: C_13  and  C_14 
REMARK    2  A    between atoms: O_25  and  C_21 
REMARK    3  A    between atoms: O_26  and  C_22 
ROOT
HETATM    1  C   UNK N   1      34.030  16.775   5.780  0.00  0.00     0.001 A 
HETATM    2  C   UNK N   1      34.185  17.107   7.127  0.00  0.00     0.001 A 
HETATM    3  C   UNK N   1      32.760  16.784   5.205  0.00  0.00     0.016 A 
HETATM    4  C   UNK N   1      33.067  17.439   7.899  0.00  0.00     0.015 A 
HETATM    5  C   UNK N   1      26.356  18.033   3.582  0.00  0.00     0.014 C 
HETATM    6  C   UNK N   1      26.161  19.732   5.486  0.00  0.00     0.014 C 
HETATM    7  C   UNK N   1      27.768  17.749   4.044  0.00  0.00     0.036 C 
HETATM    8  C   UNK N   1      26.747  18.540   6.264  0.00  0.00     0.036 C 
HETATM    9  C   UNK N   1      25.878  19.433   3.986  0.00  0.00     0.019 C 
HETATM   10  C   UNK N   1      27.940  17.970   5.527  0.00  0.00    -0.063 C 
HETATM   11  C   UNK N   1      31.638  17.131   5.969  0.00  0.00     0.028 A 
HETATM   12  C   UNK N   1      31.787  17.459   7.327  0.00  0.00     0.014 A 
HETATM   13  C   UNK N   1      29.143  17.708   6.135  0.00  0.00     0.053 C 
HETATM   14  C   UNK N   1      30.311  17.183   5.348  0.00  0.00     0.196 C 
HETATM   15  C   UNK N   1      30.607  17.825   8.149  0.00  0.00     0.111 C 
HETATM   16  C   UNK N   1      29.372  17.949   7.610  0.00  0.00     0.114 C 
HETATM   17  O   UNK N   1      30.191  16.818   4.185  0.00  0.00    -0.286 OA
ENDROOT
BRANCH  16  18
HETATM   18  O   UNK N   1      28.349  18.295   8.416  0.00  0.00    -0.357 OA
HETATM   19  H   UNK N   1      27.865  19.081   8.258  0.00  0.00     0.217 HD
ENDBRANCH  16  18
BRANCH  15  20
HETATM   20  O   UNK N   1      30.776  18.052   9.471  0.00  0.00    -0.357 OA
HETATM   21  H   UNK N   1      30.773  18.928   9.800  0.00  0.00     0.217 HD
ENDBRANCH  15  20
BRANCH   9  22
HETATM   22  C   UNK N   1      24.419  19.499   3.608  0.00  0.00    -0.054 A 
HETATM   23  C   UNK N   1      23.873  20.602   2.931  0.00  0.00     0.009 A 
HETATM   24  C   UNK N   1      22.500  20.657   2.669  0.00  0.00     0.024 A 
HETATM   25  C   UNK N   1      21.664  19.614   3.083  0.00  0.00     0.034 A 
HETATM   26  C   UNK N   1      22.201  18.507   3.740  0.00  0.00     0.024 A 
HETATM   27 Cl   UNK N   1      19.941  19.697   2.789  0.00  0.00    -0.084 Cl
HETATM   28  C   UNK N   1      23.570  18.450   3.999  0.00  0.00     0.009 A 
ENDBRANCH   9  22
TORSDOF 3
ENDMDL
MODEL 3
REMARK VINA RESULT:      -8.1      1.220      2.737
REMARK  3 active torsions:
REMARK  status: ('A' for Active; 'I' for Inactive)
REMARK    1  A    between atoms: C_13  and  C_14 
REMARK    2  A    between atoms: O_25  and  C_21 
REMARK    3  A    between atoms: O_26  and  C_22 
ROOT
HETATM    1  C   UNK N   1      20.703  20.398   2.075  0.00  0.00     0.001 A 
HETATM    2  C   UNK N   1      19.859  19.385   2.537  0.00  0.00     0.001 A 
HETATM    3  C   UNK N   1      22.027  20.448   2.507  0.00  0.00     0.016 A 
HETATM    4  C   UNK N   1      20.340  18.428   3.436  0.00  0.00     0.015 A 
HETATM    5  C   UNK N   1      28.221  19.011   4.690  0.00  0.00     0.014 C 
HETATM    6  C   UNK N   1      27.628  16.529   4.871  0.00  0.00     0.014 C 
HETATM    7  C   UNK N   1      26.792  19.274   4.271  0.00  0.00     0.036 C 
HETATM    8  C   UNK N   1      26.445  17.134   5.648  0.00  0.00     0.036 C 
HETATM    9  C   UNK N   1      28.668  17.577   4.383  0.00  0.00     0.019 C 
HETATM   10  C   UNK N   1      25.830  18.272   4.863  0.00  0.00    -0.063 C 
HETATM   11  C   UNK N   1      22.519  19.483   3.396  0.00  0.00     0.028 A 
HETATM   12  C   UNK N   1      21.674  18.466   3.869  0.00  0.00     0.014 A 
HETATM   13  C   UNK N   1      24.481  18.386   4.636  0.00  0.00     0.053 C 
HETATM   14  C   UNK N   1      23.926  19.513   3.812  0.00  0.00     0.196 C 
HETATM   15  C   UNK N   1      22.181  17.440   4.813  0.00  0.00     0.111 C 
HETATM   16  C   UNK N   1      23.484  17.386   5.176  0.00  0.00     0.114 C 
HETATM   17  O   UNK N   1      24.625  20.452   3.450  0.00  0.00    -0.286 OA
ENDROOT
BRANCH  16  18
HETATM   18  O   UNK N   1      23.874  16.420   6.031  0.00  0.00    -0.357 OA
HETATM   19  H   UNK N   1      24.711  16.468   6.451  0.00  0.00     0.217 HD
ENDBRANCH  16  18
BRANCH  15  20
HETATM   20  O   UNK N   1      21.318  16.527   5.313  0.00  0.00    -0.357 OA
HETATM   21  H   UNK N   1      21.567  15.999   6.046  0.00  0.00     0.217 HD
ENDBRANCH  15  20
BRANCH   9  22
HETATM   22  C   UNK N   1      30.035  17.425   5.004  0.00  0.00    -0.054 A 
HETATM   23  C   UNK N   1      30.208  17.203   6.380  0.00  0.00     0.009 A 
HETATM   24  C   UNK N   1      31.495  17.146   6.926  0.00  0.00     0.024 A 
HETATM   25  C   UNK N   1      32.614  17.312   6.104  0.00  0.00     0.034 A 
HETATM   26  C   UNK N   1      32.451  17.515   4.734  0.00  0.00     0.024 A 
HETATM   27 Cl   UNK N   1      34.224  17.277   6.790  0.00  0.00    -0.084 Cl
HETATM   28  C   UNK N   1      31.169  17.569   4.187  0.00  0.00     0.009 A 
ENDBRANCH   9  22
TORSDOF 3
ENDMDL
MODEL 4
REMARK VINA RESULT:      -7.8      4.053      9.187
REMARK  3 active torsions:
REMARK  status: ('A' for Active; 'I' for Inactive)
REMARK    1  A    between atoms: C_13  and  C_14 
REMARK    2  A    between atoms: O_25  and  C_21 
REMARK    3  A    between atoms: O_26  and  C_22 
ROOT
HETATM    1  C   UNK N   1      34.580  15.199   5.399  0.00  0.00     0.001 A 
HETATM    2  C   UNK N   1      34.933  15.688   6.658  0.00  0.00     0.001 A 
HETATM    3  C   UNK N   1      33.280  15.371   4.927  0.00  0.00     0.016 A 
HETATM    4  C   UNK N   1      33.982  16.344   7.446  0.00  0.00     0.015 A 
HETATM    5  C   UNK N   1      27.076  17.601   3.605  0.00  0.00     0.014 C 
HETATM    6  C   UNK N   1      27.395  19.567   5.212  0.00  0.00     0.014 C 
HETATM    7  C   UNK N   1      28.453  17.116   4.000  0.00  0.00     0.036 C 
HETATM    8  C   UNK N   1      27.831  18.411   6.130  0.00  0.00     0.036 C 
HETATM    9  C   UNK N   1      26.906  19.111   3.808  0.00  0.00     0.019 C 
HETATM   10  C   UNK N   1      28.817  17.516   5.410  0.00  0.00    -0.063 C 
HETATM   11  C   UNK N   1      32.326  16.041   5.706  0.00  0.00     0.028 A 
HETATM   12  C   UNK N   1      32.674  16.530   6.976  0.00  0.00     0.014 A 
HETATM   13  C   UNK N   1      30.009  17.115   5.961  0.00  0.00     0.053 C 
HETATM   14  C   UNK N   1      30.972  16.260   5.186  0.00  0.00     0.196 C 
HETATM   15  C   UNK N   1      31.674  17.238   7.813  0.00  0.00     0.111 C 
HETATM   16  C   UNK N   1      30.432  17.521   7.354  0.00  0.00     0.114 C 
HETATM   17  O   UNK N   1      30.668  15.759   4.111  0.00  0.00    -0.286 OA
ENDROOT
BRANCH  16  18
HETATM   18  O   UNK N   1      29.580  18.176   8.167  0.00  0.00    -0.357 OA
HETATM   19  H   UNK N   1      28.790  17.763   8.458  0.00  0.00     0.217 HD
ENDBRANCH  16  18
BRANCH  15  20
HETATM   20  O   UNK N   1      32.018  17.619   9.063  0.00  0.00    -0.357 OA
HETATM   21  H   UNK N   1      32.873  17.965   9.228  0.00  0.00     0.217 HD
ENDBRANCH  15  20
BRANCH   9  22
HETATM   22  C   UNK N   1      25.451  19.406   3.535  0.00  0.00    -0.054 A 
HETATM   23  C   UNK N   1      25.041  20.562   2.851  0.00  0.00     0.009 A 
HETATM   24  C   UNK N   1      23.678  20.835   2.688  0.00  0.00     0.024 A 
HETATM   25  C   UNK N   1      22.719  19.959   3.207  0.00  0.00     0.034 A 
HETATM   26  C   UNK N   1      23.119  18.800   3.872  0.00  0.00     0.024 A 
HETATM   27 Cl   UNK N   1      21.015  20.317   3.036  0.00  0.00    -0.084 Cl
HETATM   28  C   UNK N   1      24.477  18.525   4.033  0.00  0.00     0.009 A 
ENDBRANCH   9  22
TORSDOF 3
ENDMDL
MODEL 5
REMARK VINA RESULT:      -7.7     10.618     14.330
REMARK  3 active torsions:
REMARK  status: ('A' for Active; 'I' for Inactive)
REMARK    1  A    between atoms: C_13  and  C_14 
REMARK    2  A    between atoms: O_25  and  C_21 
REMARK    3  A    between atoms: O_26  and  C_22 
ROOT
HETATM    1  C   UNK N   1      33.556  13.418   7.637  0.00  0.00     0.001 A 
HETATM    2  C   UNK N   1      33.812  14.784   7.506  0.00  0.00     0.001 A 
HETATM    3  C   UNK N   1      33.945  12.747   8.796  0.00  0.00     0.016 A 
HETATM    4  C   UNK N   1      34.463  15.476   8.532  0.00  0.00     0.015 A 
HETATM    5  C   UNK N   1      35.556  11.029  15.093  0.00  0.00     0.014 C 
HETATM    6  C   UNK N   1      35.208  13.437  15.884  0.00  0.00     0.014 C 
HETATM    7  C   UNK N   1      35.252  11.497  13.688  0.00  0.00     0.036 C 
HETATM    8  C   UNK N   1      36.137  13.693  14.684  0.00  0.00     0.036 C 
HETATM    9  C   UNK N   1      34.927  11.933  16.160  0.00  0.00     0.019 C 
HETATM   10  C   UNK N   1      35.640  12.939  13.469  0.00  0.00    -0.063 C 
HETATM   11  C   UNK N   1      34.584  13.439   9.834  0.00  0.00     0.028 A 
HETATM   12  C   UNK N   1      34.850  14.812   9.705  0.00  0.00     0.014 A 
HETATM   13  C   UNK N   1      35.489  13.521  12.235  0.00  0.00     0.053 C 
HETATM   14  C   UNK N   1      34.950  12.739  11.070  0.00  0.00     0.196 C 
HETATM   15  C   UNK N   1      35.529  15.556  10.794  0.00  0.00     0.111 C 
HETATM   16  C   UNK N   1      35.829  14.972  11.978  0.00  0.00     0.114 C 
HETATM   17  O   UNK N   1      34.780  11.527  11.131  0.00  0.00    -0.286 OA
ENDROOT
BRANCH  16  18
HETATM   18  O   UNK N   1      36.438  15.712  12.925  0.00  0.00    -0.357 OA
HETATM   19  H   UNK N   1      36.533  15.382  13.797  0.00  0.00     0.217 HD
ENDBRANCH  16  18
BRANCH  15  20
HETATM   20  O   UNK N   1      35.845  16.856  10.601  0.00  0.00    -0.357 OA
HETATM   21  H   UNK N   1      36.248  17.347  11.289  0.00  0.00     0.217 HD
ENDBRANCH  15  20
BRANCH   9  22
HETATM   22  C   UNK N   1      35.454  11.440  17.486  0.00  0.00    -0.054 A 
HETATM   23  C   UNK N   1      36.053  10.177  17.626  0.00  0.00     0.009 A 
HETATM   24  C   UNK N   1      36.458   9.728  18.888  0.00  0.00     0.024 A 
HETATM   25  C   UNK N   1      36.265  10.534  20.015  0.00  0.00     0.034 A 
HETATM   26  C   UNK N   1      35.687  11.796  19.881  0.00  0.00     0.024 A 
HETATM   27 Cl   UNK N   1      36.737   9.959  21.599  0.00  0.00    -0.084 Cl
HETATM   28  C   UNK N   1      35.286  12.247  18.624  0.00  0.00     0.009 A 
ENDBRANCH   9  22
TORSDOF 3
ENDMDL
MODEL 6
REMARK VINA RESULT:      -7.7      4.660     10.037
REMARK  3 active torsions:
REMARK  status: ('A' for Active; 'I' for Inactive)
REMARK    1  A    between atoms: C_13  and  C_14 
REMARK    2  A    between atoms: O_25  and  C_21 
REMARK    3  A    between atoms: O_26  and  C_22 
ROOT
HETATM    1  C   UNK N   1      34.615  14.052  10.506  0.00  0.00     0.001 A 
HETATM    2  C   UNK N   1      35.683  13.802   9.641  0.00  0.00     0.001 A 
HETATM    3  C   UNK N   1      33.543  14.832  10.078  0.00  0.00     0.016 A 
HETATM    4  C   UNK N   1      35.679  14.340   8.350  0.00  0.00     0.015 A 
HETATM    5  C   UNK N   1      28.786  17.957   6.499  0.00  0.00     0.014 C 
HETATM    6  C   UNK N   1      29.694  16.948   4.330  0.00  0.00     0.014 C 
HETATM    7  C   UNK N   1      29.922  17.282   7.234  0.00  0.00     0.036 C 
HETATM    8  C   UNK N   1      30.998  17.521   4.913  0.00  0.00     0.036 C 
HETATM    9  C   UNK N   1      28.431  17.245   5.187  0.00  0.00     0.019 C 
HETATM   10  C   UNK N   1      31.145  17.115   6.364  0.00  0.00    -0.063 C 
HETATM   11  C   UNK N   1      33.526  15.361   8.780  0.00  0.00     0.028 A 
HETATM   12  C   UNK N   1      34.600  15.119   7.908  0.00  0.00     0.014 A 
HETATM   13  C   UNK N   1      32.295  16.571   6.879  0.00  0.00     0.053 C 
HETATM   14  C   UNK N   1      32.375  16.144   8.318  0.00  0.00     0.196 C 
HETATM   15  C   UNK N   1      34.597  15.677   6.533  0.00  0.00     0.111 C 
HETATM   16  C   UNK N   1      33.532  16.350   6.038  0.00  0.00     0.114 C 
HETATM   17  O   UNK N   1      31.486  16.409   9.118  0.00  0.00    -0.286 OA
ENDROOT
BRANCH  16  18
HETATM   18  O   UNK N   1      33.597  16.819   4.776  0.00  0.00    -0.357 OA
HETATM   19  H   UNK N   1      33.089  16.422   4.096  0.00  0.00     0.217 HD
ENDBRANCH  16  18
BRANCH  15  20
HETATM   20  O   UNK N   1      35.684  15.495   5.750  0.00  0.00    -0.357 OA
HETATM   21  H   UNK N   1      35.673  14.844   5.076  0.00  0.00     0.217 HD
ENDBRANCH  15  20
BRANCH   9  22
HETATM   22  C   UNK N   1      27.413  18.122   4.501  0.00  0.00    -0.054 A 
HETATM   23  C   UNK N   1      27.661  19.477   4.225  0.00  0.00     0.009 A 
HETATM   24  C   UNK N   1      26.659  20.273   3.658  0.00  0.00     0.024 A 
HETATM   25  C   UNK N   1      25.406  19.723   3.366  0.00  0.00     0.034 A 
HETATM   26  C   UNK N   1      25.159  18.374   3.621  0.00  0.00     0.024 A 
HETATM   27 Cl   UNK N   1      24.141  20.725   2.690  0.00  0.00    -0.084 Cl
HETATM   28  C   UNK N   1      26.156  17.579   4.183  0.00  0.00     0.009 A 
ENDBRANCH   9  22
TORSDOF 3
ENDMDL
MODEL 7
REMARK VINA RESULT:      -7.7      5.993     11.670
REMARK  3 active torsions:
REMARK  status: ('A' for Active; 'I' for Inactive)
REMARK    1  A    between atoms: C_13  and  C_14 
REMARK    2  A    between atoms: O_25  and  C_21 
REMARK    3  A    between atoms: O_26  and  C_22 
ROOT
HETATM    1  C   UNK N   1      37.771  11.574   8.800  0.00  0.00     0.001 A 
HETATM    2  C   UNK N   1      38.546  12.398   9.618  0.00  0.00     0.001 A 
HETATM    3  C   UNK N   1      36.488  11.974   8.429  0.00  0.00     0.016 A 
HETATM    4  C   UNK N   1      38.034  13.618  10.070  0.00  0.00     0.015 A 
HETATM    5  C   UNK N   1      30.974  15.450   6.778  0.00  0.00     0.014 C 
HETATM    6  C   UNK N   1      32.198  17.661   7.177  0.00  0.00     0.014 C 
HETATM    7  C   UNK N   1      32.226  14.730   7.227  0.00  0.00     0.036 C 
HETATM    8  C   UNK N   1      32.528  16.942   8.497  0.00  0.00     0.036 C 
HETATM    9  C   UNK N   1      31.268  16.851   6.229  0.00  0.00     0.019 C 
HETATM   10  C   UNK N   1      33.026  15.540   8.219  0.00  0.00    -0.063 C 
HETATM   11  C   UNK N   1      35.975  13.203   8.866  0.00  0.00     0.028 A 
HETATM   12  C   UNK N   1      36.748  14.033   9.694  0.00  0.00     0.014 A 
HETATM   13  C   UNK N   1      34.167  15.024   8.780  0.00  0.00     0.053 C 
HETATM   14  C   UNK N   1      34.642  13.639   8.436  0.00  0.00     0.196 C 
HETATM   15  C   UNK N   1      36.215  15.334  10.168  0.00  0.00     0.111 C 
HETATM   16  C   UNK N   1      35.020  15.811   9.748  0.00  0.00     0.114 C 
HETATM   17  O   UNK N   1      33.954  12.868   7.779  0.00  0.00    -0.286 OA
ENDROOT
BRANCH  16  18
HETATM   18  O   UNK N   1      34.605  17.006  10.213  0.00  0.00    -0.357 OA
HETATM   19  H   UNK N   1      35.001  17.383  10.974  0.00  0.00     0.217 HD
ENDBRANCH  16  18
BRANCH  15  20
HETATM   20  O   UNK N   1      36.952  16.068  11.032  0.00  0.00    -0.357 OA
HETATM   21  H   UNK N   1      36.620  16.259  11.886  0.00  0.00     0.217 HD
ENDBRANCH  15  20
BRANCH   9  22
HETATM   22  C   UNK N   1      29.925  17.492   5.986  0.00  0.00    -0.054 A 
HETATM   23  C   UNK N   1      29.417  17.690   4.691  0.00  0.00     0.009 A 
HETATM   24  C   UNK N   1      28.201  18.359   4.508  0.00  0.00     0.024 A 
HETATM   25  C   UNK N   1      27.488  18.835   5.613  0.00  0.00     0.034 A 
HETATM   26  C   UNK N   1      27.977  18.627   6.903  0.00  0.00     0.024 A 
HETATM   27 Cl   UNK N   1      25.987  19.704   5.384  0.00  0.00    -0.084 Cl
HETATM   28  C   UNK N   1      29.187  17.958   7.087  0.00  0.00     0.009 A 
ENDBRANCH   9  22
TORSDOF 3
ENDMDL
MODEL 8
REMARK VINA RESULT:      -7.7      2.468      3.431
REMARK  3 active torsions:
REMARK  status: ('A' for Active; 'I' for Inactive)
REMARK    1  A    between atoms: C_13  and  C_14 
REMARK    2  A    between atoms: O_25  and  C_21 
REMARK    3  A    between atoms: O_26  and  C_22 
ROOT
HETATM    1  C   UNK N   1      23.282  13.767   0.508  0.00  0.00     0.001 A 
HETATM    2  C   UNK N   1      22.146  14.138   1.231  0.00  0.00     0.001 A 
HETATM    3  C   UNK N   1      24.533  14.250   0.885  0.00  0.00     0.016 A 
HETATM    4  C   UNK N   1      22.264  14.999   2.327  0.00  0.00     0.015 A 
HETATM    5  C   UNK N   1      29.869  16.582   4.246  0.00  0.00     0.014 C 
HETATM    6  C   UNK N   1      28.539  16.600   6.431  0.00  0.00     0.014 C 
HETATM    7  C   UNK N   1      28.613  16.125   3.539  0.00  0.00     0.036 C 
HETATM    8  C   UNK N   1      27.557  17.365   5.525  0.00  0.00     0.036 C 
HETATM    9  C   UNK N   1      29.873  16.211   5.734  0.00  0.00     0.019 C 
HETATM   10  C   UNK N   1      27.361  16.622   4.221  0.00  0.00    -0.063 C 
HETATM   11  C   UNK N   1      24.660  15.101   1.992  0.00  0.00     0.028 A 
HETATM   12  C   UNK N   1      23.521  15.484   2.719  0.00  0.00     0.014 A 
HETATM   13  C   UNK N   1      26.125  16.351   3.689  0.00  0.00     0.053 C 
HETATM   14  C   UNK N   1      25.984  15.571   2.412  0.00  0.00     0.196 C 
HETATM   15  C   UNK N   1      23.640  16.387   3.889  0.00  0.00     0.111 C 
HETATM   16  C   UNK N   1      24.843  16.796   4.356  0.00  0.00     0.114 C 
HETATM   17  O   UNK N   1      26.955  15.290   1.719  0.00  0.00    -0.286 OA
ENDROOT
BRANCH  16  18
HETATM   18  O   UNK N   1      24.875  17.609   5.431  0.00  0.00    -0.357 OA
HETATM   19  H   UNK N   1      25.023  17.258   6.287  0.00  0.00     0.217 HD
ENDBRANCH  16  18
BRANCH  15  20
HETATM   20  O   UNK N   1      22.515  16.802   4.514  0.00  0.00    -0.357 OA
HETATM   21  H   UNK N   1      21.675  16.555   4.180  0.00  0.00     0.217 HD
ENDBRANCH  15  20
BRANCH   9  22
HETATM   22  C   UNK N   1      31.093  16.874   6.324  0.00  0.00    -0.054 A 
HETATM   23  C   UNK N   1      32.277  17.047   5.587  0.00  0.00     0.009 A 
HETATM   24  C   UNK N   1      33.410  17.596   6.197  0.00  0.00     0.024 A 
HETATM   25  C   UNK N   1      33.370  17.972   7.544  0.00  0.00     0.034 A 
HETATM   26  C   UNK N   1      32.193  17.819   8.277  0.00  0.00     0.024 A 
HETATM   27 Cl   UNK N   1      34.797  18.624   8.319  0.00  0.00    -0.084 Cl
HETATM   28  C   UNK N   1      31.062  17.275   7.670  0.00  0.00     0.009 A 
ENDBRANCH   9  22
TORSDOF 3
ENDMDL
MODEL 9
REMARK VINA RESULT:      -7.5     16.343     19.866
REMARK  3 active torsions:
REMARK  status: ('A' for Active; 'I' for Inactive)
REMARK    1  A    between atoms: C_13  and  C_14 
REMARK    2  A    between atoms: O_25  and  C_21 
REMARK    3  A    between atoms: O_26  and  C_22 
ROOT
HETATM    1  C   UNK N   1      36.460  12.003  14.640  0.00  0.00     0.001 A 
HETATM    2  C   UNK N   1      36.377  13.379  14.864  0.00  0.00     0.001 A 
HETATM    3  C   UNK N   1      36.173  11.113  15.674  0.00  0.00     0.016 A 
HETATM    4  C   UNK N   1      36.013  13.862  16.125  0.00  0.00     0.015 A 
HETATM    5  C   UNK N   1      33.753   8.067  21.157  0.00  0.00     0.014 C 
HETATM    6  C   UNK N   1      32.374  10.138  21.751  0.00  0.00     0.014 C 
HETATM    7  C   UNK N   1      34.312   8.834  19.980  0.00  0.00     0.036 C 
HETATM    8  C   UNK N   1      33.748  10.797  21.539  0.00  0.00     0.036 C 
HETATM    9  C   UNK N   1      32.382   8.590  21.601  0.00  0.00     0.019 C 
HETATM   10  C   UNK N   1      34.361  10.320  20.239  0.00  0.00    -0.063 C 
HETATM   11  C   UNK N   1      35.793  11.592  16.935  0.00  0.00     0.028 A 
HETATM   12  C   UNK N   1      35.714  12.975  17.168  0.00  0.00     0.014 A 
HETATM   13  C   UNK N   1      34.891  11.173  19.302  0.00  0.00     0.053 C 
HETATM   14  C   UNK N   1      35.448  10.651  18.007  0.00  0.00     0.196 C 
HETATM   15  C   UNK N   1      35.317  13.495  18.500  0.00  0.00     0.111 C 
HETATM   16  C   UNK N   1      34.927  12.671  19.501  0.00  0.00     0.114 C 
HETATM   17  O   UNK N   1      35.598   9.452  17.807  0.00  0.00    -0.286 OA
ENDROOT
BRANCH  16  18
HETATM   18  O   UNK N   1      34.571  13.216  20.681  0.00  0.00    -0.357 OA
HETATM   19  H   UNK N   1      33.917  12.807  21.214  0.00  0.00     0.217 HD
ENDBRANCH  16  18
BRANCH  15  20
HETATM   20  O   UNK N   1      35.334  14.830  18.713  0.00  0.00    -0.357 OA
HETATM   21  H   UNK N   1      35.983  15.362  18.299  0.00  0.00     0.217 HD
ENDBRANCH  15  20
BRANCH   9  22
HETATM   22  C   UNK N   1      32.043   7.846  22.869  0.00  0.00    -0.054 A 
HETATM   23  C   UNK N   1      31.842   6.455  22.885  0.00  0.00     0.009 A 
HETATM   24  C   UNK N   1      31.453   5.816  24.067  0.00  0.00     0.024 A 
HETATM   25  C   UNK N   1      31.260   6.558  25.237  0.00  0.00     0.034 A 
HETATM   26  C   UNK N   1      31.476   7.937  25.233  0.00  0.00     0.024 A 
HETATM   27 Cl   UNK N   1      30.738   5.766  26.707  0.00  0.00    -0.084 Cl
HETATM   28  C   UNK N   1      31.866   8.575  24.056  0.00  0.00     0.009 A 
ENDBRANCH   9  22
TORSDOF 3
ENDMDL
