MODEL 1
REMARK VINA RESULT:      -6.8      0.000      0.000
REMARK  8 active torsions:
REMARK  status: ('A' for Active; 'I' for Inactive)
REMARK    1  A    between atoms: C_10  and  C_5 
REMARK    2  A    between atoms: O_19  and  C_5 
REMARK    3  A    between atoms: C_9  and  C_7 
REMARK    4  A    between atoms: C_8  and  O_14 
REMARK    5  A    between atoms: O_15  and  C_11 
REMARK    6  A    between atoms: P_21  and  O_16 
REMARK    7  A    between atoms: P_21  and  O_17 
REMARK    8  A    between atoms: P_21  and  O_19 
ROOT
HETATM    1  C   UNK N   1      36.691  11.774  14.481  0.00  0.00     0.071 C 
HETATM    2  C   UNK N   1      36.838  12.586  13.241  0.00  0.00     0.152 C 
HETATM    3  C   UNK N   1      35.295  12.167  14.977  0.00  0.00     0.159 C 
HETATM    4  C   UNK N   1      36.075  13.819  13.676  0.00  0.00     0.175 C 
HETATM    5  O   UNK N   1      34.901  13.354  14.299  0.00  0.00    -0.371 OA
ENDROOT
BRANCH   3   6
HETATM    6  C   UNK N   1      35.330  12.367  16.473  0.00  0.00    -0.013 A 
HETATM    7  C   UNK N   1      35.389  11.277  17.352  0.00  0.00     0.022 A 
HETATM    8  C   UNK N   1      35.399  11.491  18.733  0.00  0.00    -0.011 A 
HETATM    9  C   UNK N   1      35.495  10.330  19.659  0.00  0.00     0.052 C 
HETATM   10  C   UNK N   1      35.319  12.803  19.221  0.00  0.00     0.145 A 
HETATM   11  N   UNK N   1      35.267  13.849  18.356  0.00  0.00    -0.346 N 
HETATM   12  C   UNK N   1      35.287  13.661  17.008  0.00  0.00     0.100 A 
ATOM     13  HN  UNK N   1      35.211  14.798  18.726  1.00  0.00     0.167 HD
BRANCH  10  14
HETATM   14  O   UNK N   1      35.299  13.037  20.547  0.00  0.00    -0.346 OA
HETATM   15  H   UNK N   1      35.376  12.349  21.178  0.00  0.00     0.219 HD
ENDBRANCH  10  14
ENDBRANCH   3   6
BRANCH   2  16
HETATM   16  O   UNK N   1      36.195  11.926  12.190  0.00  0.00    -0.393 OA
HETATM   17  H   UNK N   1      36.379  11.437  11.373  0.00  0.00     0.210 HD
ENDBRANCH   2  16
BRANCH   4  18
HETATM   18  C   UNK N   1      35.791  14.817  12.553  0.00  0.00     0.215 C 
BRANCH  18  19
HETATM   19  O   UNK N   1      34.505  14.673  12.028  0.00  0.00    -0.294 OA
BRANCH  19  20
HETATM   20  P   UNK N   1      34.642  15.231  10.386  0.00  0.00     0.390 P 
HETATM   21  O   UNK N   1      35.254  16.410  11.190  0.00  0.00    -0.632 OA
BRANCH  20  22
HETATM   22  O   UNK N   1      33.718  16.595   9.839  0.00  0.00    -0.307 OA
HETATM   23  H   UNK N   1      33.676  17.029   8.972  0.00  0.00     0.222 HD
ENDBRANCH  20  22
BRANCH  20  24
HETATM   24  O   UNK N   1      32.964  15.046  10.794  0.00  0.00    -0.307 OA
HETATM   25  H   UNK N   1      32.374  14.307  10.577  0.00  0.00     0.222 HD
ENDBRANCH  20  24
ENDBRANCH  19  20
ENDBRANCH  18  19
ENDBRANCH   4  18
TORSDOF 8
ENDMDL
MODEL 2
REMARK VINA RESULT:      -6.6      7.073     10.532
REMARK  8 active torsions:
REMARK  status: ('A' for Active; 'I' for Inactive)
REMARK    1  A    between atoms: C_10  and  C_5 
REMARK    2  A    between atoms: O_19  and  C_5 
REMARK    3  A    between atoms: C_9  and  C_7 
REMARK    4  A    between atoms: C_8  and  O_14 
REMARK    5  A    between atoms: O_15  and  C_11 
REMARK    6  A    between atoms: P_21  and  O_16 
REMARK    7  A    between atoms: P_21  and  O_17 
REMARK    8  A    between atoms: P_21  and  O_19 
ROOT
HETATM    1  C   UNK N   1      33.557  18.009   8.210  0.00  0.00     0.071 C 
HETATM    2  C   UNK N   1      34.671  17.215   8.800  0.00  0.00     0.152 C 
HETATM    3  C   UNK N   1      32.386  17.022   8.242  0.00  0.00     0.159 C 
HETATM    4  C   UNK N   1      34.299  15.851   8.260  0.00  0.00     0.175 C 
HETATM    5  O   UNK N   1      32.911  15.717   8.455  0.00  0.00    -0.371 OA
ENDROOT
BRANCH   3   6
HETATM    6  C   UNK N   1      31.619  17.108   6.943  0.00  0.00    -0.013 A 
HETATM    7  C   UNK N   1      32.280  17.137   5.708  0.00  0.00     0.022 A 
HETATM    8  C   UNK N   1      31.546  17.238   4.524  0.00  0.00    -0.011 A 
HETATM    9  C   UNK N   1      32.253  17.235   3.214  0.00  0.00     0.052 C 
HETATM   10  C   UNK N   1      30.149  17.339   4.593  0.00  0.00     0.145 A 
HETATM   11  N   UNK N   1      29.523  17.306   5.798  0.00  0.00    -0.346 N 
HETATM   12  C   UNK N   1      30.220  17.177   6.960  0.00  0.00     0.100 A 
ATOM     13  HN  UNK N   1      28.506  17.379   5.833  1.00  0.00     0.167 HD
BRANCH  10  14
HETATM   14  O   UNK N   1      29.418  17.466   3.469  0.00  0.00    -0.346 OA
HETATM   15  H   UNK N   1      28.484  17.522   3.482  0.00  0.00     0.219 HD
ENDBRANCH  10  14
ENDBRANCH   3   6
BRANCH   2  16
HETATM   16  O   UNK N   1      34.569  17.262  10.194  0.00  0.00    -0.393 OA
HETATM   17  H   UNK N   1      34.401  17.878  10.924  0.00  0.00     0.210 HD
ENDBRANCH   2  16
BRANCH   4  18
HETATM   18  C   UNK N   1      35.094  14.692   8.862  0.00  0.00     0.215 C 
BRANCH  18  19
HETATM   19  O   UNK N   1      34.321  13.910   9.723  0.00  0.00    -0.294 OA
BRANCH  19  20
HETATM   20  P   UNK N   1      35.177  13.956  11.237  0.00  0.00     0.390 P 
HETATM   21  O   UNK N   1      34.930  12.436  11.041  0.00  0.00    -0.632 OA
BRANCH  20  22
HETATM   22  O   UNK N   1      34.385  13.500  12.712  0.00  0.00    -0.307 OA
HETATM   23  H   UNK N   1      34.475  12.708  13.265  0.00  0.00     0.222 HD
ENDBRANCH  20  22
BRANCH  20  24
HETATM   24  O   UNK N   1      33.661  14.785  11.407  0.00  0.00    -0.307 OA
HETATM   25  H   UNK N   1      33.029  15.025  10.711  0.00  0.00     0.222 HD
ENDBRANCH  20  24
ENDBRANCH  19  20
ENDBRANCH  18  19
ENDBRANCH   4  18
TORSDOF 8
ENDMDL
MODEL 3
REMARK VINA RESULT:      -6.3      7.128      9.673
REMARK  8 active torsions:
REMARK  status: ('A' for Active; 'I' for Inactive)
REMARK    1  A    between atoms: C_10  and  C_5 
REMARK    2  A    between atoms: O_19  and  C_5 
REMARK    3  A    between atoms: C_9  and  C_7 
REMARK    4  A    between atoms: C_8  and  O_14 
REMARK    5  A    between atoms: O_15  and  C_11 
REMARK    6  A    between atoms: P_21  and  O_16 
REMARK    7  A    between atoms: P_21  and  O_17 
REMARK    8  A    between atoms: P_21  and  O_19 
ROOT
HETATM    1  C   UNK N   1      32.477  16.245   6.238  0.00  0.00     0.071 C 
HETATM    2  C   UNK N   1      33.763  15.578   6.587  0.00  0.00     0.152 C 
HETATM    3  C   UNK N   1      32.450  17.443   7.192  0.00  0.00     0.159 C 
HETATM    4  C   UNK N   1      33.782  15.869   8.072  0.00  0.00     0.175 C 
HETATM    5  O   UNK N   1      33.416  17.222   8.211  0.00  0.00    -0.371 OA
ENDROOT
BRANCH   3   6
HETATM    6  C   UNK N   1      31.061  17.599   7.765  0.00  0.00    -0.013 A 
HETATM    7  C   UNK N   1      29.941  17.067   7.114  0.00  0.00     0.022 A 
HETATM    8  C   UNK N   1      28.666  17.245   7.658  0.00  0.00    -0.011 A 
HETATM    9  C   UNK N   1      27.483  16.649   6.977  0.00  0.00     0.052 C 
HETATM   10  C   UNK N   1      28.525  17.985   8.841  0.00  0.00     0.145 A 
HETATM   11  N   UNK N   1      29.621  18.490   9.461  0.00  0.00    -0.346 N 
HETATM   12  C   UNK N   1      30.874  18.301   8.963  0.00  0.00     0.100 A 
ATOM     13  HN  UNK N   1      29.504  19.025  10.323  1.00  0.00     0.167 HD
BRANCH  10  14
HETATM   14  O   UNK N   1      27.304  18.195   9.371  0.00  0.00    -0.346 OA
HETATM   15  H   UNK N   1      26.805  18.965   9.187  0.00  0.00     0.219 HD
ENDBRANCH  10  14
ENDBRANCH   3   6
BRANCH   2  16
HETATM   16  O   UNK N   1      34.805  16.230   5.920  0.00  0.00    -0.393 OA
HETATM   17  H   UNK N   1      35.328  16.191   5.105  0.00  0.00     0.210 HD
ENDBRANCH   2  16
BRANCH   4  18
HETATM   18  C   UNK N   1      35.106  15.542   8.764  0.00  0.00     0.215 C 
BRANCH  18  19
HETATM   19  O   UNK N   1      35.116  15.939  10.104  0.00  0.00    -0.294 OA
BRANCH  19  20
HETATM   20  P   UNK N   1      35.926  14.642  10.934  0.00  0.00     0.390 P 
HETATM   21  O   UNK N   1      34.661  14.856  11.808  0.00  0.00    -0.632 OA
BRANCH  20  22
HETATM   22  O   UNK N   1      36.588  14.887  12.520  0.00  0.00    -0.307 OA
HETATM   23  H   UNK N   1      36.983  14.263  13.148  0.00  0.00     0.222 HD
ENDBRANCH  20  22
BRANCH  20  24
HETATM   24  O   UNK N   1      36.922  16.064  10.976  0.00  0.00    -0.307 OA
HETATM   25  H   UNK N   1      37.177  16.593  11.748  0.00  0.00     0.222 HD
ENDBRANCH  20  24
ENDBRANCH  19  20
ENDBRANCH  18  19
ENDBRANCH   4  18
TORSDOF 8
ENDMDL
MODEL 4
REMARK VINA RESULT:      -6.2      1.526      2.078
REMARK  8 active torsions:
REMARK  status: ('A' for Active; 'I' for Inactive)
REMARK    1  A    between atoms: C_10  and  C_5 
REMARK    2  A    between atoms: O_19  and  C_5 
REMARK    3  A    between atoms: C_9  and  C_7 
REMARK    4  A    between atoms: C_8  and  O_14 
REMARK    5  A    between atoms: O_15  and  C_11 
REMARK    6  A    between atoms: P_21  and  O_16 
REMARK    7  A    between atoms: P_21  and  O_17 
REMARK    8  A    between atoms: P_21  and  O_19 
ROOT
HETATM    1  C   UNK N   1      36.613  12.139  12.875  0.00  0.00     0.071 C 
HETATM    2  C   UNK N   1      36.782  13.269  11.920  0.00  0.00     0.152 C 
HETATM    3  C   UNK N   1      35.198  12.364  13.416  0.00  0.00     0.159 C 
HETATM    4  C   UNK N   1      35.985  14.323  12.659  0.00  0.00     0.175 C 
HETATM    5  O   UNK N   1      34.802  13.690  13.087  0.00  0.00    -0.371 OA
ENDROOT
BRANCH   3   6
HETATM    6  C   UNK N   1      35.186  12.133  14.909  0.00  0.00    -0.013 A 
HETATM    7  C   UNK N   1      35.229  13.204  15.811  0.00  0.00     0.022 A 
HETATM    8  C   UNK N   1      35.239  12.960  17.187  0.00  0.00    -0.011 A 
HETATM    9  C   UNK N   1      35.252  14.104  18.140  0.00  0.00     0.052 C 
HETATM   10  C   UNK N   1      35.234  11.634  17.645  0.00  0.00     0.145 A 
HETATM   11  N   UNK N   1      35.188  10.608  16.757  0.00  0.00    -0.346 N 
HETATM   12  C   UNK N   1      35.148  10.827  15.415  0.00  0.00     0.100 A 
ATOM     13  HN  UNK N   1      35.184   9.649  17.105  1.00  0.00     0.167 HD
BRANCH  10  14
HETATM   14  O   UNK N   1      35.271  11.370  18.965  0.00  0.00    -0.346 OA
HETATM   15  H   UNK N   1      35.161  12.037  19.613  0.00  0.00     0.219 HD
ENDBRANCH  10  14
ENDBRANCH   3   6
BRANCH   2  16
HETATM   16  O   UNK N   1      36.181  12.927  10.705  0.00  0.00    -0.393 OA
HETATM   17  H   UNK N   1      36.069  12.181  10.095  0.00  0.00     0.210 HD
ENDBRANCH   2  16
BRANCH   4  18
HETATM   18  C   UNK N   1      35.717  15.595  11.855  0.00  0.00     0.215 C 
BRANCH  18  19
HETATM   19  O   UNK N   1      34.539  15.510  11.107  0.00  0.00    -0.294 OA
BRANCH  19  20
HETATM   20  P   UNK N   1      34.949  16.219   9.573  0.00  0.00     0.390 P 
HETATM   21  O   UNK N   1      35.604  17.203  10.579  0.00  0.00    -0.632 OA
BRANCH  20  22
HETATM   22  O   UNK N   1      34.283  17.752   9.104  0.00  0.00    -0.307 OA
HETATM   23  H   UNK N   1      34.481  18.652   9.407  0.00  0.00     0.222 HD
ENDBRANCH  20  22
BRANCH  20  24
HETATM   24  O   UNK N   1      33.223  16.232   9.771  0.00  0.00    -0.307 OA
HETATM   25  H   UNK N   1      32.652  15.511  10.082  0.00  0.00     0.222 HD
ENDBRANCH  20  24
ENDBRANCH  19  20
ENDBRANCH  18  19
ENDBRANCH   4  18
TORSDOF 8
ENDMDL
MODEL 5
REMARK VINA RESULT:      -6.2     25.304     26.797
REMARK  8 active torsions:
REMARK  status: ('A' for Active; 'I' for Inactive)
REMARK    1  A    between atoms: C_10  and  C_5 
REMARK    2  A    between atoms: O_19  and  C_5 
REMARK    3  A    between atoms: C_9  and  C_7 
REMARK    4  A    between atoms: C_8  and  O_14 
REMARK    5  A    between atoms: O_15  and  C_11 
REMARK    6  A    between atoms: P_21  and  O_16 
REMARK    7  A    between atoms: P_21  and  O_17 
REMARK    8  A    between atoms: P_21  and  O_19 
ROOT
HETATM    1  C   UNK N   1      25.931  24.788  -4.870  0.00  0.00     0.071 C 
HETATM    2  C   UNK N   1      26.259  23.760  -5.896  0.00  0.00     0.152 C 
HETATM    3  C   UNK N   1      25.329  25.921  -5.708  0.00  0.00     0.159 C 
HETATM    4  C   UNK N   1      26.643  24.680  -7.036  0.00  0.00     0.175 C 
HETATM    5  O   UNK N   1      25.662  25.690  -7.072  0.00  0.00    -0.371 OA
ENDROOT
BRANCH   3   6
HETATM    6  C   UNK N   1      25.863  27.247  -5.221  0.00  0.00    -0.013 A 
HETATM    7  C   UNK N   1      26.858  27.935  -5.928  0.00  0.00     0.022 A 
HETATM    8  C   UNK N   1      27.348  29.150  -5.443  0.00  0.00    -0.011 A 
HETATM    9  C   UNK N   1      28.382  29.891  -6.216  0.00  0.00     0.052 C 
HETATM   10  C   UNK N   1      26.852  29.651  -4.230  0.00  0.00     0.145 A 
HETATM   11  N   UNK N   1      25.886  28.974  -3.559  0.00  0.00    -0.346 N 
HETATM   12  C   UNK N   1      25.374  27.804  -4.032  0.00  0.00     0.100 A 
ATOM     13  HN  UNK N   1      25.533  29.351  -2.679  1.00  0.00     0.167 HD
BRANCH  10  14
HETATM   14  O   UNK N   1      27.327  30.806  -3.725  0.00  0.00    -0.346 OA
HETATM   15  H   UNK N   1      26.848  31.608  -3.774  0.00  0.00     0.219 HD
ENDBRANCH  10  14
ENDBRANCH   3   6
BRANCH   2  16
HETATM   16  O   UNK N   1      25.103  23.031  -6.191  0.00  0.00    -0.393 OA
HETATM   17  H   UNK N   1      24.758  22.125  -6.202  0.00  0.00     0.210 HD
ENDBRANCH   2  16
BRANCH   4  18
HETATM   18  C   UNK N   1      26.818  23.980  -8.384  0.00  0.00     0.215 C 
BRANCH  18  19
HETATM   19  O   UNK N   1      25.635  23.384  -8.829  0.00  0.00    -0.294 OA
BRANCH  19  20
HETATM   20  P   UNK N   1      26.152  21.903  -9.581  0.00  0.00     0.390 P 
HETATM   21  O   UNK N   1      25.837  22.804 -10.805  0.00  0.00    -0.632 OA
BRANCH  20  22
HETATM   22  O   UNK N   1      25.034  20.939 -10.492  0.00  0.00    -0.307 OA
HETATM   23  H   UNK N   1      25.050  20.649 -11.418  0.00  0.00     0.222 HD
ENDBRANCH  20  22
BRANCH  20  24
HETATM   24  O   UNK N   1      24.702  21.612  -8.671  0.00  0.00    -0.307 OA
HETATM   25  H   UNK N   1      24.147  22.259  -8.208  0.00  0.00     0.222 HD
ENDBRANCH  20  24
ENDBRANCH  19  20
ENDBRANCH  18  19
ENDBRANCH   4  18
TORSDOF 8
ENDMDL
MODEL 6
REMARK VINA RESULT:      -6.1      2.562      3.954
REMARK  8 active torsions:
REMARK  status: ('A' for Active; 'I' for Inactive)
REMARK    1  A    between atoms: C_10  and  C_5 
REMARK    2  A    between atoms: O_19  and  C_5 
REMARK    3  A    between atoms: C_9  and  C_7 
REMARK    4  A    between atoms: C_8  and  O_14 
REMARK    5  A    between atoms: O_15  and  C_11 
REMARK    6  A    between atoms: P_21  and  O_16 
REMARK    7  A    between atoms: P_21  and  O_17 
REMARK    8  A    between atoms: P_21  and  O_19 
ROOT
HETATM    1  C   UNK N   1      36.737  13.409  10.911  0.00  0.00     0.071 C 
HETATM    2  C   UNK N   1      36.296  14.243   9.759  0.00  0.00     0.152 C 
HETATM    3  C   UNK N   1      35.412  12.897  11.484  0.00  0.00     0.159 C 
HETATM    4  C   UNK N   1      35.006  14.782  10.339  0.00  0.00     0.175 C 
HETATM    5  O   UNK N   1      34.360  13.687  10.943  0.00  0.00    -0.371 OA
ENDROOT
BRANCH   3   6
HETATM    6  C   UNK N   1      35.450  12.976  12.992  0.00  0.00    -0.013 A 
HETATM    7  C   UNK N   1      36.300  13.873  13.652  0.00  0.00     0.022 A 
HETATM    8  C   UNK N   1      36.329  13.910  15.048  0.00  0.00    -0.011 A 
HETATM    9  C   UNK N   1      37.212  14.887  15.743  0.00  0.00     0.052 C 
HETATM   10  C   UNK N   1      35.522  13.021  15.772  0.00  0.00     0.145 A 
HETATM   11  N   UNK N   1      34.700  12.161  15.117  0.00  0.00    -0.346 N 
HETATM   12  C   UNK N   1      34.636  12.132  13.758  0.00  0.00     0.100 A 
ATOM     13  HN  UNK N   1      34.116  11.521  15.657  1.00  0.00     0.167 HD
BRANCH  10  14
HETATM   14  O   UNK N   1      35.551  13.016  17.119  0.00  0.00    -0.346 OA
HETATM   15  H   UNK N   1      35.274  13.751  17.628  0.00  0.00     0.219 HD
ENDBRANCH  10  14
ENDBRANCH   3   6
BRANCH   2  16
HETATM   16  O   UNK N   1      36.057  13.408   8.663  0.00  0.00    -0.393 OA
HETATM   17  H   UNK N   1      35.526  12.643   8.391  0.00  0.00     0.210 HD
ENDBRANCH   2  16
BRANCH   4  18
HETATM   18  C   UNK N   1      34.115  15.513   9.334  0.00  0.00     0.215 C 
BRANCH  18  19
HETATM   19  O   UNK N   1      34.855  16.266   8.420  0.00  0.00    -0.294 OA
BRANCH  19  20
HETATM   20  P   UNK N   1      34.073  17.819   8.405  0.00  0.00     0.390 P 
HETATM   21  O   UNK N   1      34.699  17.750   6.986  0.00  0.00    -0.632 OA
BRANCH  20  22
HETATM   22  O   UNK N   1      35.010  19.278   8.324  0.00  0.00    -0.307 OA
HETATM   23  H   UNK N   1      35.630  19.673   8.957  0.00  0.00     0.222 HD
ENDBRANCH  20  22
BRANCH  20  24
HETATM   24  O   UNK N   1      35.326  17.817   9.607  0.00  0.00    -0.307 OA
HETATM   25  H   UNK N   1      35.891  17.077   9.880  0.00  0.00     0.222 HD
ENDBRANCH  20  24
ENDBRANCH  19  20
ENDBRANCH  18  19
ENDBRANCH   4  18
TORSDOF 8
ENDMDL
MODEL 7
REMARK VINA RESULT:      -5.8      2.539      3.811
REMARK  8 active torsions:
REMARK  status: ('A' for Active; 'I' for Inactive)
REMARK    1  A    between atoms: C_10  and  C_5 
REMARK    2  A    between atoms: O_19  and  C_5 
REMARK    3  A    between atoms: C_9  and  C_7 
REMARK    4  A    between atoms: C_8  and  O_14 
REMARK    5  A    between atoms: O_15  and  C_11 
REMARK    6  A    between atoms: P_21  and  O_16 
REMARK    7  A    between atoms: P_21  and  O_17 
REMARK    8  A    between atoms: P_21  and  O_19 
ROOT
HETATM    1  C   UNK N   1      36.712  13.678  10.892  0.00  0.00     0.071 C 
HETATM    2  C   UNK N   1      36.647  14.904  10.050  0.00  0.00     0.152 C 
HETATM    3  C   UNK N   1      35.281  13.563  11.429  0.00  0.00     0.159 C 
HETATM    4  C   UNK N   1      35.657  15.702  10.870  0.00  0.00     0.175 C 
HETATM    5  O   UNK N   1      34.626  14.808  11.218  0.00  0.00    -0.371 OA
ENDROOT
BRANCH   3   6
HETATM    6  C   UNK N   1      35.320  13.195  12.893  0.00  0.00    -0.013 A 
HETATM    7  C   UNK N   1      34.644  12.067  13.378  0.00  0.00     0.022 A 
HETATM    8  C   UNK N   1      34.681  11.763  14.741  0.00  0.00    -0.011 A 
HETATM    9  C   UNK N   1      33.987  10.545  15.245  0.00  0.00     0.052 C 
HETATM   10  C   UNK N   1      35.374  12.615  15.613  0.00  0.00     0.145 A 
HETATM   11  N   UNK N   1      36.026  13.701  15.126  0.00  0.00    -0.346 N 
HETATM   12  C   UNK N   1      36.028  13.997  13.798  0.00  0.00     0.100 A 
ATOM     13  HN  UNK N   1      36.528  14.311  15.772  1.00  0.00     0.167 HD
BRANCH  10  14
HETATM   14  O   UNK N   1      35.401  12.360  16.936  0.00  0.00    -0.346 OA
HETATM   15  H   UNK N   1      35.010  11.595  17.306  0.00  0.00     0.219 HD
ENDBRANCH  10  14
ENDBRANCH   3   6
BRANCH   2  16
HETATM   16  O   UNK N   1      36.124  14.565   8.798  0.00  0.00    -0.393 OA
HETATM   17  H   UNK N   1      35.336  14.685   8.246  0.00  0.00     0.210 HD
ENDBRANCH   2  16
BRANCH   4  18
HETATM   18  C   UNK N   1      35.135  16.965  10.183  0.00  0.00     0.215 C 
BRANCH  18  19
HETATM   19  O   UNK N   1      34.239  16.675   9.151  0.00  0.00    -0.294 OA
BRANCH  19  20
HETATM   20  P   UNK N   1      34.338  18.051   8.092  0.00  0.00     0.390 P 
HETATM   21  O   UNK N   1      32.811  17.937   8.346  0.00  0.00    -0.632 OA
BRANCH  20  22
HETATM   22  O   UNK N   1      33.683  17.977   6.487  0.00  0.00    -0.307 OA
HETATM   23  H   UNK N   1      33.847  18.529   5.706  0.00  0.00     0.222 HD
ENDBRANCH  20  22
BRANCH  20  24
HETATM   24  O   UNK N   1      34.906  16.638   7.257  0.00  0.00    -0.307 OA
HETATM   25  H   UNK N   1      34.416  15.825   7.056  0.00  0.00     0.222 HD
ENDBRANCH  20  24
ENDBRANCH  19  20
ENDBRANCH  18  19
ENDBRANCH   4  18
TORSDOF 8
ENDMDL
MODEL 8
REMARK VINA RESULT:      -5.7      4.767      8.636
REMARK  8 active torsions:
REMARK  status: ('A' for Active; 'I' for Inactive)
REMARK    1  A    between atoms: C_10  and  C_5 
REMARK    2  A    between atoms: O_19  and  C_5 
REMARK    3  A    between atoms: C_9  and  C_7 
REMARK    4  A    between atoms: C_8  and  O_14 
REMARK    5  A    between atoms: O_15  and  C_11 
REMARK    6  A    between atoms: P_21  and  O_16 
REMARK    7  A    between atoms: P_21  and  O_17 
REMARK    8  A    between atoms: P_21  and  O_19 
ROOT
HETATM    1  C   UNK N   1      36.034  14.679   9.063  0.00  0.00     0.071 C 
HETATM    2  C   UNK N   1      36.321  13.693  10.143  0.00  0.00     0.152 C 
HETATM    3  C   UNK N   1      35.068  15.654   9.745  0.00  0.00     0.159 C 
HETATM    4  C   UNK N   1      34.968  13.689  10.823  0.00  0.00     0.175 C 
HETATM    5  O   UNK N   1      34.580  15.038  10.931  0.00  0.00    -0.371 OA
ENDROOT
BRANCH   3   6
HETATM    6  C   UNK N   1      33.946  15.999   8.795  0.00  0.00    -0.013 A 
HETATM    7  C   UNK N   1      34.200  16.613   7.562  0.00  0.00     0.022 A 
HETATM    8  C   UNK N   1      33.140  16.940   6.712  0.00  0.00    -0.011 A 
HETATM    9  C   UNK N   1      33.420  17.563   5.389  0.00  0.00     0.052 C 
HETATM   10  C   UNK N   1      31.827  16.674   7.125  0.00  0.00     0.145 A 
HETATM   11  N   UNK N   1      31.598  16.076   8.322  0.00  0.00    -0.346 N 
HETATM   12  C   UNK N   1      32.619  15.722   9.149  0.00  0.00     0.100 A 
ATOM     13  HN  UNK N   1      30.637  15.886   8.608  1.00  0.00     0.167 HD
BRANCH  10  14
HETATM   14  O   UNK N   1      30.785  17.005   6.337  0.00  0.00    -0.346 OA
HETATM   15  H   UNK N   1      30.329  16.373   5.818  0.00  0.00     0.219 HD
ENDBRANCH  10  14
ENDBRANCH   3   6
BRANCH   2  16
HETATM   16  O   UNK N   1      37.315  14.214  10.977  0.00  0.00    -0.393 OA
HETATM   17  H   UNK N   1      37.437  14.640  11.839  0.00  0.00     0.210 HD
ENDBRANCH   2  16
BRANCH   4  18
HETATM   18  C   UNK N   1      34.936  12.956  12.164  0.00  0.00     0.215 C 
BRANCH  18  19
HETATM   19  O   UNK N   1      34.993  13.834  13.250  0.00  0.00    -0.294 OA
BRANCH  19  20
HETATM   20  P   UNK N   1      36.133  13.100  14.340  0.00  0.00     0.390 P 
HETATM   21  O   UNK N   1      34.944  13.437  15.279  0.00  0.00    -0.632 OA
BRANCH  20  22
HETATM   22  O   UNK N   1      36.883  14.038  15.593  0.00  0.00    -0.307 OA
HETATM   23  H   UNK N   1      36.669  14.130  16.534  0.00  0.00     0.222 HD
ENDBRANCH  20  22
BRANCH  20  24
HETATM   24  O   UNK N   1      36.811  14.564  13.696  0.00  0.00    -0.307 OA
HETATM   25  H   UNK N   1      36.807  14.870  12.775  0.00  0.00     0.222 HD
ENDBRANCH  20  24
ENDBRANCH  19  20
ENDBRANCH  18  19
ENDBRANCH   4  18
TORSDOF 8
ENDMDL
MODEL 9
REMARK VINA RESULT:      -5.6     20.224     23.510
REMARK  8 active torsions:
REMARK  status: ('A' for Active; 'I' for Inactive)
REMARK    1  A    between atoms: C_10  and  C_5 
REMARK    2  A    between atoms: O_19  and  C_5 
REMARK    3  A    between atoms: C_9  and  C_7 
REMARK    4  A    between atoms: C_8  and  O_14 
REMARK    5  A    between atoms: O_15  and  C_11 
REMARK    6  A    between atoms: P_21  and  O_16 
REMARK    7  A    between atoms: P_21  and  O_17 
REMARK    8  A    between atoms: P_21  and  O_19 
ROOT
HETATM    1  C   UNK N   1      29.090  24.432  -6.189  0.00  0.00     0.071 C 
HETATM    2  C   UNK N   1      28.040  25.480  -6.054  0.00  0.00     0.152 C 
HETATM    3  C   UNK N   1      28.556  23.304  -5.299  0.00  0.00     0.159 C 
HETATM    4  C   UNK N   1      27.650  25.236  -4.611  0.00  0.00     0.175 C 
HETATM    5  O   UNK N   1      27.536  23.840  -4.466  0.00  0.00    -0.371 OA
ENDROOT
BRANCH   3   6
HETATM    6  C   UNK N   1      29.690  22.723  -4.487  0.00  0.00    -0.013 A 
HETATM    7  C   UNK N   1      30.403  21.602  -4.931  0.00  0.00     0.022 A 
HETATM    8  C   UNK N   1      31.433  21.074  -4.148  0.00  0.00    -0.011 A 
HETATM    9  C   UNK N   1      32.208  19.901  -4.641  0.00  0.00     0.052 C 
HETATM   10  C   UNK N   1      31.719  21.662  -2.908  0.00  0.00     0.145 A 
HETATM   11  N   UNK N   1      31.020  22.750  -2.494  0.00  0.00    -0.346 N 
HETATM   12  C   UNK N   1      30.034  23.297  -3.257  0.00  0.00     0.100 A 
ATOM     13  HN  UNK N   1      31.241  23.169  -1.590  1.00  0.00     0.167 HD
BRANCH  10  14
HETATM   14  O   UNK N   1      32.688  21.156  -2.121  0.00  0.00    -0.346 OA
HETATM   15  H   UNK N   1      33.401  20.655  -2.464  0.00  0.00     0.219 HD
ENDBRANCH  10  14
ENDBRANCH   3   6
BRANCH   2  16
HETATM   16  O   UNK N   1      26.991  25.183  -6.928  0.00  0.00    -0.393 OA
HETATM   17  H   UNK N   1      26.087  25.455  -7.152  0.00  0.00     0.210 HD
ENDBRANCH   2  16
BRANCH   4  18
HETATM   18  C   UNK N   1      26.393  25.981  -4.161  0.00  0.00     0.215 C 
BRANCH  18  19
HETATM   19  O   UNK N   1      26.256  27.220  -4.792  0.00  0.00    -0.294 OA
BRANCH  19  20
HETATM   20  P   UNK N   1      26.813  28.371  -3.613  0.00  0.00     0.390 P 
HETATM   21  O   UNK N   1      25.386  28.035  -3.102  0.00  0.00    -0.632 OA
BRANCH  20  22
HETATM   22  O   UNK N   1      26.069  29.934  -3.487  0.00  0.00    -0.307 OA
HETATM   23  H   UNK N   1      25.375  30.264  -2.894  0.00  0.00     0.222 HD
ENDBRANCH  20  22
BRANCH  20  24
HETATM   24  O   UNK N   1      26.719  29.139  -5.168  0.00  0.00    -0.307 OA
HETATM   25  H   UNK N   1      27.263  28.968  -5.953  0.00  0.00     0.222 HD
ENDBRANCH  20  24
ENDBRANCH  19  20
ENDBRANCH  18  19
ENDBRANCH   4  18
TORSDOF 8
ENDMDL
