MODEL 1
REMARK VINA RESULT:      -4.6      0.000      0.000
REMARK  5 active torsions:
REMARK  status: ('A' for Active; 'I' for Inactive)
REMARK    1  A    between atoms: N_1  and  C_2 
REMARK    2  A    between atoms: C_2  and  C_3 
REMARK    3  A    between atoms: C_3  and  C_4 
REMARK    4  A    between atoms: C_4  and  C_5 
REMARK    5  A    between atoms: C_5  and  C_6 
ROOT
HETATM    1  C   UNK N   1      19.971  14.724   9.286  0.00  0.00     0.038 C 
ENDROOT
BRANCH   1   2
HETATM    2  C   UNK N   1      20.678  15.882   8.595  0.00  0.00     0.006 C 
BRANCH   2   3
HETATM    3  C   UNK N   1      19.901  17.172   8.728  0.00  0.00     0.019 C 
BRANCH   3   4
HETATM    4  C   UNK N   1      18.454  16.813   8.999  0.00  0.00     0.111 C 
BRANCH   4   5
HETATM    5  N   UNK N   1      17.760  17.947   9.578  0.00  0.00    -0.430 N 
HETATM    6  H   UNK N   1      18.040  18.304  10.491  0.00  0.00     0.149 HD
HETATM    7  H   UNK N   1      16.991  18.387   9.072  0.00  0.00     0.149 HD
ENDBRANCH   4   5
ENDBRANCH   3   4
ENDBRANCH   2   3
ENDBRANCH   1   2
BRANCH   1   8
HETATM    8  C   UNK N   1      20.937  13.756   9.915  0.00  0.00    -0.058 A 
HETATM    9  C   UNK N   1      22.281  13.788   9.527  0.00  0.00     0.007 A 
HETATM   10  C   UNK N   1      23.200  12.899  10.096  0.00  0.00     0.001 A 
HETATM   11  C   UNK N   1      22.779  11.974  11.056  0.00  0.00     0.000 A 
HETATM   12  C   UNK N   1      21.440  11.936  11.449  0.00  0.00     0.001 A 
HETATM   13  C   UNK N   1      20.522  12.823  10.881  0.00  0.00     0.007 A 
ENDBRANCH   1   8
TORSDOF 5
ENDMDL
MODEL 2
REMARK VINA RESULT:      -4.6     14.496     15.998
REMARK  5 active torsions:
REMARK  status: ('A' for Active; 'I' for Inactive)
REMARK    1  A    between atoms: N_1  and  C_2 
REMARK    2  A    between atoms: C_2  and  C_3 
REMARK    3  A    between atoms: C_3  and  C_4 
REMARK    4  A    between atoms: C_4  and  C_5 
REMARK    5  A    between atoms: C_5  and  C_6 
ROOT
HETATM    1  C   UNK N   1      34.820  10.341  15.702  0.00  0.00     0.038 C 
ENDROOT
BRANCH   1   2
HETATM    2  C   UNK N   1      33.655  10.723  14.800  0.00  0.00     0.006 C 
BRANCH   2   3
HETATM    3  C   UNK N   1      33.996  10.546  13.338  0.00  0.00     0.019 C 
BRANCH   3   4
HETATM    4  C   UNK N   1      34.938  11.667  12.946  0.00  0.00     0.111 C 
BRANCH   4   5
HETATM    5  N   UNK N   1      34.442  12.344  11.764  0.00  0.00    -0.430 N 
HETATM    6  H   UNK N   1      34.859  12.153  10.853  0.00  0.00     0.149 HD
HETATM    7  H   UNK N   1      33.674  13.012  11.843  0.00  0.00     0.149 HD
ENDBRANCH   4   5
ENDBRANCH   3   4
ENDBRANCH   2   3
ENDBRANCH   1   2
BRANCH   1   8
HETATM    8  C   UNK N   1      34.985  11.290  16.859  0.00  0.00    -0.058 A 
HETATM    9  C   UNK N   1      34.947  12.668  16.618  0.00  0.00     0.007 A 
HETATM   10  C   UNK N   1      35.098  13.572  17.676  0.00  0.00     0.001 A 
HETATM   11  C   UNK N   1      35.287  13.102  18.978  0.00  0.00     0.000 A 
HETATM   12  C   UNK N   1      35.326  11.729  19.227  0.00  0.00     0.001 A 
HETATM   13  C   UNK N   1      35.176  10.826  18.172  0.00  0.00     0.007 A 
ENDBRANCH   1   8
TORSDOF 5
ENDMDL
MODEL 3
REMARK VINA RESULT:      -4.6     14.510     16.018
REMARK  5 active torsions:
REMARK  status: ('A' for Active; 'I' for Inactive)
REMARK    1  A    between atoms: N_1  and  C_2 
REMARK    2  A    between atoms: C_2  and  C_3 
REMARK    3  A    between atoms: C_3  and  C_4 
REMARK    4  A    between atoms: C_4  and  C_5 
REMARK    5  A    between atoms: C_5  and  C_6 
ROOT
HETATM    1  C   UNK N   1      34.754  10.314  15.692  0.00  0.00     0.038 C 
ENDROOT
BRANCH   1   2
HETATM    2  C   UNK N   1      33.645  10.736  14.738  0.00  0.00     0.006 C 
BRANCH   2   3
HETATM    3  C   UNK N   1      34.051  10.555  13.292  0.00  0.00     0.019 C 
BRANCH   3   4
HETATM    4  C   UNK N   1      34.967  11.705  12.924  0.00  0.00     0.111 C 
BRANCH   4   5
HETATM    5  N   UNK N   1      34.435  12.418  11.779  0.00  0.00    -0.430 N 
HETATM    6  H   UNK N   1      35.066  12.778  11.063  0.00  0.00     0.149 HD
HETATM    7  H   UNK N   1      33.428  12.560  11.690  0.00  0.00     0.149 HD
ENDBRANCH   4   5
ENDBRANCH   3   4
ENDBRANCH   2   3
ENDBRANCH   1   2
BRANCH   1   8
HETATM    8  C   UNK N   1      34.948  11.298  16.816  0.00  0.00    -0.058 A 
HETATM    9  C   UNK N   1      35.151  10.815  18.113  0.00  0.00     0.007 A 
HETATM   10  C   UNK N   1      35.334  11.707  19.176  0.00  0.00     0.001 A 
HETATM   11  C   UNK N   1      35.315  13.086  18.945  0.00  0.00     0.000 A 
HETATM   12  C   UNK N   1      35.113  13.575  17.654  0.00  0.00     0.001 A 
HETATM   13  C   UNK N   1      34.930  12.685  16.592  0.00  0.00     0.007 A 
ENDBRANCH   1   8
TORSDOF 5
ENDMDL
MODEL 4
REMARK VINA RESULT:      -4.6     15.974     16.839
REMARK  5 active torsions:
REMARK  status: ('A' for Active; 'I' for Inactive)
REMARK    1  A    between atoms: N_1  and  C_2 
REMARK    2  A    between atoms: C_2  and  C_3 
REMARK    3  A    between atoms: C_3  and  C_4 
REMARK    4  A    between atoms: C_4  and  C_5 
REMARK    5  A    between atoms: C_5  and  C_6 
ROOT
HETATM    1  C   UNK N   1      35.112  13.086  15.613  0.00  0.00     0.038 C 
ENDROOT
BRANCH   1   2
HETATM    2  C   UNK N   1      36.443  13.509  15.006  0.00  0.00     0.006 C 
BRANCH   2   3
HETATM    3  C   UNK N   1      36.256  14.222  13.686  0.00  0.00     0.019 C 
BRANCH   3   4
HETATM    4  C   UNK N   1      36.383  13.190  12.583  0.00  0.00     0.111 C 
BRANCH   4   5
HETATM    5  N   UNK N   1      37.529  13.492  11.749  0.00  0.00    -0.430 N 
HETATM    6  H   UNK N   1      37.477  14.245  11.062  0.00  0.00     0.149 HD
HETATM    7  H   UNK N   1      38.390  12.952  11.848  0.00  0.00     0.149 HD
ENDBRANCH   4   5
ENDBRANCH   3   4
ENDBRANCH   2   3
ENDBRANCH   1   2
BRANCH   1   8
HETATM    8  C   UNK N   1      35.267  12.534  17.005  0.00  0.00    -0.058 A 
HETATM    9  C   UNK N   1      35.085  13.388  18.098  0.00  0.00     0.007 A 
HETATM   10  C   UNK N   1      35.223  12.901  19.404  0.00  0.00     0.001 A 
HETATM   11  C   UNK N   1      35.543  11.557  19.620  0.00  0.00     0.000 A 
HETATM   12  C   UNK N   1      35.726  10.699  18.535  0.00  0.00     0.001 A 
HETATM   13  C   UNK N   1      35.589  11.185  17.232  0.00  0.00     0.007 A 
ENDBRANCH   1   8
TORSDOF 5
ENDMDL
MODEL 5
REMARK VINA RESULT:      -4.5     18.771     19.729
REMARK  5 active torsions:
REMARK  status: ('A' for Active; 'I' for Inactive)
REMARK    1  A    between atoms: N_1  and  C_2 
REMARK    2  A    between atoms: C_2  and  C_3 
REMARK    3  A    between atoms: C_3  and  C_4 
REMARK    4  A    between atoms: C_4  and  C_5 
REMARK    5  A    between atoms: C_5  and  C_6 
ROOT
HETATM    1  C   UNK N   1      26.195  23.738  -5.365  0.00  0.00     0.038 C 
ENDROOT
BRANCH   1   2
HETATM    2  C   UNK N   1      25.642  23.410  -6.745  0.00  0.00     0.006 C 
BRANCH   2   3
HETATM    3  C   UNK N   1      26.347  22.225  -7.364  0.00  0.00     0.019 C 
BRANCH   3   4
HETATM    4  C   UNK N   1      25.285  21.278  -7.887  0.00  0.00     0.111 C 
BRANCH   4   5
HETATM    5  N   UNK N   1      23.967  21.839  -7.664  0.00  0.00    -0.430 N 
HETATM    6  H   UNK N   1      23.635  22.002  -6.713  0.00  0.00     0.149 HD
HETATM    7  H   UNK N   1      23.370  22.071  -8.459  0.00  0.00     0.149 HD
ENDBRANCH   4   5
ENDBRANCH   3   4
ENDBRANCH   2   3
ENDBRANCH   1   2
BRANCH   1   8
HETATM    8  C   UNK N   1      25.946  25.171  -4.973  0.00  0.00    -0.058 A 
HETATM    9  C   UNK N   1      26.460  25.642  -3.761  0.00  0.00     0.007 A 
HETATM   10  C   UNK N   1      26.243  26.970  -3.372  0.00  0.00     0.001 A 
HETATM   11  C   UNK N   1      25.512  27.830  -4.196  0.00  0.00     0.000 A 
HETATM   12  C   UNK N   1      24.996  27.367  -5.408  0.00  0.00     0.001 A 
HETATM   13  C   UNK N   1      25.212  26.043  -5.796  0.00  0.00     0.007 A 
ENDBRANCH   1   8
TORSDOF 5
ENDMDL
MODEL 6
REMARK VINA RESULT:      -4.3      9.354     10.662
REMARK  5 active torsions:
REMARK  status: ('A' for Active; 'I' for Inactive)
REMARK    1  A    between atoms: N_1  and  C_2 
REMARK    2  A    between atoms: C_2  and  C_3 
REMARK    3  A    between atoms: C_3  and  C_4 
REMARK    4  A    between atoms: C_4  and  C_5 
REMARK    5  A    between atoms: C_5  and  C_6 
ROOT
HETATM    1  C   UNK N   1      28.568  17.969   7.386  0.00  0.00     0.038 C 
ENDROOT
BRANCH   1   2
HETATM    2  C   UNK N   1      28.363  18.362   8.843  0.00  0.00     0.006 C 
BRANCH   2   3
HETATM    3  C   UNK N   1      29.679  18.572   9.557  0.00  0.00     0.019 C 
BRANCH   3   4
HETATM    4  C   UNK N   1      30.772  17.979   8.691  0.00  0.00     0.111 C 
BRANCH   4   5
HETATM    5  N   UNK N   1      31.322  16.797   9.325  0.00  0.00    -0.430 N 
HETATM    6  H   UNK N   1      32.169  16.365   8.953  0.00  0.00     0.149 HD
HETATM    7  H   UNK N   1      30.863  16.396  10.144  0.00  0.00     0.149 HD
ENDBRANCH   4   5
ENDBRANCH   3   4
ENDBRANCH   2   3
ENDBRANCH   1   2
BRANCH   1   8
HETATM    8  C   UNK N   1      27.972  18.971   6.433  0.00  0.00    -0.058 A 
HETATM    9  C   UNK N   1      27.980  18.692   5.062  0.00  0.00     0.007 A 
HETATM   10  C   UNK N   1      27.433  19.606   4.153  0.00  0.00     0.001 A 
HETATM   11  C   UNK N   1      26.877  20.803   4.613  0.00  0.00     0.000 A 
HETATM   12  C   UNK N   1      26.866  21.089   5.979  0.00  0.00     0.001 A 
HETATM   13  C   UNK N   1      27.411  20.177   6.886  0.00  0.00     0.007 A 
ENDBRANCH   1   8
TORSDOF 5
ENDMDL
MODEL 7
REMARK VINA RESULT:      -4.3     10.551     12.103
REMARK  5 active torsions:
REMARK  status: ('A' for Active; 'I' for Inactive)
REMARK    1  A    between atoms: N_1  and  C_2 
REMARK    2  A    between atoms: C_2  and  C_3 
REMARK    3  A    between atoms: C_3  and  C_4 
REMARK    4  A    between atoms: C_4  and  C_5 
REMARK    5  A    between atoms: C_5  and  C_6 
ROOT
HETATM    1  C   UNK N   1      31.774  16.586   6.955  0.00  0.00     0.038 C 
ENDROOT
BRANCH   1   2
HETATM    2  C   UNK N   1      32.881  17.569   6.598  0.00  0.00     0.006 C 
BRANCH   2   3
HETATM    3  C   UNK N   1      34.215  17.140   7.165  0.00  0.00     0.019 C 
BRANCH   3   4
HETATM    4  C   UNK N   1      34.528  18.045   8.340  0.00  0.00     0.111 C 
BRANCH   4   5
HETATM    5  N   UNK N   1      34.327  17.331   9.586  0.00  0.00    -0.430 N 
HETATM    6  H   UNK N   1      35.116  17.159  10.209  0.00  0.00     0.149 HD
HETATM    7  H   UNK N   1      33.395  17.000   9.839  0.00  0.00     0.149 HD
ENDBRANCH   4   5
ENDBRANCH   3   4
ENDBRANCH   2   3
ENDBRANCH   1   2
BRANCH   1   8
HETATM    8  C   UNK N   1      30.630  17.248   7.676  0.00  0.00    -0.058 A 
HETATM    9  C   UNK N   1      29.330  17.075   7.190  0.00  0.00     0.007 A 
HETATM   10  C   UNK N   1      28.247  17.679   7.841  0.00  0.00     0.001 A 
HETATM   11  C   UNK N   1      28.463  18.459   8.981  0.00  0.00     0.000 A 
HETATM   12  C   UNK N   1      29.757  18.637   9.472  0.00  0.00     0.001 A 
HETATM   13  C   UNK N   1      30.837  18.034   8.823  0.00  0.00     0.007 A 
ENDBRANCH   1   8
TORSDOF 5
ENDMDL
MODEL 8
REMARK VINA RESULT:      -4.3      9.431     10.830
REMARK  5 active torsions:
REMARK  status: ('A' for Active; 'I' for Inactive)
REMARK    1  A    between atoms: N_1  and  C_2 
REMARK    2  A    between atoms: C_2  and  C_3 
REMARK    3  A    between atoms: C_3  and  C_4 
REMARK    4  A    between atoms: C_4  and  C_5 
REMARK    5  A    between atoms: C_5  and  C_6 
ROOT
HETATM    1  C   UNK N   1      28.339  17.858   7.719  0.00  0.00     0.038 C 
ENDROOT
BRANCH   1   2
HETATM    2  C   UNK N   1      28.731  18.503   9.041  0.00  0.00     0.006 C 
BRANCH   2   3
HETATM    3  C   UNK N   1      30.228  18.677   9.157  0.00  0.00     0.019 C 
BRANCH   3   4
HETATM    4  C   UNK N   1      30.882  17.451   8.550  0.00  0.00     0.111 C 
BRANCH   4   5
HETATM    5  N   UNK N   1      32.270  17.373   8.963  0.00  0.00    -0.430 N 
HETATM    6  H   UNK N   1      33.013  17.585   8.297  0.00  0.00     0.149 HD
HETATM    7  H   UNK N   1      32.504  17.105   9.919  0.00  0.00     0.149 HD
ENDBRANCH   4   5
ENDBRANCH   3   4
ENDBRANCH   2   3
ENDBRANCH   1   2
BRANCH   1   8
HETATM    8  C   UNK N   1      27.938  18.874   6.682  0.00  0.00    -0.058 A 
HETATM    9  C   UNK N   1      27.411  20.100   7.101  0.00  0.00     0.007 A 
HETATM   10  C   UNK N   1      27.030  21.063   6.158  0.00  0.00     0.001 A 
HETATM   11  C   UNK N   1      27.175  20.801   4.793  0.00  0.00     0.000 A 
HETATM   12  C   UNK N   1      27.700  19.580   4.367  0.00  0.00     0.001 A 
HETATM   13  C   UNK N   1      28.080  18.619   5.307  0.00  0.00     0.007 A 
ENDBRANCH   1   8
TORSDOF 5
ENDMDL
MODEL 9
REMARK VINA RESULT:      -4.3      9.929     11.099
REMARK  5 active torsions:
REMARK  status: ('A' for Active; 'I' for Inactive)
REMARK    1  A    between atoms: N_1  and  C_2 
REMARK    2  A    between atoms: C_2  and  C_3 
REMARK    3  A    between atoms: C_3  and  C_4 
REMARK    4  A    between atoms: C_4  and  C_5 
REMARK    5  A    between atoms: C_5  and  C_6 
ROOT
HETATM    1  C   UNK N   1      29.948  16.622   6.102  0.00  0.00     0.038 C 
ENDROOT
BRANCH   1   2
HETATM    2  C   UNK N   1      28.836  17.008   7.068  0.00  0.00     0.006 C 
BRANCH   2   3
HETATM    3  C   UNK N   1      28.105  18.251   6.614  0.00  0.00     0.019 C 
BRANCH   3   4
HETATM    4  C   UNK N   1      28.074  19.218   7.781  0.00  0.00     0.111 C 
BRANCH   4   5
HETATM    5  N   UNK N   1      27.721  18.516   8.999  0.00  0.00    -0.430 N 
HETATM    6  H   UNK N   1      28.442  18.035   9.538  0.00  0.00     0.149 HD
HETATM    7  H   UNK N   1      26.751  18.502   9.318  0.00  0.00     0.149 HD
ENDBRANCH   4   5
ENDBRANCH   3   4
ENDBRANCH   2   3
ENDBRANCH   1   2
BRANCH   1   8
HETATM    8  C   UNK N   1      31.304  17.068   6.583  0.00  0.00    -0.058 A 
HETATM    9  C   UNK N   1      32.368  17.105   5.674  0.00  0.00     0.007 A 
HETATM   10  C   UNK N   1      33.639  17.515   6.094  0.00  0.00     0.001 A 
HETATM   11  C   UNK N   1      33.850  17.889   7.424  0.00  0.00     0.000 A 
HETATM   12  C   UNK N   1      32.795  17.855   8.336  0.00  0.00     0.001 A 
HETATM   13  C   UNK N   1      31.526  17.445   7.918  0.00  0.00     0.007 A 
ENDBRANCH   1   8
TORSDOF 5
ENDMDL
