MODEL 1
REMARK VINA RESULT:      -3.2      0.000      0.000
REMARK  2 active torsions:
REMARK  status: ('A' for Active; 'I' for Inactive)
REMARK    1  A    between atoms: O_1  and  C_2 
REMARK    2  A    between atoms: C_2  and  C_3 
ROOT
HETATM    1  C   UNK N   1      24.341  12.187  10.693  0.00  0.00     0.209 C 
ENDROOT
BRANCH   1   2
HETATM    2  O   UNK N   1      25.412  12.747  11.394  0.00  0.00    -0.396 OA
HETATM    3  H   UNK N   1      25.959  12.189  11.969  0.00  0.00     0.209 HD
ENDBRANCH   1   2
BRANCH   1   4
HETATM    4  C   UNK N   1      23.086  12.137  11.519  0.00  0.00     0.003 C 
HETATM    5 Br   UNK N   1      21.416  12.485  10.665  0.00  0.00    -0.054 Br
HETATM    6  C   UNK N   1      23.107  11.858  12.823  0.00  0.00     0.029 C 
ENDBRANCH   1   4
TORSDOF 2
ENDMDL
MODEL 2
REMARK VINA RESULT:      -3.2      1.295      2.034
REMARK  2 active torsions:
REMARK  status: ('A' for Active; 'I' for Inactive)
REMARK    1  A    between atoms: O_1  and  C_2 
REMARK    2  A    between atoms: C_2  and  C_3 
ROOT
HETATM    1  C   UNK N   1      23.135  11.767  12.964  0.00  0.00     0.209 C 
ENDROOT
BRANCH   1   2
HETATM    2  O   UNK N   1      23.942  12.543  13.801  0.00  0.00    -0.396 OA
HETATM    3  H   UNK N   1      24.844  12.253  14.010  0.00  0.00     0.209 HD
ENDBRANCH   1   2
BRANCH   1   4
HETATM    4  C   UNK N   1      23.332  12.105  11.513  0.00  0.00     0.003 C 
HETATM    5 Br   UNK N   1      21.799  12.527  10.458  0.00  0.00    -0.054 Br
HETATM    6  C   UNK N   1      24.539  12.119  10.945  0.00  0.00     0.029 C 
ENDBRANCH   1   4
TORSDOF 2
ENDMDL
MODEL 3
REMARK VINA RESULT:      -3.0     12.483     12.862
REMARK  2 active torsions:
REMARK  status: ('A' for Active; 'I' for Inactive)
REMARK    1  A    between atoms: O_1  and  C_2 
REMARK    2  A    between atoms: C_2  and  C_3 
ROOT
HETATM    1  C   UNK N   1      20.640  21.072   1.149  0.00  0.00     0.209 C 
ENDROOT
BRANCH   1   2
HETATM    2  O   UNK N   1      20.607  20.480  -0.116  0.00  0.00    -0.396 OA
HETATM    3  H   UNK N   1      20.210  20.954  -0.864  0.00  0.00     0.209 HD
ENDBRANCH   1   2
BRANCH   1   4
HETATM    4  C   UNK N   1      21.003  20.090   2.227  0.00  0.00     0.003 C 
HETATM    5 Br   UNK N   1      19.752  18.720   2.673  0.00  0.00    -0.054 Br
HETATM    6  C   UNK N   1      22.166  20.148   2.876  0.00  0.00     0.029 C 
ENDBRANCH   1   4
TORSDOF 2
ENDMDL
MODEL 4
REMARK VINA RESULT:      -2.9      2.698      2.874
REMARK  2 active torsions:
REMARK  status: ('A' for Active; 'I' for Inactive)
REMARK    1  A    between atoms: O_1  and  C_2 
REMARK    2  A    between atoms: C_2  and  C_3 
ROOT
HETATM    1  C   UNK N   1      21.611  12.209  10.997  0.00  0.00     0.209 C 
ENDROOT
BRANCH   1   2
HETATM    2  O   UNK N   1      20.618  11.785  11.884  0.00  0.00    -0.396 OA
HETATM    3  H   UNK N   1      20.220  10.906  11.781  0.00  0.00     0.209 HD
ENDBRANCH   1   2
BRANCH   1   4
HETATM    4  C   UNK N   1      22.988  12.094  11.587  0.00  0.00     0.003 C 
HETATM    5 Br   UNK N   1      24.495  12.285  10.433  0.00  0.00    -0.054 Br
HETATM    6  C   UNK N   1      23.185  11.863  12.886  0.00  0.00     0.029 C 
ENDBRANCH   1   4
TORSDOF 2
ENDMDL
MODEL 5
REMARK VINA RESULT:      -2.7     19.042     19.147
REMARK  2 active torsions:
REMARK  status: ('A' for Active; 'I' for Inactive)
REMARK    1  A    between atoms: O_1  and  C_2 
REMARK    2  A    between atoms: C_2  and  C_3 
ROOT
HETATM    1  C   UNK N   1      32.631  21.278  -3.268  0.00  0.00     0.209 C 
ENDROOT
BRANCH   1   2
HETATM    2  O   UNK N   1      32.870  21.110  -1.902  0.00  0.00    -0.396 OA
HETATM    3  H   UNK N   1      33.727  21.362  -1.525  0.00  0.00     0.209 HD
ENDBRANCH   1   2
BRANCH   1   4
HETATM    4  C   UNK N   1      31.196  21.619  -3.557  0.00  0.00     0.003 C 
HETATM    5 Br   UNK N   1      30.321  22.900  -2.446  0.00  0.00    -0.054 Br
HETATM    6  C   UNK N   1      30.522  21.056  -4.560  0.00  0.00     0.029 C 
ENDBRANCH   1   4
TORSDOF 2
ENDMDL
MODEL 6
REMARK VINA RESULT:      -2.6      9.597     10.046
REMARK  2 active torsions:
REMARK  status: ('A' for Active; 'I' for Inactive)
REMARK    1  A    between atoms: O_1  and  C_2 
REMARK    2  A    between atoms: C_2  and  C_3 
ROOT
HETATM    1  C   UNK N   1      28.072  19.231   7.350  0.00  0.00     0.209 C 
ENDROOT
BRANCH   1   2
HETATM    2  O   UNK N   1      27.394  19.162   8.570  0.00  0.00    -0.396 OA
HETATM    3  H   UNK N   1      27.893  19.115   9.400  0.00  0.00     0.209 HD
ENDBRANCH   1   2
BRANCH   1   4
HETATM    4  C   UNK N   1      27.404  20.166   6.381  0.00  0.00     0.003 C 
HETATM    5 Br   UNK N   1      27.647  19.869   4.512  0.00  0.00    -0.054 Br
HETATM    6  C   UNK N   1      26.652  21.190   6.787  0.00  0.00     0.029 C 
ENDBRANCH   1   4
TORSDOF 2
ENDMDL
MODEL 7
REMARK VINA RESULT:      -2.6     20.364     20.662
REMARK  2 active torsions:
REMARK  status: ('A' for Active; 'I' for Inactive)
REMARK    1  A    between atoms: O_1  and  C_2 
REMARK    2  A    between atoms: C_2  and  C_3 
ROOT
HETATM    1  C   UNK N   1      26.679  25.285  -3.593  0.00  0.00     0.209 C 
ENDROOT
BRANCH   1   2
HETATM    2  O   UNK N   1      26.633  24.113  -2.836  0.00  0.00    -0.396 OA
HETATM    3  H   UNK N   1      25.841  23.553  -2.857  0.00  0.00     0.209 HD
ENDBRANCH   1   2
BRANCH   1   4
HETATM    4  C   UNK N   1      25.936  25.151  -4.893  0.00  0.00     0.003 C 
HETATM    5 Br   UNK N   1      25.138  26.708  -5.653  0.00  0.00    -0.054 Br
HETATM    6  C   UNK N   1      25.821  23.983  -5.526  0.00  0.00     0.029 C 
ENDBRANCH   1   4
TORSDOF 2
ENDMDL
MODEL 8
REMARK VINA RESULT:      -2.6     11.253     11.493
REMARK  2 active torsions:
REMARK  status: ('A' for Active; 'I' for Inactive)
REMARK    1  A    between atoms: O_1  and  C_2 
REMARK    2  A    between atoms: C_2  and  C_3 
ROOT
HETATM    1  C   UNK N   1      34.895  12.190  13.137  0.00  0.00     0.209 C 
ENDROOT
BRANCH   1   2
HETATM    2  O   UNK N   1      34.450  13.455  12.746  0.00  0.00    -0.396 OA
HETATM    3  H   UNK N   1      34.486  14.196  13.370  0.00  0.00     0.209 HD
ENDBRANCH   1   2
BRANCH   1   4
HETATM    4  C   UNK N   1      34.368  11.795  14.489  0.00  0.00     0.003 C 
HETATM    5 Br   UNK N   1      34.809  12.881  15.994  0.00  0.00    -0.054 Br
HETATM    6  C   UNK N   1      33.605  10.715  14.663  0.00  0.00     0.029 C 
ENDBRANCH   1   4
TORSDOF 2
ENDMDL
MODEL 9
REMARK VINA RESULT:      -2.6      8.821      9.053
REMARK  2 active torsions:
REMARK  status: ('A' for Active; 'I' for Inactive)
REMARK    1  A    between atoms: O_1  and  C_2 
REMARK    2  A    between atoms: C_2  and  C_3 
ROOT
HETATM    1  C   UNK N   1      28.486  18.673   8.660  0.00  0.00     0.209 C 
ENDROOT
BRANCH   1   2
HETATM    2  O   UNK N   1      27.434  18.102   9.380  0.00  0.00    -0.396 OA
HETATM    3  H   UNK N   1      26.569  18.542   9.405  0.00  0.00     0.209 HD
ENDBRANCH   1   2
BRANCH   1   4
HETATM    4  C   UNK N   1      28.183  18.768   7.190  0.00  0.00     0.003 C 
HETATM    5 Br   UNK N   1      27.444  20.391   6.513  0.00  0.00    -0.054 Br
HETATM    6  C   UNK N   1      28.415  17.756   6.353  0.00  0.00     0.029 C 
ENDBRANCH   1   4
TORSDOF 2
ENDMDL
