MODEL 1
REMARK VINA RESULT:      -8.0      0.000      0.000
REMARK  9 active torsions:
REMARK  status: ('A' for Active; 'I' for Inactive)
REMARK    1  A    between atoms: N_2  and  C_4 
REMARK    2  A    between atoms: C_13  and  S_14 
REMARK    3  A    between atoms: S_14  and  N_17 
REMARK    4  A    between atoms: N_17  and  C_18 
REMARK    5  A    between atoms: C_18  and  C_19 
REMARK    6  A    between atoms: C_19  and  C_20 
REMARK    7  A    between atoms: C_20  and  C_21 
REMARK    8  A    between atoms: C_21  and  N_22 
REMARK       I    between atoms: N_22  and  C_23 
REMARK    9  A    between atoms: C_25  and  C_23 
ROOT
HETATM    1  N   UNK N   1      26.913  24.038  -8.207  0.00  0.00    -0.315 N 
HETATM    2  H   UNK N   1      26.216  23.319  -8.397  0.00  0.00     0.172 HD
ENDROOT
BRANCH   1   3
HETATM    3  S   UNK N   1      26.966  25.657  -8.928  0.00  0.00     0.259 S 
HETATM    4  O   UNK N   1      27.959  25.552 -10.096  0.00  0.00    -0.201 OA
HETATM    5  O   UNK N   1      25.630  25.842  -9.668  0.00  0.00    -0.201 OA
BRANCH   3   6
HETATM    6  C   UNK N   1      27.407  27.067  -7.908  0.00  0.00     0.090 A 
HETATM    7  C   UNK N   1      28.534  27.810  -8.257  0.00  0.00     0.026 A 
HETATM    8  C   UNK N   1      28.969  28.852  -7.445  0.00  0.00     0.003 A 
HETATM    9  C   UNK N   1      28.298  29.138  -6.257  0.00  0.00     0.014 A 
HETATM   10  C   UNK N   1      27.161  28.413  -5.870  0.00  0.00     0.002 A 
HETATM   11  C   UNK N   1      26.700  27.371  -6.725  0.00  0.00    -0.000 A 
HETATM   12  C   UNK N   1      26.474  28.675  -4.641  0.00  0.00     0.040 A 
HETATM   13  C   UNK N   1      25.565  26.633  -6.373  0.00  0.00     0.014 A 
HETATM   14  C   UNK N   1      24.875  26.913  -5.202  0.00  0.00     0.003 A 
HETATM   15  C   UNK N   1      25.330  27.911  -4.345  0.00  0.00     0.030 A 
BRANCH  12  16
HETATM   16  N   UNK N   1      26.906  29.656  -3.674  0.00  0.00    -0.389 N 
HETATM   17  C   UNK N   1      26.321  30.975  -3.675  0.00  0.00     0.149 C 
HETATM   18  C   UNK N   1      27.840  29.364  -2.616  0.00  0.00     0.149 C 
ENDBRANCH  12  16
ENDBRANCH   3   6
ENDBRANCH   1   3
BRANCH   1  19
HETATM   19  C   UNK N   1      28.043  23.915  -7.296  0.00  0.00     0.132 C 
BRANCH  19  20
HETATM   20  C   UNK N   1      27.626  23.184  -6.024  0.00  0.00     0.022 C 
BRANCH  20  21
HETATM   21  C   UNK N   1      27.752  24.123  -4.828  0.00  0.00     0.021 C 
BRANCH  21  22
HETATM   22  C   UNK N   1      29.202  24.448  -4.460  0.00  0.00     0.122 C 
BRANCH  22  23
HETATM   23  N   UNK N   1      29.461  24.140  -3.074  0.00  0.00    -0.360 N 
HETATM   24  C   UNK N   1      30.351  23.210  -2.642  0.00  0.00     0.226 C 
HETATM   25  O   UNK N   1      30.434  23.007  -1.439  0.00  0.00    -0.273 OA
HETATM   26  H   UNK N   1      28.956  24.641  -2.393  0.00  0.00     0.162 HD
BRANCH  24  27
HETATM   27  C   UNK N   1      31.238  22.419  -3.594  0.00  0.00     0.042 C 
HETATM   28  C   UNK N   1      31.905  23.346  -4.632  0.00  0.00     0.024 C 
HETATM   29  C   UNK N   1      32.818  22.537  -5.570  0.00  0.00    -0.013 C 
HETATM   30  C   UNK N   1      33.893  21.813  -4.742  0.00  0.00     0.009 C 
HETATM   31  C   UNK N   1      31.970  21.497  -6.317  0.00  0.00     0.009 C 
HETATM   32  C   UNK N   1      33.229  20.866  -3.730  0.00  0.00    -0.013 C 
HETATM   33  C   UNK N   1      32.328  21.683  -2.791  0.00  0.00     0.024 C 
HETATM   34  C   UNK N   1      32.375  19.834  -4.485  0.00  0.00     0.009 C 
HETATM   35  C   UNK N   1      31.297  20.551  -5.311  0.00  0.00    -0.013 C 
HETATM   36  C   UNK N   1      30.405  21.367  -4.365  0.00  0.00     0.024 C 
ENDBRANCH  24  27
ENDBRANCH  22  23
ENDBRANCH  21  22
ENDBRANCH  20  21
ENDBRANCH  19  20
ENDBRANCH   1  19
TORSDOF 9
ENDMDL
MODEL 2
REMARK VINA RESULT:      -7.7     16.390     20.107
REMARK  9 active torsions:
REMARK  status: ('A' for Active; 'I' for Inactive)
REMARK    1  A    between atoms: N_2  and  C_4 
REMARK    2  A    between atoms: C_13  and  S_14 
REMARK    3  A    between atoms: S_14  and  N_17 
REMARK    4  A    between atoms: N_17  and  C_18 
REMARK    5  A    between atoms: C_18  and  C_19 
REMARK    6  A    between atoms: C_19  and  C_20 
REMARK    7  A    between atoms: C_20  and  C_21 
REMARK    8  A    between atoms: C_21  and  N_22 
REMARK       I    between atoms: N_22  and  C_23 
REMARK    9  A    between atoms: C_25  and  C_23 
ROOT
HETATM    1  N   UNK N   1      34.510  17.211   9.727  0.00  0.00    -0.315 N 
HETATM    2  H   UNK N   1      34.284  17.874  10.468  0.00  0.00     0.172 HD
ENDROOT
BRANCH   1   3
HETATM    3  S   UNK N   1      34.109  17.390   8.009  0.00  0.00     0.259 S 
HETATM    4  O   UNK N   1      34.749  18.720   7.579  0.00  0.00    -0.201 OA
HETATM    5  O   UNK N   1      34.977  16.368   7.257  0.00  0.00    -0.201 OA
BRANCH   3   6
HETATM    6  C   UNK N   1      32.390  17.371   7.494  0.00  0.00     0.090 A 
HETATM    7  C   UNK N   1      31.403  17.350   8.480  0.00  0.00     0.026 A 
HETATM    8  C   UNK N   1      30.062  17.240   8.129  0.00  0.00     0.003 A 
HETATM    9  C   UNK N   1      29.698  17.116   6.789  0.00  0.00     0.014 A 
HETATM   10  C   UNK N   1      30.660  17.132   5.769  0.00  0.00     0.002 A 
HETATM   11  C   UNK N   1      32.029  17.282   6.133  0.00  0.00    -0.000 A 
HETATM   12  C   UNK N   1      30.308  16.980   4.389  0.00  0.00     0.040 A 
HETATM   13  C   UNK N   1      33.014  17.309   5.139  0.00  0.00     0.014 A 
HETATM   14  C   UNK N   1      32.669  17.202   3.799  0.00  0.00     0.003 A 
HETATM   15  C   UNK N   1      31.338  17.030   3.432  0.00  0.00     0.030 A 
BRANCH  12  16
HETATM   16  N   UNK N   1      28.960  16.747   3.927  0.00  0.00    -0.389 N 
HETATM   17  C   UNK N   1      28.045  17.855   3.785  0.00  0.00     0.149 C 
HETATM   18  C   UNK N   1      28.486  15.458   3.492  0.00  0.00     0.149 C 
ENDBRANCH  12  16
ENDBRANCH   3   6
ENDBRANCH   1   3
BRANCH   1  19
HETATM   19  C   UNK N   1      35.217  15.949   9.894  0.00  0.00     0.132 C 
BRANCH  19  20
HETATM   20  C   UNK N   1      35.817  15.854  11.293  0.00  0.00     0.022 C 
BRANCH  20  21
HETATM   21  C   UNK N   1      35.373  14.553  11.955  0.00  0.00     0.021 C 
BRANCH  21  22
HETATM   22  C   UNK N   1      36.497  13.839  12.710  0.00  0.00     0.122 C 
BRANCH  22  23
HETATM   23  N   UNK N   1      36.732  14.462  13.990  0.00  0.00    -0.360 N 
HETATM   24  C   UNK N   1      36.589  13.842  15.190  0.00  0.00     0.226 C 
HETATM   25  O   UNK N   1      36.766  14.501  16.204  0.00  0.00    -0.273 OA
HETATM   26  H   UNK N   1      37.018  15.404  13.994  0.00  0.00     0.162 HD
BRANCH  24  27
HETATM   27  C   UNK N   1      36.219  12.370  15.312  0.00  0.00     0.042 C 
HETATM   28  C   UNK N   1      36.002  11.970  16.787  0.00  0.00     0.024 C 
HETATM   29  C   UNK N   1      35.602  10.488  16.891  0.00  0.00    -0.013 C 
HETATM   30  C   UNK N   1      34.315  10.246  16.084  0.00  0.00     0.009 C 
HETATM   31  C   UNK N   1      36.732   9.624  16.312  0.00  0.00     0.009 C 
HETATM   32  C   UNK N   1      34.541  10.612  14.609  0.00  0.00    -0.013 C 
HETATM   33  C   UNK N   1      34.929  12.096  14.513  0.00  0.00     0.024 C 
HETATM   34  C   UNK N   1      35.680   9.750  14.040  0.00  0.00     0.009 C 
HETATM   35  C   UNK N   1      36.969   9.991  14.839  0.00  0.00    -0.013 C 
HETATM   36  C   UNK N   1      37.346  11.476  14.740  0.00  0.00     0.024 C 
ENDBRANCH  24  27
ENDBRANCH  22  23
ENDBRANCH  21  22
ENDBRANCH  20  21
ENDBRANCH  19  20
ENDBRANCH   1  19
TORSDOF 9
ENDMDL
MODEL 3
REMARK VINA RESULT:      -7.7     16.599     20.215
REMARK  9 active torsions:
REMARK  status: ('A' for Active; 'I' for Inactive)
REMARK    1  A    between atoms: N_2  and  C_4 
REMARK    2  A    between atoms: C_13  and  S_14 
REMARK    3  A    between atoms: S_14  and  N_17 
REMARK    4  A    between atoms: N_17  and  C_18 
REMARK    5  A    between atoms: C_18  and  C_19 
REMARK    6  A    between atoms: C_19  and  C_20 
REMARK    7  A    between atoms: C_20  and  C_21 
REMARK    8  A    between atoms: C_21  and  N_22 
REMARK       I    between atoms: N_22  and  C_23 
REMARK    9  A    between atoms: C_25  and  C_23 
ROOT
HETATM    1  N   UNK N   1      34.098  17.009   9.840  0.00  0.00    -0.315 N 
HETATM    2  H   UNK N   1      33.300  17.256  10.425  0.00  0.00     0.172 HD
ENDROOT
BRANCH   1   3
HETATM    3  S   UNK N   1      34.082  16.832   8.075  0.00  0.00     0.259 S 
HETATM    4  O   UNK N   1      34.631  18.159   7.528  0.00  0.00    -0.201 OA
HETATM    5  O   UNK N   1      35.220  15.857   7.731  0.00  0.00    -0.201 OA
BRANCH   3   6
HETATM    6  C   UNK N   1      32.542  16.443   7.238  0.00  0.00     0.090 A 
HETATM    7  C   UNK N   1      32.580  15.557   6.161  0.00  0.00     0.026 A 
HETATM    8  C   UNK N   1      31.429  15.299   5.423  0.00  0.00     0.003 A 
HETATM    9  C   UNK N   1      30.237  15.950   5.737  0.00  0.00     0.014 A 
HETATM   10  C   UNK N   1      30.159  16.848   6.812  0.00  0.00     0.002 A 
HETATM   11  C   UNK N   1      31.333  17.081   7.585  0.00  0.00    -0.000 A 
HETATM   12  C   UNK N   1      28.951  17.547   7.133  0.00  0.00     0.040 A 
HETATM   13  C   UNK N   1      31.288  17.964   8.669  0.00  0.00     0.014 A 
HETATM   14  C   UNK N   1      30.107  18.611   9.005  0.00  0.00     0.003 A 
HETATM   15  C   UNK N   1      28.960  18.412   8.242  0.00  0.00     0.030 A 
BRANCH  12  16
HETATM   16  N   UNK N   1      27.734  17.437   6.365  0.00  0.00    -0.389 N 
HETATM   17  C   UNK N   1      26.819  16.349   6.615  0.00  0.00     0.149 C 
HETATM   18  C   UNK N   1      27.313  18.427   5.406  0.00  0.00     0.149 C 
ENDBRANCH  12  16
ENDBRANCH   3   6
ENDBRANCH   1   3
BRANCH   1  19
HETATM   19  C   UNK N   1      35.451  16.740  10.306  0.00  0.00     0.132 C 
BRANCH  19  20
HETATM   20  C   UNK N   1      35.427  15.760  11.475  0.00  0.00     0.022 C 
BRANCH  20  21
HETATM   21  C   UNK N   1      35.867  14.379  10.996  0.00  0.00     0.021 C 
BRANCH  21  22
HETATM   22  C   UNK N   1      36.478  13.517  12.103  0.00  0.00     0.122 C 
BRANCH  22  23
HETATM   23  N   UNK N   1      36.738  14.306  13.283  0.00  0.00    -0.360 N 
HETATM   24  C   UNK N   1      36.617  13.854  14.558  0.00  0.00     0.226 C 
HETATM   25  O   UNK N   1      36.814  14.643  15.471  0.00  0.00    -0.273 OA
HETATM   26  H   UNK N   1      37.024  15.239  13.155  0.00  0.00     0.162 HD
BRANCH  24  27
HETATM   27  C   UNK N   1      36.247  12.413  14.885  0.00  0.00     0.042 C 
HETATM   28  C   UNK N   1      35.004  11.963  14.090  0.00  0.00     0.024 C 
HETATM   29  C   UNK N   1      34.659  10.499  14.410  0.00  0.00    -0.013 C 
HETATM   30  C   UNK N   1      35.859   9.601  14.064  0.00  0.00     0.009 C 
HETATM   31  C   UNK N   1      34.351  10.375  15.910  0.00  0.00     0.009 C 
HETATM   32  C   UNK N   1      37.089  10.028  14.880  0.00  0.00    -0.013 C 
HETATM   33  C   UNK N   1      37.433  11.488  14.546  0.00  0.00     0.024 C 
HETATM   34  C   UNK N   1      36.769   9.911  16.379  0.00  0.00     0.009 C 
HETATM   35  C   UNK N   1      35.575  10.808  16.732  0.00  0.00    -0.013 C 
HETATM   36  C   UNK N   1      35.926  12.263  16.392  0.00  0.00     0.024 C 
ENDBRANCH  24  27
ENDBRANCH  22  23
ENDBRANCH  21  22
ENDBRANCH  20  21
ENDBRANCH  19  20
ENDBRANCH   1  19
TORSDOF 9
ENDMDL
MODEL 4
REMARK VINA RESULT:      -7.6      2.501      8.082
REMARK  9 active torsions:
REMARK  status: ('A' for Active; 'I' for Inactive)
REMARK    1  A    between atoms: N_2  and  C_4 
REMARK    2  A    between atoms: C_13  and  S_14 
REMARK    3  A    between atoms: S_14  and  N_17 
REMARK    4  A    between atoms: N_17  and  C_18 
REMARK    5  A    between atoms: C_18  and  C_19 
REMARK    6  A    between atoms: C_19  and  C_20 
REMARK    7  A    between atoms: C_20  and  C_21 
REMARK    8  A    between atoms: C_21  and  N_22 
REMARK       I    between atoms: N_22  and  C_23 
REMARK    9  A    between atoms: C_25  and  C_23 
ROOT
HETATM    1  N   UNK N   1      30.524  24.959  -3.245  0.00  0.00    -0.315 N 
HETATM    2  H   UNK N   1      30.093  25.806  -2.877  0.00  0.00     0.172 HD
ENDROOT
BRANCH   1   3
HETATM    3  S   UNK N   1      30.036  23.295  -2.875  0.00  0.00     0.259 S 
HETATM    4  O   UNK N   1      30.703  22.964  -1.530  0.00  0.00    -0.201 OA
HETATM    5  O   UNK N   1      28.551  23.360  -2.479  0.00  0.00    -0.201 OA
BRANCH   3   6
HETATM    6  C   UNK N   1      30.396  21.985  -4.048  0.00  0.00     0.090 A 
HETATM    7  C   UNK N   1      31.356  21.032  -3.703  0.00  0.00     0.026 A 
HETATM    8  C   UNK N   1      31.736  20.055  -4.616  0.00  0.00     0.003 A 
HETATM    9  C   UNK N   1      31.183  20.042  -5.896  0.00  0.00     0.014 A 
HETATM   10  C   UNK N   1      30.217  20.983  -6.281  0.00  0.00     0.002 A 
HETATM   11  C   UNK N   1      29.806  21.959  -5.328  0.00  0.00    -0.000 A 
HETATM   12  C   UNK N   1      29.657  21.002  -7.599  0.00  0.00     0.040 A 
HETATM   13  C   UNK N   1      28.839  22.907  -5.678  0.00  0.00     0.014 A 
HETATM   14  C   UNK N   1      28.266  22.901  -6.942  0.00  0.00     0.003 A 
HETATM   15  C   UNK N   1      28.678  21.969  -7.890  0.00  0.00     0.030 A 
BRANCH  12  16
HETATM   16  N   UNK N   1      30.063  20.104  -8.655  0.00  0.00    -0.389 N 
HETATM   17  C   UNK N   1      30.965  20.563  -9.684  0.00  0.00     0.149 C 
HETATM   18  C   UNK N   1      29.692  18.712  -8.694  0.00  0.00     0.149 C 
ENDBRANCH  12  16
ENDBRANCH   3   6
ENDBRANCH   1   3
BRANCH   1  19
HETATM   19  C   UNK N   1      31.650  24.903  -4.166  0.00  0.00     0.132 C 
BRANCH  19  20
HETATM   20  C   UNK N   1      31.475  25.924  -5.285  0.00  0.00     0.022 C 
BRANCH  20  21
HETATM   21  C   UNK N   1      31.458  27.332  -4.697  0.00  0.00     0.021 C 
BRANCH  21  22
HETATM   22  C   UNK N   1      30.147  28.081  -4.951  0.00  0.00     0.122 C 
BRANCH  22  23
HETATM   23  N   UNK N   1      29.862  28.154  -6.363  0.00  0.00    -0.360 N 
HETATM   24  C   UNK N   1      28.686  27.790  -6.935  0.00  0.00     0.226 C 
HETATM   25  O   UNK N   1      28.594  27.849  -8.153  0.00  0.00    -0.273 OA
HETATM   26  H   UNK N   1      30.573  28.494  -6.955  0.00  0.00     0.162 HD
BRANCH  24  27
HETATM   27  C   UNK N   1      27.491  27.314  -6.119  0.00  0.00     0.042 C 
HETATM   28  C   UNK N   1      26.799  28.493  -5.404  0.00  0.00     0.024 C 
HETATM   29  C   UNK N   1      25.580  28.000  -4.606  0.00  0.00    -0.013 C 
HETATM   30  C   UNK N   1      24.590  27.307  -5.558  0.00  0.00     0.009 C 
HETATM   31  C   UNK N   1      26.051  26.993  -3.546  0.00  0.00     0.009 C 
HETATM   32  C   UNK N   1      25.269  26.113  -6.246  0.00  0.00    -0.013 C 
HETATM   33  C   UNK N   1      26.479  26.615  -7.049  0.00  0.00     0.024 C 
HETATM   34  C   UNK N   1      25.746  25.115  -5.178  0.00  0.00     0.009 C 
HETATM   35  C   UNK N   1      26.738  25.800  -4.227  0.00  0.00    -0.013 C 
HETATM   36  C   UNK N   1      27.940  26.301  -5.038  0.00  0.00     0.024 C 
ENDBRANCH  24  27
ENDBRANCH  22  23
ENDBRANCH  21  22
ENDBRANCH  20  21
ENDBRANCH  19  20
ENDBRANCH   1  19
TORSDOF 9
ENDMDL
MODEL 5
REMARK VINA RESULT:      -7.6     16.268     19.793
REMARK  9 active torsions:
REMARK  status: ('A' for Active; 'I' for Inactive)
REMARK    1  A    between atoms: N_2  and  C_4 
REMARK    2  A    between atoms: C_13  and  S_14 
REMARK    3  A    between atoms: S_14  and  N_17 
REMARK    4  A    between atoms: N_17  and  C_18 
REMARK    5  A    between atoms: C_18  and  C_19 
REMARK    6  A    between atoms: C_19  and  C_20 
REMARK    7  A    between atoms: C_20  and  C_21 
REMARK    8  A    between atoms: C_21  and  N_22 
REMARK       I    between atoms: N_22  and  C_23 
REMARK    9  A    between atoms: C_25  and  C_23 
ROOT
HETATM    1  N   UNK N   1      33.841  16.832   9.465  0.00  0.00    -0.315 N 
HETATM    2  H   UNK N   1      33.672  17.538  10.181  0.00  0.00     0.172 HD
ENDROOT
BRANCH   1   3
HETATM    3  S   UNK N   1      34.007  17.132   7.724  0.00  0.00     0.259 S 
HETATM    4  O   UNK N   1      34.710  18.494   7.611  0.00  0.00    -0.201 OA
HETATM    5  O   UNK N   1      35.101  16.172   7.226  0.00  0.00    -0.201 OA
BRANCH   3   6
HETATM    6  C   UNK N   1      32.545  17.136   6.683  0.00  0.00     0.090 A 
HETATM    7  C   UNK N   1      32.712  16.982   5.306  0.00  0.00     0.026 A 
HETATM    8  C   UNK N   1      31.620  17.073   4.451  0.00  0.00     0.003 A 
HETATM    9  C   UNK N   1      30.353  17.353   4.963  0.00  0.00     0.014 A 
HETATM   10  C   UNK N   1      30.145  17.515   6.340  0.00  0.00     0.002 A 
HETATM   11  C   UNK N   1      31.262  17.385   7.214  0.00  0.00    -0.000 A 
HETATM   12  C   UNK N   1      28.856  17.829   6.882  0.00  0.00     0.040 A 
HETATM   13  C   UNK N   1      31.088  17.534   8.593  0.00  0.00     0.014 A 
HETATM   14  C   UNK N   1      29.832  17.798   9.123  0.00  0.00     0.003 A 
HETATM   15  C   UNK N   1      28.737  17.953   8.279  0.00  0.00     0.030 A 
BRANCH  12  16
HETATM   16  N   UNK N   1      27.681  18.055   6.075  0.00  0.00    -0.389 N 
HETATM   17  C   UNK N   1      26.822  16.949   5.727  0.00  0.00     0.149 C 
HETATM   18  C   UNK N   1      27.244  19.367   5.667  0.00  0.00     0.149 C 
ENDBRANCH  12  16
ENDBRANCH   3   6
ENDBRANCH   1   3
BRANCH   1  19
HETATM   19  C   UNK N   1      33.987  15.401   9.690  0.00  0.00     0.132 C 
BRANCH  19  20
HETATM   20  C   UNK N   1      34.782  15.140  10.965  0.00  0.00     0.022 C 
BRANCH  20  21
HETATM   21  C   UNK N   1      36.022  14.314  10.636  0.00  0.00     0.021 C 
BRANCH  21  22
HETATM   22  C   UNK N   1      36.522  13.473  11.813  0.00  0.00     0.122 C 
BRANCH  22  23
HETATM   23  N   UNK N   1      36.755  14.299  12.973  0.00  0.00    -0.360 N 
HETATM   24  C   UNK N   1      36.604  13.888  14.259  0.00  0.00     0.226 C 
HETATM   25  O   UNK N   1      36.780  14.706  15.149  0.00  0.00    -0.273 OA
HETATM   26  H   UNK N   1      37.044  15.228  12.821  0.00  0.00     0.162 HD
BRANCH  24  27
HETATM   27  C   UNK N   1      36.227  12.458  14.623  0.00  0.00     0.042 C 
HETATM   28  C   UNK N   1      37.357  11.473  14.258  0.00  0.00     0.024 C 
HETATM   29  C   UNK N   1      36.972  10.038  14.656  0.00  0.00    -0.013 C 
HETATM   30  C   UNK N   1      36.691   9.982  16.167  0.00  0.00     0.009 C 
HETATM   31  C   UNK N   1      35.704   9.631  13.891  0.00  0.00     0.009 C 
HETATM   32  C   UNK N   1      35.543  10.939  16.525  0.00  0.00    -0.013 C 
HETATM   33  C   UNK N   1      35.940  12.371  16.135  0.00  0.00     0.024 C 
HETATM   34  C   UNK N   1      34.281  10.531  15.748  0.00  0.00     0.009 C 
HETATM   35  C   UNK N   1      34.553  10.589  14.238  0.00  0.00    -0.013 C 
HETATM   36  C   UNK N   1      34.953  12.021  13.859  0.00  0.00     0.024 C 
ENDBRANCH  24  27
ENDBRANCH  22  23
ENDBRANCH  21  22
ENDBRANCH  20  21
ENDBRANCH  19  20
ENDBRANCH   1  19
TORSDOF 9
ENDMDL
MODEL 6
REMARK VINA RESULT:      -7.5     15.615     19.496
REMARK  9 active torsions:
REMARK  status: ('A' for Active; 'I' for Inactive)
REMARK    1  A    between atoms: N_2  and  C_4 
REMARK    2  A    between atoms: C_13  and  S_14 
REMARK    3  A    between atoms: S_14  and  N_17 
REMARK    4  A    between atoms: N_17  and  C_18 
REMARK    5  A    between atoms: C_18  and  C_19 
REMARK    6  A    between atoms: C_19  and  C_20 
REMARK    7  A    between atoms: C_20  and  C_21 
REMARK    8  A    between atoms: C_21  and  N_22 
REMARK       I    between atoms: N_22  and  C_23 
REMARK    9  A    between atoms: C_25  and  C_23 
ROOT
HETATM    1  N   UNK N   1      34.604  17.206   9.939  0.00  0.00    -0.315 N 
HETATM    2  H   UNK N   1      34.652  17.963  10.620  0.00  0.00     0.172 HD
ENDROOT
BRANCH   1   3
HETATM    3  S   UNK N   1      34.216  17.376   8.217  0.00  0.00     0.259 S 
HETATM    4  O   UNK N   1      34.857  18.703   7.783  0.00  0.00    -0.201 OA
HETATM    5  O   UNK N   1      35.088  16.349   7.476  0.00  0.00    -0.201 OA
BRANCH   3   6
HETATM    6  C   UNK N   1      32.500  17.354   7.690  0.00  0.00     0.090 A 
HETATM    7  C   UNK N   1      31.507  17.302   8.669  0.00  0.00     0.026 A 
HETATM    8  C   UNK N   1      30.169  17.189   8.308  0.00  0.00     0.003 A 
HETATM    9  C   UNK N   1      29.814  17.092   6.963  0.00  0.00     0.014 A 
HETATM   10  C   UNK N   1      30.782  17.138   5.949  0.00  0.00     0.002 A 
HETATM   11  C   UNK N   1      32.148  17.291   6.325  0.00  0.00    -0.000 A 
HETATM   12  C   UNK N   1      30.440  17.014   4.564  0.00  0.00     0.040 A 
HETATM   13  C   UNK N   1      33.138  17.349   5.339  0.00  0.00     0.014 A 
HETATM   14  C   UNK N   1      32.803  17.269   3.995  0.00  0.00     0.003 A 
HETATM   15  C   UNK N   1      31.476  17.094   3.616  0.00  0.00     0.030 A 
BRANCH  12  16
HETATM   16  N   UNK N   1      29.097  16.780   4.089  0.00  0.00    -0.389 N 
HETATM   17  C   UNK N   1      28.193  17.891   3.909  0.00  0.00     0.149 C 
HETATM   18  C   UNK N   1      28.620  15.485   3.676  0.00  0.00     0.149 C 
ENDBRANCH  12  16
ENDBRANCH   3   6
ENDBRANCH   1   3
BRANCH   1  19
HETATM   19  C   UNK N   1      34.843  15.796  10.208  0.00  0.00     0.132 C 
BRANCH  19  20
HETATM   20  C   UNK N   1      36.256  15.586  10.742  0.00  0.00     0.022 C 
BRANCH  20  21
HETATM   21  C   UNK N   1      36.905  14.404  10.027  0.00  0.00     0.021 C 
BRANCH  21  22
HETATM   22  C   UNK N   1      36.912  13.119  10.860  0.00  0.00     0.122 C 
BRANCH  22  23
HETATM   23  N   UNK N   1      35.776  12.291  10.536  0.00  0.00    -0.360 N 
HETATM   24  C   UNK N   1      35.025  11.617  11.445  0.00  0.00     0.226 C 
HETATM   25  O   UNK N   1      34.121  10.905  11.032  0.00  0.00    -0.273 OA
HETATM   26  H   UNK N   1      35.526  12.209   9.587  0.00  0.00     0.162 HD
BRANCH  24  27
HETATM   27  C   UNK N   1      35.270  11.718  12.945  0.00  0.00     0.042 C 
HETATM   28  C   UNK N   1      34.197  10.941  13.738  0.00  0.00     0.024 C 
HETATM   29  C   UNK N   1      34.474  11.030  15.248  0.00  0.00    -0.013 C 
HETATM   30  C   UNK N   1      35.869  10.458  15.549  0.00  0.00     0.009 C 
HETATM   31  C   UNK N   1      34.428  12.504  15.679  0.00  0.00     0.009 C 
HETATM   32  C   UNK N   1      36.940  11.251  14.786  0.00  0.00    -0.013 C 
HETATM   33  C   UNK N   1      36.663  11.149  13.278  0.00  0.00     0.024 C 
HETATM   34  C   UNK N   1      36.881  12.727  15.215  0.00  0.00     0.009 C 
HETATM   35  C   UNK N   1      35.492  13.305  14.913  0.00  0.00    -0.013 C 
HETATM   36  C   UNK N   1      35.223  13.195  13.406  0.00  0.00     0.024 C 
ENDBRANCH  24  27
ENDBRANCH  22  23
ENDBRANCH  21  22
ENDBRANCH  20  21
ENDBRANCH  19  20
ENDBRANCH   1  19
TORSDOF 9
ENDMDL
MODEL 7
REMARK VINA RESULT:      -7.5      2.836      5.341
REMARK  9 active torsions:
REMARK  status: ('A' for Active; 'I' for Inactive)
REMARK    1  A    between atoms: N_2  and  C_4 
REMARK    2  A    between atoms: C_13  and  S_14 
REMARK    3  A    between atoms: S_14  and  N_17 
REMARK    4  A    between atoms: N_17  and  C_18 
REMARK    5  A    between atoms: C_18  and  C_19 
REMARK    6  A    between atoms: C_19  and  C_20 
REMARK    7  A    between atoms: C_20  and  C_21 
REMARK    8  A    between atoms: C_21  and  N_22 
REMARK       I    between atoms: N_22  and  C_23 
REMARK    9  A    between atoms: C_25  and  C_23 
ROOT
HETATM    1  N   UNK N   1      28.056  28.635  -2.946  0.00  0.00    -0.315 N 
HETATM    2  H   UNK N   1      28.350  27.844  -2.375  0.00  0.00     0.172 HD
ENDROOT
BRANCH   1   3
HETATM    3  S   UNK N   1      26.576  28.726  -3.920  0.00  0.00     0.259 S 
HETATM    4  O   UNK N   1      25.451  28.229  -2.999  0.00  0.00    -0.201 OA
HETATM    5  O   UNK N   1      26.238  30.220  -4.049  0.00  0.00    -0.201 OA
BRANCH   3   6
HETATM    6  C   UNK N   1      26.490  27.845  -5.481  0.00  0.00     0.090 A 
HETATM    7  C   UNK N   1      25.589  26.785  -5.595  0.00  0.00     0.026 A 
HETATM    8  C   UNK N   1      25.553  26.014  -6.752  0.00  0.00     0.003 A 
HETATM    9  C   UNK N   1      26.441  26.277  -7.794  0.00  0.00     0.014 A 
HETATM   10  C   UNK N   1      27.362  27.332  -7.718  0.00  0.00     0.002 A 
HETATM   11  C   UNK N   1      27.369  28.140  -6.544  0.00  0.00    -0.000 A 
HETATM   12  C   UNK N   1      28.300  27.600  -8.766  0.00  0.00     0.040 A 
HETATM   13  C   UNK N   1      28.269  29.205  -6.439  0.00  0.00     0.014 A 
HETATM   14  C   UNK N   1      29.150  29.491  -7.472  0.00  0.00     0.003 A 
HETATM   15  C   UNK N   1      29.171  28.694  -8.612  0.00  0.00     0.030 A 
BRANCH  12  16
HETATM   16  N   UNK N   1      28.422  26.795  -9.958  0.00  0.00    -0.389 N 
HETATM   17  C   UNK N   1      27.799  27.225 -11.187  0.00  0.00     0.149 C 
HETATM   18  C   UNK N   1      29.230  25.604 -10.026  0.00  0.00     0.149 C 
ENDBRANCH  12  16
ENDBRANCH   3   6
ENDBRANCH   1   3
BRANCH   1  19
HETATM   19  C   UNK N   1      28.776  29.891  -3.105  0.00  0.00     0.132 C 
BRANCH  19  20
HETATM   20  C   UNK N   1      30.232  29.629  -3.475  0.00  0.00     0.022 C 
BRANCH  20  21
HETATM   21  C   UNK N   1      30.835  28.619  -2.502  0.00  0.00     0.021 C 
BRANCH  21  22
HETATM   22  C   UNK N   1      31.192  27.282  -3.156  0.00  0.00     0.122 C 
BRANCH  22  23
HETATM   23  N   UNK N   1      31.363  27.438  -4.581  0.00  0.00    -0.360 N 
HETATM   24  C   UNK N   1      30.937  26.546  -5.513  0.00  0.00     0.226 C 
HETATM   25  O   UNK N   1      31.195  26.772  -6.686  0.00  0.00    -0.273 OA
HETATM   26  H   UNK N   1      31.821  28.249  -4.900  0.00  0.00     0.162 HD
BRANCH  24  27
HETATM   27  C   UNK N   1      30.159  25.289  -5.148  0.00  0.00     0.042 C 
HETATM   28  C   UNK N   1      29.580  24.608  -6.406  0.00  0.00     0.024 C 
HETATM   29  C   UNK N   1      28.820  23.326  -6.024  0.00  0.00    -0.013 C 
HETATM   30  C   UNK N   1      29.772  22.363  -5.295  0.00  0.00     0.009 C 
HETATM   31  C   UNK N   1      27.659  23.694  -5.088  0.00  0.00     0.009 C 
HETATM   32  C   UNK N   1      30.324  23.029  -4.025  0.00  0.00    -0.013 C 
HETATM   33  C   UNK N   1      31.090  24.302  -4.416  0.00  0.00     0.024 C 
HETATM   34  C   UNK N   1      29.155  23.403  -3.098  0.00  0.00     0.009 C 
HETATM   35  C   UNK N   1      28.203  24.367  -3.819  0.00  0.00    -0.013 C 
HETATM   36  C   UNK N   1      28.978  25.634  -4.209  0.00  0.00     0.024 C 
ENDBRANCH  24  27
ENDBRANCH  22  23
ENDBRANCH  21  22
ENDBRANCH  20  21
ENDBRANCH  19  20
ENDBRANCH   1  19
TORSDOF 9
ENDMDL
MODEL 8
REMARK VINA RESULT:      -7.5      2.634      7.465
REMARK  9 active torsions:
REMARK  status: ('A' for Active; 'I' for Inactive)
REMARK    1  A    between atoms: N_2  and  C_4 
REMARK    2  A    between atoms: C_13  and  S_14 
REMARK    3  A    between atoms: S_14  and  N_17 
REMARK    4  A    between atoms: N_17  and  C_18 
REMARK    5  A    between atoms: C_18  and  C_19 
REMARK    6  A    between atoms: C_19  and  C_20 
REMARK    7  A    between atoms: C_20  and  C_21 
REMARK    8  A    between atoms: C_21  and  N_22 
REMARK       I    between atoms: N_22  and  C_23 
REMARK    9  A    between atoms: C_25  and  C_23 
ROOT
HETATM    1  N   UNK N   1      31.943  23.622  -4.007  0.00  0.00    -0.315 N 
HETATM    2  H   UNK N   1      32.824  23.110  -3.990  0.00  0.00     0.172 HD
ENDROOT
BRANCH   1   3
HETATM    3  S   UNK N   1      30.400  23.063  -3.335  0.00  0.00     0.259 S 
HETATM    4  O   UNK N   1      30.527  21.535  -3.238  0.00  0.00    -0.201 OA
HETATM    5  O   UNK N   1      30.403  23.472  -1.852  0.00  0.00    -0.201 OA
BRANCH   3   6
HETATM    6  C   UNK N   1      28.868  23.473  -4.176  0.00  0.00     0.090 A 
HETATM    7  C   UNK N   1      27.910  24.215  -3.484  0.00  0.00     0.026 A 
HETATM    8  C   UNK N   1      26.671  24.476  -4.060  0.00  0.00     0.003 A 
HETATM    9  C   UNK N   1      26.367  23.967  -5.321  0.00  0.00     0.014 A 
HETATM   10  C   UNK N   1      27.302  23.215  -6.048  0.00  0.00     0.002 A 
HETATM   11  C   UNK N   1      28.582  22.983  -5.467  0.00  0.00    -0.000 A 
HETATM   12  C   UNK N   1      26.998  22.662  -7.334  0.00  0.00     0.040 A 
HETATM   13  C   UNK N   1      29.540  22.243  -6.168  0.00  0.00     0.014 A 
HETATM   14  C   UNK N   1      29.260  21.741  -7.432  0.00  0.00     0.003 A 
HETATM   15  C   UNK N   1      28.005  21.939  -7.999  0.00  0.00     0.030 A 
BRANCH  12  16
HETATM   16  N   UNK N   1      25.708  22.777  -7.971  0.00  0.00    -0.389 N 
HETATM   17  C   UNK N   1      24.716  21.746  -7.784  0.00  0.00     0.149 C 
HETATM   18  C   UNK N   1      25.301  23.937  -8.724  0.00  0.00     0.149 C 
ENDBRANCH  12  16
ENDBRANCH   3   6
ENDBRANCH   1   3
BRANCH   1  19
HETATM   19  C   UNK N   1      31.729  24.940  -4.587  0.00  0.00     0.132 C 
BRANCH  19  20
HETATM   20  C   UNK N   1      32.242  24.982  -6.023  0.00  0.00     0.022 C 
BRANCH  20  21
HETATM   21  C   UNK N   1      31.110  25.392  -6.961  0.00  0.00     0.021 C 
BRANCH  21  22
HETATM   22  C   UNK N   1      30.076  26.308  -6.301  0.00  0.00     0.122 C 
BRANCH  22  23
HETATM   23  N   UNK N   1      28.836  26.297  -7.039  0.00  0.00    -0.360 N 
HETATM   24  C   UNK N   1      27.743  27.041  -6.728  0.00  0.00     0.226 C 
HETATM   25  O   UNK N   1      26.736  26.896  -7.404  0.00  0.00    -0.273 OA
HETATM   26  H   UNK N   1      28.778  25.707  -7.826  0.00  0.00     0.162 HD
BRANCH  24  27
HETATM   27  C   UNK N   1      27.732  28.038  -5.577  0.00  0.00     0.042 C 
HETATM   28  C   UNK N   1      28.690  27.598  -4.450  0.00  0.00     0.024 C 
HETATM   29  C   UNK N   1      28.688  28.628  -3.307  0.00  0.00    -0.013 C 
HETATM   30  C   UNK N   1      29.112  30.002  -3.853  0.00  0.00     0.009 C 
HETATM   31  C   UNK N   1      27.268  28.731  -2.730  0.00  0.00     0.009 C 
HETATM   32  C   UNK N   1      28.140  30.455  -4.953  0.00  0.00    -0.013 C 
HETATM   33  C   UNK N   1      28.156  29.427  -6.095  0.00  0.00     0.024 C 
HETATM   34  C   UNK N   1      26.720  30.545  -4.370  0.00  0.00     0.009 C 
HETATM   35  C   UNK N   1      26.289  29.176  -3.826  0.00  0.00    -0.013 C 
HETATM   36  C   UNK N   1      26.312  28.155  -4.973  0.00  0.00     0.024 C 
ENDBRANCH  24  27
ENDBRANCH  22  23
ENDBRANCH  21  22
ENDBRANCH  20  21
ENDBRANCH  19  20
ENDBRANCH   1  19
TORSDOF 9
ENDMDL
MODEL 9
REMARK VINA RESULT:      -7.4     16.247     19.702
REMARK  9 active torsions:
REMARK  status: ('A' for Active; 'I' for Inactive)
REMARK    1  A    between atoms: N_2  and  C_4 
REMARK    2  A    between atoms: C_13  and  S_14 
REMARK    3  A    between atoms: S_14  and  N_17 
REMARK    4  A    between atoms: N_17  and  C_18 
REMARK    5  A    between atoms: C_18  and  C_19 
REMARK    6  A    between atoms: C_19  and  C_20 
REMARK    7  A    between atoms: C_20  and  C_21 
REMARK    8  A    between atoms: C_21  and  N_22 
REMARK       I    between atoms: N_22  and  C_23 
REMARK    9  A    between atoms: C_25  and  C_23 
ROOT
HETATM    1  N   UNK N   1      32.541  15.280  10.246  0.00  0.00    -0.315 N 
HETATM    2  H   UNK N   1      31.954  15.298  11.079  0.00  0.00     0.172 HD
ENDROOT
BRANCH   1   3
HETATM    3  S   UNK N   1      32.042  15.746   8.609  0.00  0.00     0.259 S 
HETATM    4  O   UNK N   1      33.285  16.386   7.971  0.00  0.00    -0.201 OA
HETATM    5  O   UNK N   1      31.918  14.439   7.809  0.00  0.00    -0.201 OA
BRANCH   3   6
HETATM    6  C   UNK N   1      30.639  16.843   8.389  0.00  0.00     0.090 A 
HETATM    7  C   UNK N   1      29.914  17.226   9.519  0.00  0.00     0.026 A 
HETATM    8  C   UNK N   1      28.764  17.998   9.388  0.00  0.00     0.003 A 
HETATM    9  C   UNK N   1      28.310  18.366   8.123  0.00  0.00     0.014 A 
HETATM   10  C   UNK N   1      29.010  18.000   6.963  0.00  0.00     0.002 A 
HETATM   11  C   UNK N   1      30.206  17.240   7.107  0.00  0.00    -0.000 A 
HETATM   12  C   UNK N   1      28.545  18.346   5.654  0.00  0.00     0.040 A 
HETATM   13  C   UNK N   1      30.932  16.865   5.971  0.00  0.00     0.014 A 
HETATM   14  C   UNK N   1      30.504  17.235   4.704  0.00  0.00     0.003 A 
HETATM   15  C   UNK N   1      29.323  17.955   4.549  0.00  0.00     0.030 A 
BRANCH  12  16
HETATM   16  N   UNK N   1      27.308  19.046   5.402  0.00  0.00    -0.389 N 
HETATM   17  C   UNK N   1      26.106  18.304   5.104  0.00  0.00     0.149 C 
HETATM   18  C   UNK N   1      27.170  20.475   5.528  0.00  0.00     0.149 C 
ENDBRANCH  12  16
ENDBRANCH   3   6
ENDBRANCH   1   3
BRANCH   1  19
HETATM   19  C   UNK N   1      33.936  14.868  10.190  0.00  0.00     0.132 C 
BRANCH  19  20
HETATM   20  C   UNK N   1      34.809  15.827  10.992  0.00  0.00     0.022 C 
BRANCH  20  21
HETATM   21  C   UNK N   1      36.230  15.276  11.081  0.00  0.00     0.021 C 
BRANCH  21  22
HETATM   22  C   UNK N   1      36.363  14.093  12.044  0.00  0.00     0.122 C 
BRANCH  22  23
HETATM   23  N   UNK N   1      36.748  14.543  13.359  0.00  0.00    -0.360 N 
HETATM   24  C   UNK N   1      36.532  13.850  14.508  0.00  0.00     0.226 C 
HETATM   25  O   UNK N   1      36.858  14.371  15.564  0.00  0.00    -0.273 OA
HETATM   26  H   UNK N   1      37.201  15.414  13.430  0.00  0.00     0.162 HD
BRANCH  24  27
HETATM   27  C   UNK N   1      35.902  12.464  14.522  0.00  0.00     0.042 C 
HETATM   28  C   UNK N   1      34.798  12.342  13.450  0.00  0.00     0.024 C 
HETATM   29  C   UNK N   1      34.191  10.929  13.460  0.00  0.00    -0.013 C 
HETATM   30  C   UNK N   1      35.297   9.893  13.197  0.00  0.00     0.009 C 
HETATM   31  C   UNK N   1      33.566  10.663  14.837  0.00  0.00     0.009 C 
HETATM   32  C   UNK N   1      36.380   9.992  14.283  0.00  0.00    -0.013 C 
HETATM   33  C   UNK N   1      36.989  11.403  14.260  0.00  0.00     0.024 C 
HETATM   34  C   UNK N   1      35.744   9.735  15.659  0.00  0.00     0.009 C 
HETATM   35  C   UNK N   1      34.642  10.768  15.929  0.00  0.00    -0.013 C 
HETATM   36  C   UNK N   1      35.259  12.173  15.900  0.00  0.00     0.024 C 
ENDBRANCH  24  27
ENDBRANCH  22  23
ENDBRANCH  21  22
ENDBRANCH  20  21
ENDBRANCH  19  20
ENDBRANCH   1  19
TORSDOF 9
ENDMDL
