REMARK  14 active torsions:
REMARK  status: ('A' for Active; 'I' for Inactive)
REMARK       I    between atoms: N_1  and  C_2 
REMARK    1  A    between atoms: C_5  and  O_6 
REMARK    2  A    between atoms: C_9  and  C_10 
REMARK    3  A    between atoms: C_10  and  C_11 
REMARK    4  A    between atoms: C_11  and  C_12 
REMARK    5  A    between atoms: C_11  and  C_15 
REMARK    6  A    between atoms: C_12  and  O_13 
REMARK    7  A    between atoms: C_18  and  C_21 
REMARK       I    between atoms: C_21  and  N_23 
REMARK    8  A    between atoms: C_24  and  N_23 
REMARK    9  A    between atoms: C_24  and  C_25 
REMARK   10  A    between atoms: C_24  and  C_30 
REMARK   11  A    between atoms: C_25  and  C_26 
REMARK   12  A    between atoms: C_26  and  C_27 
REMARK   13  A    between atoms: C_27  and  O_28 
REMARK   14  A    between atoms: C_30  and  O_31 
ROOT
HETATM    1  C   UNK N   1      -8.481   2.502   1.012  0.00  0.00     0.121 C 
ENDROOT
BRANCH   1   2
HETATM    2  C   UNK N   1      -8.306   1.024   1.446  0.00  0.00     0.058 C 
BRANCH   2   3
HETATM    3  C   UNK N   1      -9.301   0.093   0.845  0.00  0.00    -0.056 A 
HETATM    4  C   UNK N   1     -10.653   0.359   1.030  0.00  0.00     0.025 A 
HETATM    5  C   UNK N   1     -11.616  -0.412   0.410  0.00  0.00     0.043 A 
HETATM    6  C   UNK N   1     -12.967  -0.089   0.513  0.00  0.00     0.167 A 
HETATM    7  C   UNK N   1     -11.236  -1.517  -0.370  0.00  0.00     0.063 A 
HETATM    8  N   UNK N   1     -13.885  -0.847  -0.133  0.00  0.00    -0.170 N 
HETATM    9  C   UNK N   1     -13.508  -1.923  -0.877  0.00  0.00     0.678 A 
ATOM     10  HN  UNK N   1     -14.874  -0.608  -0.060  1.00  0.00     0.186 HD
HETATM   11  N   UNK N   1     -14.483  -2.685  -1.545  0.00  0.00    -0.234 N 
HETATM   12  N   UNK N   1     -12.190  -2.253  -0.992  0.00  0.00    -0.191 N 
HETATM   13  H   UNK N   1     -15.287  -2.361  -2.012  0.00  0.00     0.174 HD
HETATM   14  H   UNK N   1     -14.346  -3.660  -1.545  0.00  0.00     0.174 HD
ATOM     15  HN  UNK N   1     -11.919  -3.062  -1.551  1.00  0.00     0.184 HD
HETATM   16  C   UNK N   1      -9.876  -1.829  -0.518  0.00  0.00     0.031 A 
HETATM   17  C   UNK N   1      -8.904  -1.012   0.080  0.00  0.00     0.009 A 
BRANCH   6  18
HETATM   18  O   UNK N   1     -13.363   0.981   1.229  0.00  0.00    -0.345 OA
HETATM   19  H   UNK N   1     -12.855   1.592   1.726  0.00  0.00     0.219 HD
ENDBRANCH   6  18
ENDBRANCH   2   3
ENDBRANCH   1   2
BRANCH   1  20
HETATM   20  C   UNK N   1      -9.851   3.054   0.753  0.00  0.00     0.148 C 
HETATM   21  O   UNK N   1     -10.427   3.676   1.629  0.00  0.00    -0.649 OA
BRANCH  20  22
HETATM   22  O   UNK N   1     -10.429   2.899  -0.454  0.00  0.00    -0.776 OA
HETATM   23  H   UNK N   1     -10.723   3.193  -1.293  0.00  0.00     0.167 HD
ENDBRANCH  20  22
ENDBRANCH   1  20
BRANCH   1  24
HETATM   24  C   UNK N   1      -7.441   3.089   0.127  0.00  0.00    -0.044 A 
HETATM   25  C   UNK N   1      -7.299   4.476   0.146  0.00  0.00     0.009 A 
HETATM   26  C   UNK N   1      -6.177   5.065  -0.404  0.00  0.00     0.017 A 
HETATM   27  C   UNK N   1      -5.206   4.287  -1.031  0.00  0.00     0.032 A 
HETATM   28  C   UNK N   1      -5.384   2.898  -1.117  0.00  0.00     0.017 A 
HETATM   29  C   UNK N   1      -6.506   2.296  -0.547  0.00  0.00     0.009 A 
BRANCH  27  30
HETATM   30  C   UNK N   1      -3.844   4.712  -0.824  0.00  0.00     0.252 C 
HETATM   31  O   UNK N   1      -3.048   4.803  -1.747  0.00  0.00    -0.268 OA
HETATM   32  N   UNK N   1      -3.438   4.701   0.475  0.00  0.00    -0.343 N 
HETATM   33  H   UNK N   1      -4.143   4.665   1.161  0.00  0.00     0.163 HD
BRANCH  32  34
HETATM   34  C   UNK N   1      -2.081   4.736   0.939  0.00  0.00     0.183 C 
BRANCH  34  35
HETATM   35  C   UNK N   1      -1.322   3.574   0.314  0.00  0.00     0.046 C 
BRANCH  35  36
HETATM   36  C   UNK N   1      -0.009   3.315   1.011  0.00  0.00     0.112 C 
BRANCH  36  37
HETATM   37  C   UNK N   1       0.973   2.851  -0.006  0.00  0.00     0.139 C 
HETATM   38  O   UNK N   1       0.782   1.815  -0.623  0.00  0.00    -0.650 OA
BRANCH  37  39
HETATM   39  O   UNK N   1       2.062   3.596  -0.263  0.00  0.00    -0.776 OA
HETATM   40  H   UNK N   1       2.892   3.198  -0.443  0.00  0.00     0.167 HD
ENDBRANCH  37  39
ENDBRANCH  36  37
ENDBRANCH  35  36
ENDBRANCH  34  35
BRANCH  34  41
HETATM   41  C   UNK N   1      -1.481   6.089   0.725  0.00  0.00     0.163 C 
HETATM   42  O   UNK N   1      -2.003   7.064   1.243  0.00  0.00    -0.648 OA
BRANCH  41  43
HETATM   43  O   UNK N   1      -0.368   6.240  -0.015  0.00  0.00    -0.775 OA
HETATM   44  H   UNK N   1       0.110   5.622  -0.531  0.00  0.00     0.167 HD
ENDBRANCH  41  43
ENDBRANCH  34  41
ENDBRANCH  32  34
ENDBRANCH  27  30
ENDBRANCH   1  24
TORSDOF 14
