MODEL 1
REMARK VINA RESULT:      -6.9      0.000      0.000
REMARK  15 active torsions:
REMARK  status: ('A' for Active; 'I' for Inactive)
REMARK    1  A    between atoms: C_14  and  C_6 
REMARK    2  A    between atoms: C_6  and  O_25 
REMARK    3  A    between atoms: C_7  and  N_21 
REMARK    4  A    between atoms: C_8  and  N_22 
REMARK    5  A    between atoms: C_9  and  N_23 
REMARK    6  A    between atoms: C_10  and  O_26 
REMARK    7  A    between atoms: C_11  and  O_27 
REMARK    8  A    between atoms: C_12  and  O_28 
REMARK    9  A    between atoms: C_13  and  O_29 
REMARK   10  A    between atoms: C_15  and  O_33 
REMARK   11  A    between atoms: C_16  and  O_34 
REMARK   12  A    between atoms: C_17  and  N_24 
REMARK   13  A    between atoms: C_18  and  O_33 
REMARK   14  A    between atoms: C_19  and  O_34 
REMARK   15  A    between atoms: C_20  and  O_30 
ROOT
HETATM    1  C   UNK N   1      34.080  14.642   5.249  0.00  0.00     0.054 C 
HETATM    2  C   UNK N   1      33.577  16.084   5.266  0.00  0.00     0.107 C 
HETATM    3  C   UNK N   1      34.789  14.263   6.577  0.00  0.00     0.107 C 
HETATM    4  C   UNK N   1      32.802  15.422   7.643  0.00  0.00     0.180 C 
HETATM    5  C   UNK N   1      32.527  16.327   6.395  0.00  0.00     0.178 C 
HETATM    6  C   UNK N   1      34.313  15.129   7.786  0.00  0.00     0.178 C 
ENDROOT
BRANCH   5   7
HETATM    7  O   UNK N   1      31.200  16.116   5.909  0.00  0.00    -0.349 OA
BRANCH   7   8
HETATM    8  C   UNK N   1      30.381  17.258   6.112  0.00  0.00     0.285 C 
HETATM    9  C   UNK N   1      29.251  17.277   5.066  0.00  0.00     0.161 C 
HETATM   10  C   UNK N   1      28.361  18.505   5.321  0.00  0.00     0.176 C 
HETATM   11  C   UNK N   1      27.861  18.494   6.777  0.00  0.00     0.180 C 
HETATM   12  C   UNK N   1      29.086  18.370   7.716  0.00  0.00     0.184 C 
HETATM   13  O   UNK N   1      29.790  17.187   7.403  0.00  0.00    -0.349 OA
BRANCH   9  14
HETATM   14  N   UNK N   1      29.808  17.336   3.722  0.00  0.00    -0.420 N 
HETATM   15  H   UNK N   1      29.321  16.937   2.919  0.00  0.00     0.150 HD
HETATM   16  H   UNK N   1      30.711  17.788   3.577  0.00  0.00     0.150 HD
ENDBRANCH   9  14
BRANCH  10  17
HETATM   17  O   UNK N   1      27.276  18.513   4.442  0.00  0.00    -0.391 OA
HETATM   18  H   UNK N   1      26.962  17.780   3.889  0.00  0.00     0.210 HD
ENDBRANCH  10  17
BRANCH  11  19
HETATM   19  O   UNK N   1      27.147  19.664   7.038  0.00  0.00    -0.390 OA
HETATM   20  H   UNK N   1      26.410  19.741   7.663  0.00  0.00     0.210 HD
ENDBRANCH  11  19
BRANCH  12  21
HETATM   21  C   UNK N   1      28.719  18.318   9.214  0.00  0.00     0.145 C 
HETATM   22  C   UNK N   1      29.434  17.189   9.940  0.00  0.00     0.042 C 
BRANCH  21  23
HETATM   23  O   UNK N   1      27.342  18.180   9.385  0.00  0.00    -0.393 OA
HETATM   24  H   UNK N   1      26.844  17.347   9.378  0.00  0.00     0.210 HD
ENDBRANCH  21  23
ENDBRANCH  12  21
ENDBRANCH   7   8
ENDBRANCH   5   7
BRANCH   2  25
HETATM   25  N   UNK N   1      33.055  16.468   3.964  0.00  0.00    -0.423 N 
HETATM   26  H   UNK N   1      33.602  16.302   3.119  0.00  0.00     0.150 HD
HETATM   27  H   UNK N   1      32.136  16.906   3.895  0.00  0.00     0.150 HD
ENDBRANCH   2  25
BRANCH   4  28
HETATM   28  O   UNK N   1      32.097  14.225   7.466  0.00  0.00    -0.390 OA
HETATM   29  H   UNK N   1      31.681  13.405   7.155  0.00  0.00     0.210 HD
ENDBRANCH   4  28
BRANCH   6  30
HETATM   30  O   UNK N   1      34.740  14.658   9.071  0.00  0.00    -0.349 OA
BRANCH  30  31
HETATM   31  C   UNK N   1      35.764  15.418   9.699  0.00  0.00     0.291 C 
HETATM   32  C   UNK N   1      36.946  14.508  10.110  0.00  0.00     0.198 C 
HETATM   33  C   UNK N   1      36.625  13.571  11.302  0.00  0.00     0.146 C 
HETATM   34  C   UNK N   1      35.497  14.181  12.176  0.00  0.00     0.098 C 
HETATM   35  C   UNK N   1      35.623  13.740  13.624  0.00  0.00     0.050 C 
HETATM   36  C   UNK N   1      35.578  15.703  12.083  0.00  0.00     0.210 C 
HETATM   37  O   UNK N   1      35.220  16.174  10.787  0.00  0.00    -0.356 OA
BRANCH  32  38
HETATM   38  O   UNK N   1      37.479  13.809   9.021  0.00  0.00    -0.388 OA
HETATM   39  H   UNK N   1      38.382  13.795   8.669  0.00  0.00     0.210 HD
ENDBRANCH  32  38
BRANCH  33  40
HETATM   40  N   UNK N   1      36.266  12.220  10.849  0.00  0.00    -0.416 N 
HETATM   41  C   UNK N   1      37.196  11.247  11.413  0.00  0.00     0.140 C 
HETATM   42  H   UNK N   1      35.485  11.997  10.232  0.00  0.00     0.153 HD
ENDBRANCH  33  40
BRANCH  34  43
HETATM   43  O   UNK N   1      34.240  13.788  11.705  0.00  0.00    -0.386 OA
HETATM   44  H   UNK N   1      33.883  13.457  10.866  0.00  0.00     0.210 HD
ENDBRANCH  34  43
ENDBRANCH  30  31
ENDBRANCH   6  30
BRANCH   3  45
HETATM   45  N   UNK N   1      36.231  14.373   6.427  0.00  0.00    -0.423 N 
HETATM   46  H   UNK N   1      36.867  13.588   6.289  0.00  0.00     0.150 HD
HETATM   47  H   UNK N   1      36.637  15.308   6.463  0.00  0.00     0.150 HD
ENDBRANCH   3  45
TORSDOF 15
ENDMDL
MODEL 2
REMARK VINA RESULT:      -6.6      6.167     10.013
REMARK  15 active torsions:
REMARK  status: ('A' for Active; 'I' for Inactive)
REMARK    1  A    between atoms: C_14  and  C_6 
REMARK    2  A    between atoms: C_6  and  O_25 
REMARK    3  A    between atoms: C_7  and  N_21 
REMARK    4  A    between atoms: C_8  and  N_22 
REMARK    5  A    between atoms: C_9  and  N_23 
REMARK    6  A    between atoms: C_10  and  O_26 
REMARK    7  A    between atoms: C_11  and  O_27 
REMARK    8  A    between atoms: C_12  and  O_28 
REMARK    9  A    between atoms: C_13  and  O_29 
REMARK   10  A    between atoms: C_15  and  O_33 
REMARK   11  A    between atoms: C_16  and  O_34 
REMARK   12  A    between atoms: C_17  and  N_24 
REMARK   13  A    between atoms: C_18  and  O_33 
REMARK   14  A    between atoms: C_19  and  O_34 
REMARK   15  A    between atoms: C_20  and  O_30 
ROOT
HETATM    1  C   UNK N   1      23.516  14.660   6.798  0.00  0.00     0.054 C 
HETATM    2  C   UNK N   1      22.675  14.501   5.533  0.00  0.00     0.107 C 
HETATM    3  C   UNK N   1      25.029  14.784   6.474  0.00  0.00     0.107 C 
HETATM    4  C   UNK N   1      24.227  16.387   4.682  0.00  0.00     0.180 C 
HETATM    5  C   UNK N   1      22.808  15.732   4.582  0.00  0.00     0.178 C 
HETATM    6  C   UNK N   1      25.296  15.329   5.036  0.00  0.00     0.178 C 
ENDROOT
BRANCH   5   7
HETATM    7  O   UNK N   1      21.792  16.699   4.856  0.00  0.00    -0.349 OA
BRANCH   7   8
HETATM    8  C   UNK N   1      21.429  17.421   3.688  0.00  0.00     0.285 C 
HETATM    9  C   UNK N   1      19.908  17.662   3.680  0.00  0.00     0.161 C 
HETATM   10  C   UNK N   1      19.542  18.469   2.424  0.00  0.00     0.176 C 
HETATM   11  C   UNK N   1      20.377  19.760   2.370  0.00  0.00     0.180 C 
HETATM   12  C   UNK N   1      21.874  19.383   2.488  0.00  0.00     0.184 C 
HETATM   13  O   UNK N   1      22.080  18.684   3.697  0.00  0.00    -0.349 OA
BRANCH   9  14
HETATM   14  N   UNK N   1      19.195  16.393   3.684  0.00  0.00    -0.420 N 
HETATM   15  H   UNK N   1      19.136  15.811   4.521  0.00  0.00     0.150 HD
HETATM   16  H   UNK N   1      18.742  16.075   2.827  0.00  0.00     0.150 HD
ENDBRANCH   9  14
BRANCH  10  17
HETATM   17  O   UNK N   1      18.179  18.779   2.422  0.00  0.00    -0.391 OA
HETATM   18  H   UNK N   1      17.601  18.881   1.650  0.00  0.00     0.210 HD
ENDBRANCH  10  17
BRANCH  11  19
HETATM   19  O   UNK N   1      20.124  20.435   1.175  0.00  0.00    -0.390 OA
HETATM   20  H   UNK N   1      20.392  20.131   0.294  0.00  0.00     0.210 HD
ENDBRANCH  11  19
BRANCH  12  21
HETATM   21  C   UNK N   1      22.825  20.597   2.477  0.00  0.00     0.145 C 
HETATM   22  C   UNK N   1      24.053  20.372   3.347  0.00  0.00     0.042 C 
BRANCH  21  23
HETATM   23  O   UNK N   1      22.165  21.751   2.896  0.00  0.00    -0.393 OA
HETATM   24  H   UNK N   1      21.420  21.793   3.517  0.00  0.00     0.210 HD
ENDBRANCH  21  23
ENDBRANCH  12  21
ENDBRANCH   7   8
ENDBRANCH   5   7
BRANCH   2  25
HETATM   25  N   UNK N   1      21.284  14.233   5.863  0.00  0.00    -0.423 N 
HETATM   26  H   UNK N   1      21.026  13.381   6.359  0.00  0.00     0.150 HD
HETATM   27  H   UNK N   1      20.562  14.903   5.596  0.00  0.00     0.150 HD
ENDBRANCH   2  25
BRANCH   4  28
HETATM   28  O   UNK N   1      24.175  17.368   5.680  0.00  0.00    -0.390 OA
HETATM   29  H   UNK N   1      24.298  18.125   6.274  0.00  0.00     0.210 HD
ENDBRANCH   4  28
BRANCH   6  30
HETATM   30  O   UNK N   1      26.656  15.702   4.775  0.00  0.00    -0.349 OA
BRANCH  30  31
HETATM   31  C   UNK N   1      27.512  15.752   5.909  0.00  0.00     0.291 C 
HETATM   32  C   UNK N   1      27.893  17.214   6.242  0.00  0.00     0.198 C 
HETATM   33  C   UNK N   1      28.869  17.851   5.220  0.00  0.00     0.146 C 
HETATM   34  C   UNK N   1      29.703  16.747   4.514  0.00  0.00     0.098 C 
HETATM   35  C   UNK N   1      31.061  17.274   4.086  0.00  0.00     0.050 C 
HETATM   36  C   UNK N   1      29.874  15.576   5.478  0.00  0.00     0.210 C 
HETATM   37  O   UNK N   1      28.643  14.897   5.711  0.00  0.00    -0.356 OA
BRANCH  32  38
HETATM   38  O   UNK N   1      26.769  18.018   6.464  0.00  0.00    -0.388 OA
HETATM   39  H   UNK N   1      26.550  18.592   7.214  0.00  0.00     0.210 HD
ENDBRANCH  32  38
BRANCH  33  40
HETATM   40  N   UNK N   1      28.161  18.683   4.238  0.00  0.00    -0.416 N 
HETATM   41  C   UNK N   1      28.231  20.085   4.636  0.00  0.00     0.140 C 
HETATM   42  H   UNK N   1      27.690  18.332   3.403  0.00  0.00     0.153 HD
ENDBRANCH  33  40
BRANCH  34  43
HETATM   43  O   UNK N   1      29.036  16.276   3.378  0.00  0.00    -0.386 OA
HETATM   44  H   UNK N   1      28.137  15.975   3.173  0.00  0.00     0.210 HD
ENDBRANCH  34  43
ENDBRANCH  30  31
ENDBRANCH   6  30
BRANCH   3  45
HETATM   45  N   UNK N   1      25.687  13.499   6.646  0.00  0.00    -0.423 N 
HETATM   46  H   UNK N   1      26.693  13.343   6.580  0.00  0.00     0.150 HD
HETATM   47  H   UNK N   1      25.098  12.692   6.849  0.00  0.00     0.150 HD
ENDBRANCH   3  45
TORSDOF 15
ENDMDL
MODEL 3
REMARK VINA RESULT:      -6.6      2.254      2.798
REMARK  15 active torsions:
REMARK  status: ('A' for Active; 'I' for Inactive)
REMARK    1  A    between atoms: C_14  and  C_6 
REMARK    2  A    between atoms: C_6  and  O_25 
REMARK    3  A    between atoms: C_7  and  N_21 
REMARK    4  A    between atoms: C_8  and  N_22 
REMARK    5  A    between atoms: C_9  and  N_23 
REMARK    6  A    between atoms: C_10  and  O_26 
REMARK    7  A    between atoms: C_11  and  O_27 
REMARK    8  A    between atoms: C_12  and  O_28 
REMARK    9  A    between atoms: C_13  and  O_29 
REMARK   10  A    between atoms: C_15  and  O_33 
REMARK   11  A    between atoms: C_16  and  O_34 
REMARK   12  A    between atoms: C_17  and  N_24 
REMARK   13  A    between atoms: C_18  and  O_33 
REMARK   14  A    between atoms: C_19  and  O_34 
REMARK   15  A    between atoms: C_20  and  O_30 
ROOT
HETATM    1  C   UNK N   1      34.688  17.145   8.864  0.00  0.00     0.054 C 
HETATM    2  C   UNK N   1      33.186  17.421   8.827  0.00  0.00     0.107 C 
HETATM    3  C   UNK N   1      35.055  16.100   9.952  0.00  0.00     0.107 C 
HETATM    4  C   UNK N   1      33.057  14.846   9.024  0.00  0.00     0.180 C 
HETATM    5  C   UNK N   1      32.361  16.141   8.484  0.00  0.00     0.178 C 
HETATM    6  C   UNK N   1      33.867  15.151  10.304  0.00  0.00     0.178 C 
ENDROOT
BRANCH   5   7
HETATM    7  O   UNK N   1      32.141  16.039   7.076  0.00  0.00    -0.349 OA
BRANCH   7   8
HETATM    8  C   UNK N   1      30.886  16.586   6.702  0.00  0.00     0.285 C 
HETATM    9  C   UNK N   1      30.005  15.484   6.084  0.00  0.00     0.161 C 
HETATM   10  C   UNK N   1      28.641  16.091   5.713  0.00  0.00     0.176 C 
HETATM   11  C   UNK N   1      28.018  16.768   6.946  0.00  0.00     0.180 C 
HETATM   12  C   UNK N   1      29.042  17.774   7.526  0.00  0.00     0.184 C 
HETATM   13  O   UNK N   1      30.228  17.084   7.859  0.00  0.00    -0.349 OA
BRANCH   9  14
HETATM   14  N   UNK N   1      30.644  14.932   4.899  0.00  0.00    -0.420 N 
HETATM   15  H   UNK N   1      30.273  15.093   3.962  0.00  0.00     0.150 HD
HETATM   16  H   UNK N   1      31.487  14.367   5.006  0.00  0.00     0.150 HD
ENDBRANCH   9  14
BRANCH  10  17
HETATM   17  O   UNK N   1      27.784  15.103   5.223  0.00  0.00    -0.391 OA
HETATM   18  H   UNK N   1      28.018  14.199   4.962  0.00  0.00     0.210 HD
ENDBRANCH  10  17
BRANCH  11  19
HETATM   19  O   UNK N   1      26.836  17.413   6.581  0.00  0.00    -0.390 OA
HETATM   20  H   UNK N   1      26.743  18.035   5.843  0.00  0.00     0.210 HD
ENDBRANCH  11  19
BRANCH  12  21
HETATM   21  C   UNK N   1      28.550  18.505   8.792  0.00  0.00     0.145 C 
HETATM   22  C   UNK N   1      29.643  18.633   9.842  0.00  0.00     0.042 C 
BRANCH  21  23
HETATM   23  O   UNK N   1      27.449  17.854   9.346  0.00  0.00    -0.393 OA
HETATM   24  H   UNK N   1      26.518  18.112   9.245  0.00  0.00     0.210 HD
ENDBRANCH  21  23
ENDBRANCH  12  21
ENDBRANCH   7   8
ENDBRANCH   5   7
BRANCH   2  25
HETATM   25  N   UNK N   1      32.880  18.510   7.912  0.00  0.00    -0.423 N 
HETATM   26  H   UNK N   1      31.943  18.609   7.522  0.00  0.00     0.150 HD
HETATM   27  H   UNK N   1      33.607  19.179   7.660  0.00  0.00     0.150 HD
ENDBRANCH   2  25
BRANCH   4  28
HETATM   28  O   UNK N   1      33.910  14.370   8.020  0.00  0.00    -0.390 OA
HETATM   29  H   UNK N   1      34.457  13.859   7.403  0.00  0.00     0.210 HD
ENDBRANCH   4  28
BRANCH   6  30
HETATM   30  O   UNK N   1      34.218  14.015  11.107  0.00  0.00    -0.349 OA
BRANCH  30  31
HETATM   31  C   UNK N   1      35.552  13.545  10.961  0.00  0.00     0.291 C 
HETATM   32  C   UNK N   1      35.563  12.065  10.508  0.00  0.00     0.198 C 
HETATM   33  C   UNK N   1      35.115  11.073  11.611  0.00  0.00     0.146 C 
HETATM   34  C   UNK N   1      35.376  11.679  13.017  0.00  0.00     0.098 C 
HETATM   35  C   UNK N   1      35.632  10.592  14.045  0.00  0.00     0.050 C 
HETATM   36  C   UNK N   1      36.581  12.613  12.929  0.00  0.00     0.210 C 
HETATM   37  O   UNK N   1      36.292  13.780  12.164  0.00  0.00    -0.356 OA
BRANCH  32  38
HETATM   38  O   UNK N   1      34.862  11.872   9.313  0.00  0.00    -0.388 OA
HETATM   39  H   UNK N   1      34.187  12.425   8.888  0.00  0.00     0.210 HD
ENDBRANCH  32  38
BRANCH  33  40
HETATM   40  N   UNK N   1      33.705  10.691  11.457  0.00  0.00    -0.416 N 
HETATM   41  C   UNK N   1      33.606   9.257  11.205  0.00  0.00     0.140 C 
HETATM   42  H   UNK N   1      32.913  11.333  11.517  0.00  0.00     0.153 HD
ENDBRANCH  33  40
BRANCH  34  43
HETATM   43  O   UNK N   1      34.277  12.435  13.440  0.00  0.00    -0.386 OA
HETATM   44  H   UNK N   1      33.833  12.606  14.285  0.00  0.00     0.210 HD
ENDBRANCH  34  43
ENDBRANCH  30  31
ENDBRANCH   6  30
BRANCH   3  45
HETATM   45  N   UNK N   1      35.526  16.769  11.153  0.00  0.00    -0.423 N 
HETATM   46  H   UNK N   1      35.261  17.710  11.443  0.00  0.00     0.150 HD
HETATM   47  H   UNK N   1      36.174  16.257  11.753  0.00  0.00     0.150 HD
ENDBRANCH   3  45
TORSDOF 15
ENDMDL
MODEL 4
REMARK VINA RESULT:      -6.5      6.044      9.927
REMARK  15 active torsions:
REMARK  status: ('A' for Active; 'I' for Inactive)
REMARK    1  A    between atoms: C_14  and  C_6 
REMARK    2  A    between atoms: C_6  and  O_25 
REMARK    3  A    between atoms: C_7  and  N_21 
REMARK    4  A    between atoms: C_8  and  N_22 
REMARK    5  A    between atoms: C_9  and  N_23 
REMARK    6  A    between atoms: C_10  and  O_26 
REMARK    7  A    between atoms: C_11  and  O_27 
REMARK    8  A    between atoms: C_12  and  O_28 
REMARK    9  A    between atoms: C_13  and  O_29 
REMARK   10  A    between atoms: C_15  and  O_33 
REMARK   11  A    between atoms: C_16  and  O_34 
REMARK   12  A    between atoms: C_17  and  N_24 
REMARK   13  A    between atoms: C_18  and  O_33 
REMARK   14  A    between atoms: C_19  and  O_34 
REMARK   15  A    between atoms: C_20  and  O_30 
ROOT
HETATM    1  C   UNK N   1      23.678  13.701   5.362  0.00  0.00     0.054 C 
HETATM    2  C   UNK N   1      23.336  14.263   3.983  0.00  0.00     0.107 C 
HETATM    3  C   UNK N   1      25.079  14.167   5.843  0.00  0.00     0.107 C 
HETATM    4  C   UNK N   1      24.304  16.431   5.009  0.00  0.00     0.180 C 
HETATM    5  C   UNK N   1      23.292  15.824   3.980  0.00  0.00     0.178 C 
HETATM    6  C   UNK N   1      25.530  15.507   5.183  0.00  0.00     0.178 C 
ENDROOT
BRANCH   5   7
HETATM    7  O   UNK N   1      21.969  16.296   4.244  0.00  0.00    -0.349 OA
BRANCH   7   8
HETATM    8  C   UNK N   1      21.524  17.193   3.238  0.00  0.00     0.285 C 
HETATM    9  C   UNK N   1      20.006  17.415   3.377  0.00  0.00     0.161 C 
HETATM   10  C   UNK N   1      19.551  18.410   2.297  0.00  0.00     0.176 C 
HETATM   11  C   UNK N   1      20.380  19.703   2.395  0.00  0.00     0.180 C 
HETATM   12  C   UNK N   1      21.882  19.329   2.344  0.00  0.00     0.184 C 
HETATM   13  O   UNK N   1      22.173  18.446   3.406  0.00  0.00    -0.349 OA
BRANCH   9  14
HETATM   14  N   UNK N   1      19.295  16.153   3.225  0.00  0.00    -0.420 N 
HETATM   15  H   UNK N   1      19.503  15.344   3.810  0.00  0.00     0.150 HD
HETATM   16  H   UNK N   1      18.569  16.075   2.513  0.00  0.00     0.150 HD
ENDBRANCH   9  14
BRANCH  10  17
HETATM   17  O   UNK N   1      18.192  18.701   2.442  0.00  0.00    -0.391 OA
HETATM   18  H   UNK N   1      17.577  18.325   3.091  0.00  0.00     0.210 HD
ENDBRANCH  10  17
BRANCH  11  19
HETATM   19  O   UNK N   1      20.043  20.559   1.346  0.00  0.00    -0.390 OA
HETATM   20  H   UNK N   1      20.558  20.677   0.532  0.00  0.00     0.210 HD
ENDBRANCH  11  19
BRANCH  12  21
HETATM   21  C   UNK N   1      22.829  20.540   2.463  0.00  0.00     0.145 C 
HETATM   22  C   UNK N   1      24.010  20.256   3.380  0.00  0.00     0.042 C 
BRANCH  21  23
HETATM   23  O   UNK N   1      22.146  21.664   2.923  0.00  0.00    -0.393 OA
HETATM   24  H   UNK N   1      21.257  21.946   2.653  0.00  0.00     0.210 HD
ENDBRANCH  21  23
ENDBRANCH  12  21
ENDBRANCH   7   8
ENDBRANCH   5   7
BRANCH   2  25
HETATM   25  N   UNK N   1      22.093  13.696   3.484  0.00  0.00    -0.423 N 
HETATM   26  H   UNK N   1      22.076  13.187   2.601  0.00  0.00     0.150 HD
HETATM   27  H   UNK N   1      21.233  13.809   4.022  0.00  0.00     0.150 HD
ENDBRANCH   2  25
BRANCH   4  28
HETATM   28  O   UNK N   1      23.635  16.576   6.231  0.00  0.00    -0.390 OA
HETATM   29  H   UNK N   1      23.298  16.530   7.140  0.00  0.00     0.210 HD
ENDBRANCH   4  28
BRANCH   6  30
HETATM   30  O   UNK N   1      26.689  16.111   5.774  0.00  0.00    -0.349 OA
BRANCH  30  31
HETATM   31  C   UNK N   1      27.694  16.541   4.866  0.00  0.00     0.291 C 
HETATM   32  C   UNK N   1      28.929  17.075   5.630  0.00  0.00     0.198 C 
HETATM   33  C   UNK N   1      28.688  18.437   6.330  0.00  0.00     0.146 C 
HETATM   34  C   UNK N   1      27.558  19.219   5.607  0.00  0.00     0.098 C 
HETATM   35  C   UNK N   1      27.747  20.718   5.753  0.00  0.00     0.050 C 
HETATM   36  C   UNK N   1      27.565  18.831   4.130  0.00  0.00     0.210 C 
HETATM   37  O   UNK N   1      27.147  17.482   3.935  0.00  0.00    -0.356 OA
BRANCH  32  38
HETATM   38  O   UNK N   1      29.462  16.123   6.506  0.00  0.00    -0.388 OA
HETATM   39  H   UNK N   1      29.125  15.249   6.759  0.00  0.00     0.210 HD
ENDBRANCH  32  38
BRANCH  33  40
HETATM   40  N   UNK N   1      28.380  18.267   7.756  0.00  0.00    -0.416 N 
HETATM   41  C   UNK N   1      29.462  18.820   8.564  0.00  0.00     0.140 C 
HETATM   42  H   UNK N   1      27.536  17.828   8.126  0.00  0.00     0.153 HD
ENDBRANCH  33  40
BRANCH  34  43
HETATM   43  O   UNK N   1      26.308  18.880   6.135  0.00  0.00    -0.386 OA
HETATM   44  H   UNK N   1      25.955  18.678   7.015  0.00  0.00     0.210 HD
ENDBRANCH  34  43
ENDBRANCH  30  31
ENDBRANCH   6  30
BRANCH   3  45
HETATM   45  N   UNK N   1      26.068  13.132   5.588  0.00  0.00    -0.423 N 
HETATM   46  H   UNK N   1      25.854  12.166   5.340  0.00  0.00     0.150 HD
HETATM   47  H   UNK N   1      27.051  13.392   5.664  0.00  0.00     0.150 HD
ENDBRANCH   3  45
TORSDOF 15
ENDMDL
MODEL 5
REMARK VINA RESULT:      -6.5      6.072      9.989
REMARK  15 active torsions:
REMARK  status: ('A' for Active; 'I' for Inactive)
REMARK    1  A    between atoms: C_14  and  C_6 
REMARK    2  A    between atoms: C_6  and  O_25 
REMARK    3  A    between atoms: C_7  and  N_21 
REMARK    4  A    between atoms: C_8  and  N_22 
REMARK    5  A    between atoms: C_9  and  N_23 
REMARK    6  A    between atoms: C_10  and  O_26 
REMARK    7  A    between atoms: C_11  and  O_27 
REMARK    8  A    between atoms: C_12  and  O_28 
REMARK    9  A    between atoms: C_13  and  O_29 
REMARK   10  A    between atoms: C_15  and  O_33 
REMARK   11  A    between atoms: C_16  and  O_34 
REMARK   12  A    between atoms: C_17  and  N_24 
REMARK   13  A    between atoms: C_18  and  O_33 
REMARK   14  A    between atoms: C_19  and  O_34 
REMARK   15  A    between atoms: C_20  and  O_30 
ROOT
HETATM    1  C   UNK N   1      23.375  14.750   7.042  0.00  0.00     0.054 C 
HETATM    2  C   UNK N   1      22.498  14.575   5.803  0.00  0.00     0.107 C 
HETATM    3  C   UNK N   1      24.885  14.744   6.685  0.00  0.00     0.107 C 
HETATM    4  C   UNK N   1      24.162  16.288   4.810  0.00  0.00     0.180 C 
HETATM    5  C   UNK N   1      22.698  15.732   4.775  0.00  0.00     0.178 C 
HETATM    6  C   UNK N   1      25.160  15.179   5.212  0.00  0.00     0.178 C 
ENDROOT
BRANCH   5   7
HETATM    7  O   UNK N   1      21.760  16.785   5.004  0.00  0.00    -0.349 OA
BRANCH   7   8
HETATM    8  C   UNK N   1      21.423  17.457   3.800  0.00  0.00     0.285 C 
HETATM    9  C   UNK N   1      19.901  17.691   3.746  0.00  0.00     0.161 C 
HETATM   10  C   UNK N   1      19.563  18.444   2.448  0.00  0.00     0.176 C 
HETATM   11  C   UNK N   1      20.395  19.736   2.361  0.00  0.00     0.180 C 
HETATM   12  C   UNK N   1      21.890  19.370   2.530  0.00  0.00     0.184 C 
HETATM   13  O   UNK N   1      22.069  18.722   3.772  0.00  0.00    -0.349 OA
BRANCH   9  14
HETATM   14  N   UNK N   1      19.193  16.420   3.785  0.00  0.00    -0.420 N 
HETATM   15  H   UNK N   1      18.175  16.370   3.735  0.00  0.00     0.150 HD
HETATM   16  H   UNK N   1      19.728  15.555   3.865  0.00  0.00     0.150 HD
ENDBRANCH   9  14
BRANCH  10  17
HETATM   17  O   UNK N   1      18.200  18.748   2.402  0.00  0.00    -0.391 OA
HETATM   18  H   UNK N   1      17.481  18.298   2.874  0.00  0.00     0.210 HD
ENDBRANCH  10  17
BRANCH  11  19
HETATM   19  O   UNK N   1      20.169  20.359   1.134  0.00  0.00    -0.390 OA
HETATM   20  H   UNK N   1      20.285  19.943   0.265  0.00  0.00     0.210 HD
ENDBRANCH  11  19
BRANCH  12  21
HETATM   21  C   UNK N   1      22.837  20.586   2.491  0.00  0.00     0.145 C 
HETATM   22  C   UNK N   1      24.071  20.380   3.357  0.00  0.00     0.042 C 
BRANCH  21  23
HETATM   23  O   UNK N   1      22.176  21.745   2.896  0.00  0.00    -0.393 OA
HETATM   24  H   UNK N   1      22.593  22.582   3.157  0.00  0.00     0.210 HD
ENDBRANCH  21  23
ENDBRANCH  12  21
ENDBRANCH   7   8
ENDBRANCH   5   7
BRANCH   2  25
HETATM   25  N   UNK N   1      21.099  14.429   6.173  0.00  0.00    -0.423 N 
HETATM   26  H   UNK N   1      20.495  13.786   5.662  0.00  0.00     0.150 HD
HETATM   27  H   UNK N   1      20.720  14.974   6.948  0.00  0.00     0.150 HD
ENDBRANCH   2  25
BRANCH   4  28
HETATM   28  O   UNK N   1      24.201  17.330   5.745  0.00  0.00    -0.390 OA
HETATM   29  H   UNK N   1      24.026  18.047   6.375  0.00  0.00     0.210 HD
ENDBRANCH   4  28
BRANCH   6  30
HETATM   30  O   UNK N   1      26.537  15.436   4.905  0.00  0.00    -0.349 OA
BRANCH  30  31
HETATM   31  C   UNK N   1      26.779  16.494   3.987  0.00  0.00     0.291 C 
HETATM   32  C   UNK N   1      27.831  16.072   2.933  0.00  0.00     0.198 C 
HETATM   33  C   UNK N   1      29.270  15.960   3.500  0.00  0.00     0.146 C 
HETATM   34  C   UNK N   1      29.428  16.873   4.746  0.00  0.00     0.098 C 
HETATM   35  C   UNK N   1      30.862  17.346   4.902  0.00  0.00     0.050 C 
HETATM   36  C   UNK N   1      28.494  18.071   4.593  0.00  0.00     0.210 C 
HETATM   37  O   UNK N   1      27.124  17.691   4.692  0.00  0.00    -0.356 OA
BRANCH  32  38
HETATM   38  O   UNK N   1      27.451  14.919   2.237  0.00  0.00    -0.388 OA
HETATM   39  H   UNK N   1      26.632  14.402   2.286  0.00  0.00     0.210 HD
ENDBRANCH  32  38
BRANCH  33  40
HETATM   40  N   UNK N   1      29.620  14.569   3.819  0.00  0.00    -0.416 N 
HETATM   41  C   UNK N   1      30.793  14.167   3.050  0.00  0.00     0.140 C 
HETATM   42  H   UNK N   1      29.119  13.975   4.480  0.00  0.00     0.153 HD
ENDBRANCH  33  40
BRANCH  34  43
HETATM   43  O   UNK N   1      29.062  16.188   5.909  0.00  0.00    -0.386 OA
HETATM   44  H   UNK N   1      28.370  15.555   6.156  0.00  0.00     0.210 HD
ENDBRANCH  34  43
ENDBRANCH  30  31
ENDBRANCH   6  30
BRANCH   3  45
HETATM   45  N   UNK N   1      25.454  13.428   6.927  0.00  0.00    -0.423 N 
HETATM   46  H   UNK N   1      25.783  13.089   7.831  0.00  0.00     0.150 HD
HETATM   47  H   UNK N   1      25.531  12.796   6.131  0.00  0.00     0.150 HD
ENDBRANCH   3  45
TORSDOF 15
ENDMDL
MODEL 6
REMARK VINA RESULT:      -6.4      2.627      8.934
REMARK  15 active torsions:
REMARK  status: ('A' for Active; 'I' for Inactive)
REMARK    1  A    between atoms: C_14  and  C_6 
REMARK    2  A    between atoms: C_6  and  O_25 
REMARK    3  A    between atoms: C_7  and  N_21 
REMARK    4  A    between atoms: C_8  and  N_22 
REMARK    5  A    between atoms: C_9  and  N_23 
REMARK    6  A    between atoms: C_10  and  O_26 
REMARK    7  A    between atoms: C_11  and  O_27 
REMARK    8  A    between atoms: C_12  and  O_28 
REMARK    9  A    between atoms: C_13  and  O_29 
REMARK   10  A    between atoms: C_15  and  O_33 
REMARK   11  A    between atoms: C_16  and  O_34 
REMARK   12  A    between atoms: C_17  and  N_24 
REMARK   13  A    between atoms: C_18  and  O_33 
REMARK   14  A    between atoms: C_19  and  O_34 
REMARK   15  A    between atoms: C_20  and  O_30 
ROOT
HETATM    1  C   UNK N   1      36.611  14.076   9.023  0.00  0.00     0.054 C 
HETATM    2  C   UNK N   1      36.234  13.106  10.141  0.00  0.00     0.107 C 
HETATM    3  C   UNK N   1      35.358  14.732   8.382  0.00  0.00     0.107 C 
HETATM    4  C   UNK N   1      34.623  15.023  10.790  0.00  0.00     0.180 C 
HETATM    5  C   UNK N   1      35.480  13.819  11.308  0.00  0.00     0.178 C 
HETATM    6  C   UNK N   1      34.132  14.766   9.347  0.00  0.00     0.178 C 
ENDROOT
BRANCH   5   7
HETATM    7  O   UNK N   1      36.397  14.256  12.314  0.00  0.00    -0.349 OA
BRANCH   7   8
HETATM    8  C   UNK N   1      36.365  13.410  13.454  0.00  0.00     0.285 C 
HETATM    9  C   UNK N   1      36.162  14.259  14.722  0.00  0.00     0.161 C 
HETATM   10  C   UNK N   1      36.101  13.322  15.940  0.00  0.00     0.176 C 
HETATM   11  C   UNK N   1      35.014  12.255  15.725  0.00  0.00     0.180 C 
HETATM   12  C   UNK N   1      35.279  11.549  14.372  0.00  0.00     0.184 C 
HETATM   13  O   UNK N   1      35.270  12.512  13.340  0.00  0.00    -0.349 OA
BRANCH   9  14
HETATM   14  N   UNK N   1      37.256  15.208  14.876  0.00  0.00    -0.420 N 
HETATM   15  H   UNK N   1      37.128  16.207  14.714  0.00  0.00     0.150 HD
HETATM   16  H   UNK N   1      38.175  14.865  15.154  0.00  0.00     0.150 HD
ENDBRANCH   9  14
BRANCH  10  17
HETATM   17  O   UNK N   1      35.836  14.049  17.103  0.00  0.00    -0.391 OA
HETATM   18  H   UNK N   1      36.106  13.828  18.009  0.00  0.00     0.210 HD
ENDBRANCH  10  17
BRANCH  11  19
HETATM   19  O   UNK N   1      35.037  11.341  16.778  0.00  0.00    -0.390 OA
HETATM   20  H   UNK N   1      35.740  11.270  17.443  0.00  0.00     0.210 HD
ENDBRANCH  11  19
BRANCH  12  21
HETATM   21  C   UNK N   1      34.236  10.468  14.019  0.00  0.00     0.145 C 
HETATM   22  C   UNK N   1      34.041  10.329  12.517  0.00  0.00     0.042 C 
BRANCH  21  23
HETATM   23  O   UNK N   1      33.009  10.744  14.621  0.00  0.00    -0.393 OA
HETATM   24  H   UNK N   1      32.657  10.328  15.424  0.00  0.00     0.210 HD
ENDBRANCH  21  23
ENDBRANCH  12  21
ENDBRANCH   7   8
ENDBRANCH   5   7
BRANCH   2  25
HETATM   25  N   UNK N   1      37.404  12.389  10.624  0.00  0.00    -0.423 N 
HETATM   26  H   UNK N   1      37.639  12.394  11.617  0.00  0.00     0.150 HD
HETATM   27  H   UNK N   1      37.992  11.878   9.966  0.00  0.00     0.150 HD
ENDBRANCH   2  25
BRANCH   4  28
HETATM   28  O   UNK N   1      35.429  16.168  10.826  0.00  0.00    -0.390 OA
HETATM   29  H   UNK N   1      35.931  16.981  10.658  0.00  0.00     0.210 HD
ENDBRANCH   4  28
BRANCH   6  30
HETATM   30  O   UNK N   1      33.038  15.581   8.905  0.00  0.00    -0.349 OA
BRANCH  30  31
HETATM   31  C   UNK N   1      33.337  16.954   8.689  0.00  0.00     0.291 C 
HETATM   32  C   UNK N   1      32.045  17.756   8.403  0.00  0.00     0.198 C 
HETATM   33  C   UNK N   1      31.424  17.460   7.014  0.00  0.00     0.146 C 
HETATM   34  C   UNK N   1      32.518  16.964   6.031  0.00  0.00     0.098 C 
HETATM   35  C   UNK N   1      32.174  17.326   4.597  0.00  0.00     0.050 C 
HETATM   36  C   UNK N   1      33.851  17.597   6.427  0.00  0.00     0.210 C 
HETATM   37  O   UNK N   1      34.331  17.088   7.668  0.00  0.00    -0.356 OA
BRANCH  32  38
HETATM   38  O   UNK N   1      31.106  17.633   9.434  0.00  0.00    -0.388 OA
HETATM   39  H   UNK N   1      31.237  17.466  10.381  0.00  0.00     0.210 HD
ENDBRANCH  32  38
BRANCH  33  40
HETATM   40  N   UNK N   1      30.323  16.492   7.107  0.00  0.00    -0.416 N 
HETATM   41  C   UNK N   1      29.087  17.101   6.625  0.00  0.00     0.140 C 
HETATM   42  H   UNK N   1      30.410  15.537   7.456  0.00  0.00     0.153 HD
ENDBRANCH  33  40
BRANCH  34  43
HETATM   43  O   UNK N   1      32.661  15.575   6.112  0.00  0.00    -0.386 OA
HETATM   44  H   UNK N   1      32.064  14.811   6.091  0.00  0.00     0.210 HD
ENDBRANCH  34  43
ENDBRANCH  30  31
ENDBRANCH   6  30
BRANCH   3  45
HETATM   45  N   UNK N   1      35.002  14.041   7.154  0.00  0.00    -0.423 N 
HETATM   46  H   UNK N   1      35.566  13.322   6.701  0.00  0.00     0.150 HD
HETATM   47  H   UNK N   1      34.120  14.296   6.710  0.00  0.00     0.150 HD
ENDBRANCH   3  45
TORSDOF 15
ENDMDL
MODEL 7
REMARK VINA RESULT:      -6.4      1.786      2.398
REMARK  15 active torsions:
REMARK  status: ('A' for Active; 'I' for Inactive)
REMARK    1  A    between atoms: C_14  and  C_6 
REMARK    2  A    between atoms: C_6  and  O_25 
REMARK    3  A    between atoms: C_7  and  N_21 
REMARK    4  A    between atoms: C_8  and  N_22 
REMARK    5  A    between atoms: C_9  and  N_23 
REMARK    6  A    between atoms: C_10  and  O_26 
REMARK    7  A    between atoms: C_11  and  O_27 
REMARK    8  A    between atoms: C_12  and  O_28 
REMARK    9  A    between atoms: C_13  and  O_29 
REMARK   10  A    between atoms: C_15  and  O_33 
REMARK   11  A    between atoms: C_16  and  O_34 
REMARK   12  A    between atoms: C_17  and  N_24 
REMARK   13  A    between atoms: C_18  and  O_33 
REMARK   14  A    between atoms: C_19  and  O_34 
REMARK   15  A    between atoms: C_20  and  O_30 
ROOT
HETATM    1  C   UNK N   1      31.520  15.069   3.794  0.00  0.00     0.054 C 
HETATM    2  C   UNK N   1      31.420  16.583   3.618  0.00  0.00     0.107 C 
HETATM    3  C   UNK N   1      32.454  14.686   4.973  0.00  0.00     0.107 C 
HETATM    4  C   UNK N   1      31.200  16.519   6.195  0.00  0.00     0.180 C 
HETATM    5  C   UNK N   1      30.823  17.282   4.880  0.00  0.00     0.178 C 
HETATM    6  C   UNK N   1      32.568  15.814   6.046  0.00  0.00     0.178 C 
ENDROOT
BRANCH   5   7
HETATM    7  O   UNK N   1      29.403  17.408   4.768  0.00  0.00    -0.349 OA
BRANCH   7   8
HETATM    8  C   UNK N   1      28.912  18.489   5.547  0.00  0.00     0.285 C 
HETATM    9  C   UNK N   1      27.635  19.055   4.899  0.00  0.00     0.161 C 
HETATM   10  C   UNK N   1      27.104  20.204   5.773  0.00  0.00     0.176 C 
HETATM   11  C   UNK N   1      26.904  19.712   7.217  0.00  0.00     0.180 C 
HETATM   12  C   UNK N   1      28.228  19.078   7.709  0.00  0.00     0.184 C 
HETATM   13  O   UNK N   1      28.580  18.017   6.845  0.00  0.00    -0.349 OA
BRANCH   9  14
HETATM   14  N   UNK N   1      27.922  19.541   3.556  0.00  0.00    -0.420 N 
HETATM   15  H   UNK N   1      27.208  19.561   2.827  0.00  0.00     0.150 HD
HETATM   16  H   UNK N   1      28.862  19.870   3.338  0.00  0.00     0.150 HD
ENDBRANCH   9  14
BRANCH  10  17
HETATM   17  O   UNK N   1      25.899  20.691   5.260  0.00  0.00    -0.391 OA
HETATM   18  H   UNK N   1      25.510  21.567   5.408  0.00  0.00     0.210 HD
ENDBRANCH  10  17
BRANCH  11  19
HETATM   19  O   UNK N   1      26.530  20.782   8.031  0.00  0.00    -0.390 OA
HETATM   20  H   UNK N   1      25.828  21.420   7.828  0.00  0.00     0.210 HD
ENDBRANCH  11  19
BRANCH  12  21
HETATM   21  C   UNK N   1      28.154  18.514   9.143  0.00  0.00     0.145 C 
HETATM   22  C   UNK N   1      29.533  18.307   9.749  0.00  0.00     0.042 C 
BRANCH  21  23
HETATM   23  O   UNK N   1      27.451  17.311   9.169  0.00  0.00    -0.393 OA
HETATM   24  H   UNK N   1      26.556  17.161   8.825  0.00  0.00     0.210 HD
ENDBRANCH  21  23
ENDBRANCH  12  21
ENDBRANCH   7   8
ENDBRANCH   5   7
BRANCH   2  25
HETATM   25  N   UNK N   1      30.668  16.919   2.420  0.00  0.00    -0.423 N 
HETATM   26  H   UNK N   1      31.153  17.125   1.547  0.00  0.00     0.150 HD
HETATM   27  H   UNK N   1      29.648  16.948   2.453  0.00  0.00     0.150 HD
ENDBRANCH   2  25
BRANCH   4  28
HETATM   28  O   UNK N   1      30.198  15.573   6.442  0.00  0.00    -0.390 OA
HETATM   29  H   UNK N   1      29.451  14.954   6.422  0.00  0.00     0.210 HD
ENDBRANCH   4  28
BRANCH   6  30
HETATM   30  O   UNK N   1      33.205  15.422   7.269  0.00  0.00    -0.349 OA
BRANCH  30  31
HETATM   31  C   UNK N   1      34.508  15.948   7.484  0.00  0.00     0.291 C 
HETATM   32  C   UNK N   1      35.489  14.825   7.897  0.00  0.00     0.198 C 
HETATM   33  C   UNK N   1      35.248  14.283   9.329  0.00  0.00     0.146 C 
HETATM   34  C   UNK N   1      34.558  15.366  10.203  0.00  0.00     0.098 C 
HETATM   35  C   UNK N   1      34.922  15.204  11.668  0.00  0.00     0.050 C 
HETATM   36  C   UNK N   1      34.991  16.743   9.705  0.00  0.00     0.210 C 
HETATM   37  O   UNK N   1      34.455  17.033   8.417  0.00  0.00    -0.356 OA
BRANCH  32  38
HETATM   38  O   UNK N   1      35.546  13.796   6.951  0.00  0.00    -0.388 OA
HETATM   39  H   UNK N   1      36.221  13.113   6.809  0.00  0.00     0.210 HD
ENDBRANCH  32  38
BRANCH  33  40
HETATM   40  N   UNK N   1      34.463  13.042   9.315  0.00  0.00    -0.416 N 
HETATM   41  C   UNK N   1      35.228  11.967   9.941  0.00  0.00     0.140 C 
HETATM   42  H   UNK N   1      33.525  12.945   8.926  0.00  0.00     0.153 HD
ENDBRANCH  33  40
BRANCH  34  43
HETATM   43  O   UNK N   1      33.167  15.284  10.084  0.00  0.00    -0.386 OA
HETATM   44  H   UNK N   1      32.509  15.532   9.416  0.00  0.00     0.210 HD
ENDBRANCH  34  43
ENDBRANCH  30  31
ENDBRANCH   6  30
BRANCH   3  45
HETATM   45  N   UNK N   1      33.776  14.340   4.476  0.00  0.00    -0.423 N 
HETATM   46  H   UNK N   1      34.590  14.149   5.061  0.00  0.00     0.150 HD
HETATM   47  H   UNK N   1      33.899  14.285   3.466  0.00  0.00     0.150 HD
ENDBRANCH   3  45
TORSDOF 15
ENDMDL
MODEL 8
REMARK VINA RESULT:      -6.2      4.173      9.984
REMARK  15 active torsions:
REMARK  status: ('A' for Active; 'I' for Inactive)
REMARK    1  A    between atoms: C_14  and  C_6 
REMARK    2  A    between atoms: C_6  and  O_25 
REMARK    3  A    between atoms: C_7  and  N_21 
REMARK    4  A    between atoms: C_8  and  N_22 
REMARK    5  A    between atoms: C_9  and  N_23 
REMARK    6  A    between atoms: C_10  and  O_26 
REMARK    7  A    between atoms: C_11  and  O_27 
REMARK    8  A    between atoms: C_12  and  O_28 
REMARK    9  A    between atoms: C_13  and  O_29 
REMARK   10  A    between atoms: C_15  and  O_33 
REMARK   11  A    between atoms: C_16  and  O_34 
REMARK   12  A    between atoms: C_17  and  N_24 
REMARK   13  A    between atoms: C_18  and  O_33 
REMARK   14  A    between atoms: C_19  and  O_34 
REMARK   15  A    between atoms: C_20  and  O_30 
ROOT
HETATM    1  C   UNK N   1      28.135  15.296   2.130  0.00  0.00     0.054 C 
HETATM    2  C   UNK N   1      28.906  14.796   3.350  0.00  0.00     0.107 C 
HETATM    3  C   UNK N   1      26.629  15.505   2.445  0.00  0.00     0.107 C 
HETATM    4  C   UNK N   1      27.510  16.615   4.546  0.00  0.00     0.180 C 
HETATM    5  C   UNK N   1      28.855  15.812   4.534  0.00  0.00     0.178 C 
HETATM    6  C   UNK N   1      26.359  15.767   3.960  0.00  0.00     0.178 C 
ENDROOT
BRANCH   5   7
HETATM    7  O   UNK N   1      29.969  16.705   4.487  0.00  0.00    -0.349 OA
BRANCH   7   8
HETATM    8  C   UNK N   1      30.792  16.575   5.636  0.00  0.00     0.285 C 
HETATM    9  C   UNK N   1      32.128  17.306   5.402  0.00  0.00     0.161 C 
HETATM   10  C   UNK N   1      32.991  17.176   6.667  0.00  0.00     0.176 C 
HETATM   11  C   UNK N   1      32.208  17.689   7.889  0.00  0.00     0.180 C 
HETATM   12  C   UNK N   1      30.850  16.947   7.948  0.00  0.00     0.184 C 
HETATM   13  O   UNK N   1      30.145  17.179   6.747  0.00  0.00    -0.349 OA
BRANCH   9  14
HETATM   14  N   UNK N   1      32.825  16.730   4.260  0.00  0.00    -0.420 N 
HETATM   15  H   UNK N   1      33.736  16.280   4.357  0.00  0.00     0.150 HD
HETATM   16  H   UNK N   1      32.392  16.776   3.338  0.00  0.00     0.150 HD
ENDBRANCH   9  14
BRANCH  10  17
HETATM   17  O   UNK N   1      34.180  17.896   6.524  0.00  0.00    -0.391 OA
HETATM   18  H   UNK N   1      34.611  18.158   5.695  0.00  0.00     0.210 HD
ENDBRANCH  10  17
BRANCH  11  19
HETATM   19  O   UNK N   1      32.950  17.467   9.050  0.00  0.00    -0.390 OA
HETATM   20  H   UNK N   1      33.847  17.102   9.079  0.00  0.00     0.210 HD
ENDBRANCH  11  19
BRANCH  12  21
HETATM   21  C   UNK N   1      29.949  17.391   9.119  0.00  0.00     0.145 C 
HETATM   22  C   UNK N   1      28.486  17.489   8.711  0.00  0.00     0.042 C 
BRANCH  21  23
HETATM   23  O   UNK N   1      30.368  18.617   9.633  0.00  0.00    -0.393 OA
HETATM   24  H   UNK N   1      31.283  18.940   9.673  0.00  0.00     0.210 HD
ENDBRANCH  21  23
ENDBRANCH  12  21
ENDBRANCH   7   8
ENDBRANCH   5   7
BRANCH   2  25
HETATM   25  N   UNK N   1      30.277  14.461   2.997  0.00  0.00    -0.423 N 
HETATM   26  H   UNK N   1      30.501  13.546   2.605  0.00  0.00     0.150 HD
HETATM   27  H   UNK N   1      31.019  15.146   3.142  0.00  0.00     0.150 HD
ENDBRANCH   2  25
BRANCH   4  28
HETATM   28  O   UNK N   1      27.696  17.770   3.776  0.00  0.00    -0.390 OA
HETATM   29  H   UNK N   1      27.858  18.658   3.421  0.00  0.00     0.210 HD
ENDBRANCH   4  28
BRANCH   6  30
HETATM   30  O   UNK N   1      25.032  16.215   4.267  0.00  0.00    -0.349 OA
BRANCH  30  31
HETATM   31  C   UNK N   1      24.140  15.221   4.752  0.00  0.00     0.291 C 
HETATM   32  C   UNK N   1      22.781  15.300   4.016  0.00  0.00     0.198 C 
HETATM   33  C   UNK N   1      21.936  16.540   4.401  0.00  0.00     0.146 C 
HETATM   34  C   UNK N   1      22.320  17.031   5.823  0.00  0.00     0.098 C 
HETATM   35  C   UNK N   1      21.146  17.710   6.506  0.00  0.00     0.050 C 
HETATM   36  C   UNK N   1      22.782  15.830   6.645  0.00  0.00     0.210 C 
HETATM   37  O   UNK N   1      24.025  15.314   6.177  0.00  0.00    -0.356 OA
BRANCH  32  38
HETATM   38  O   UNK N   1      22.922  15.172   2.629  0.00  0.00    -0.388 OA
HETATM   39  H   UNK N   1      23.302  14.450   2.104  0.00  0.00     0.210 HD
ENDBRANCH  32  38
BRANCH  33  40
HETATM   40  N   UNK N   1      22.077  17.621   3.416  0.00  0.00    -0.416 N 
HETATM   41  C   UNK N   1      20.772  17.944   2.847  0.00  0.00     0.140 C 
HETATM   42  H   UNK N   1      22.955  18.077   3.168  0.00  0.00     0.153 HD
ENDBRANCH  33  40
BRANCH  34  43
HETATM   43  O   UNK N   1      23.380  17.942   5.761  0.00  0.00    -0.386 OA
HETATM   44  H   UNK N   1      24.297  17.966   6.075  0.00  0.00     0.210 HD
ENDBRANCH  34  43
ENDBRANCH  30  31
ENDBRANCH   6  30
BRANCH   3  45
HETATM   45  N   UNK N   1      25.858  14.357   1.996  0.00  0.00    -0.423 N 
HETATM   46  H   UNK N   1      25.874  13.974   1.051  0.00  0.00     0.150 HD
HETATM   47  H   UNK N   1      25.254  13.901   2.678  0.00  0.00     0.150 HD
ENDBRANCH   3  45
TORSDOF 15
ENDMDL
MODEL 9
REMARK VINA RESULT:      -6.1      5.826      9.790
REMARK  15 active torsions:
REMARK  status: ('A' for Active; 'I' for Inactive)
REMARK    1  A    between atoms: C_14  and  C_6 
REMARK    2  A    between atoms: C_6  and  O_25 
REMARK    3  A    between atoms: C_7  and  N_21 
REMARK    4  A    between atoms: C_8  and  N_22 
REMARK    5  A    between atoms: C_9  and  N_23 
REMARK    6  A    between atoms: C_10  and  O_26 
REMARK    7  A    between atoms: C_11  and  O_27 
REMARK    8  A    between atoms: C_12  and  O_28 
REMARK    9  A    between atoms: C_13  and  O_29 
REMARK   10  A    between atoms: C_15  and  O_33 
REMARK   11  A    between atoms: C_16  and  O_34 
REMARK   12  A    between atoms: C_17  and  N_24 
REMARK   13  A    between atoms: C_18  and  O_33 
REMARK   14  A    between atoms: C_19  and  O_34 
REMARK   15  A    between atoms: C_20  and  O_30 
ROOT
HETATM    1  C   UNK N   1      23.236  19.033   3.559  0.00  0.00     0.054 C 
HETATM    2  C   UNK N   1      22.466  18.689   4.833  0.00  0.00     0.107 C 
HETATM    3  C   UNK N   1      24.770  18.913   3.761  0.00  0.00     0.107 C 
HETATM    4  C   UNK N   1      24.165  16.740   4.919  0.00  0.00     0.180 C 
HETATM    5  C   UNK N   1      22.722  17.219   5.294  0.00  0.00     0.178 C 
HETATM    6  C   UNK N   1      25.153  17.929   4.911  0.00  0.00     0.178 C 
ENDROOT
BRANCH   5   7
HETATM    7  O   UNK N   1      21.744  16.335   4.743  0.00  0.00    -0.349 OA
BRANCH   7   8
HETATM    8  C   UNK N   1      20.920  15.772   5.753  0.00  0.00     0.285 C 
HETATM    9  C   UNK N   1      21.541  14.453   6.251  0.00  0.00     0.161 C 
HETATM   10  C   UNK N   1      20.649  13.875   7.362  0.00  0.00     0.176 C 
HETATM   11  C   UNK N   1      20.448  14.925   8.469  0.00  0.00     0.180 C 
HETATM   12  C   UNK N   1      19.918  16.228   7.820  0.00  0.00     0.184 C 
HETATM   13  O   UNK N   1      20.845  16.670   6.851  0.00  0.00    -0.349 OA
BRANCH   9  14
HETATM   14  N   UNK N   1      21.652  13.501   5.154  0.00  0.00    -0.420 N 
HETATM   15  H   UNK N   1      20.901  13.372   4.475  0.00  0.00     0.150 HD
HETATM   16  H   UNK N   1      22.504  12.948   5.061  0.00  0.00     0.150 HD
ENDBRANCH   9  14
BRANCH  10  17
HETATM   17  O   UNK N   1      21.222  12.719   7.897  0.00  0.00    -0.391 OA
HETATM   18  H   UNK N   1      21.981  12.664   8.499  0.00  0.00     0.210 HD
ENDBRANCH  10  17
BRANCH  11  19
HETATM   19  O   UNK N   1      19.549  14.440   9.420  0.00  0.00    -0.390 OA
HETATM   20  H   UNK N   1      19.221  14.938  10.185  0.00  0.00     0.210 HD
ENDBRANCH  11  19
BRANCH  12  21
HETATM   21  C   UNK N   1      19.700  17.379   8.824  0.00  0.00     0.145 C 
HETATM   22  C   UNK N   1      18.238  17.522   9.223  0.00  0.00     0.042 C 
BRANCH  21  23
HETATM   23  O   UNK N   1      20.158  18.588   8.304  0.00  0.00    -0.393 OA
HETATM   24  H   UNK N   1      19.607  19.322   7.986  0.00  0.00     0.210 HD
ENDBRANCH  21  23
ENDBRANCH  12  21
ENDBRANCH   7   8
ENDBRANCH   5   7
BRANCH   2  25
HETATM   25  N   UNK N   1      21.046  18.954   4.670  0.00  0.00    -0.423 N 
HETATM   26  H   UNK N   1      20.492  19.300   5.454  0.00  0.00     0.150 HD
HETATM   27  H   UNK N   1      20.601  18.794   3.766  0.00  0.00     0.150 HD
ENDBRANCH   2  25
BRANCH   4  28
HETATM   28  O   UNK N   1      24.104  16.159   3.646  0.00  0.00    -0.390 OA
HETATM   29  H   UNK N   1      24.041  15.584   2.867  0.00  0.00     0.210 HD
ENDBRANCH   4  28
BRANCH   6  30
HETATM   30  O   UNK N   1      26.544  17.586   4.973  0.00  0.00    -0.349 OA
BRANCH  30  31
HETATM   31  C   UNK N   1      27.442  18.673   5.150  0.00  0.00     0.291 C 
HETATM   32  C   UNK N   1      28.909  18.193   5.045  0.00  0.00     0.198 C 
HETATM   33  C   UNK N   1      29.374  17.344   6.256  0.00  0.00     0.146 C 
HETATM   34  C   UNK N   1      28.538  17.701   7.514  0.00  0.00     0.098 C 
HETATM   35  C   UNK N   1      29.337  17.481   8.786  0.00  0.00     0.050 C 
HETATM   36  C   UNK N   1      28.104  19.161   7.413  0.00  0.00     0.210 C 
HETATM   37  O   UNK N   1      27.151  19.360   6.372  0.00  0.00    -0.356 OA
BRANCH  32  38
HETATM   38  O   UNK N   1      29.173  17.557   3.827  0.00  0.00    -0.388 OA
HETATM   39  H   UNK N   1      29.090  16.622   3.580  0.00  0.00     0.210 HD
ENDBRANCH  32  38
BRANCH  33  40
HETATM   40  N   UNK N   1      29.305  15.905   5.969  0.00  0.00    -0.416 N 
HETATM   41  C   UNK N   1      30.641  15.323   6.038  0.00  0.00     0.140 C 
HETATM   42  H   UNK N   1      28.450  15.391   5.754  0.00  0.00     0.153 HD
ENDBRANCH  33  40
BRANCH  34  43
HETATM   43  O   UNK N   1      27.383  16.913   7.579  0.00  0.00    -0.386 OA
HETATM   44  H   UNK N   1      27.012  16.179   7.065  0.00  0.00     0.210 HD
ENDBRANCH  34  43
ENDBRANCH  30  31
ENDBRANCH   6  30
BRANCH   3  45
HETATM   45  N   UNK N   1      25.348  20.222   4.018  0.00  0.00    -0.423 N 
HETATM   46  H   UNK N   1      26.287  20.387   4.379  0.00  0.00     0.150 HD
HETATM   47  H   UNK N   1      24.768  21.038   3.822  0.00  0.00     0.150 HD
ENDBRANCH   3  45
TORSDOF 15
ENDMDL
