MODEL 1
REMARK VINA RESULT:      -6.5      0.000      0.000
REMARK  5 active torsions:
REMARK  status: ('A' for Active; 'I' for Inactive)
REMARK    1  A    between atoms: C_2  and  N_1 
REMARK    2  A    between atoms: C_2  and  C_3 
REMARK    3  A    between atoms: C_2  and  C_15 
REMARK    4  A    between atoms: C_3  and  C_4 
REMARK    5  A    between atoms: C_15  and  O_16 
ROOT
HETATM    1  C   UNK N   1      35.154  12.135  16.561  0.00  0.00    -0.041 C 
HETATM    2  C   UNK N   1      35.009  10.988  15.859  0.00  0.00    -0.018 C 
HETATM    3  C   UNK N   1      34.915   9.554  16.328  0.00  0.00     0.028 C 
HETATM    4  C   UNK N   1      34.522   9.323  17.778  0.00  0.00     0.010 C 
HETATM    5  C   UNK N   1      35.662   9.749  18.667  0.00  0.00     0.068 C 
HETATM    6  C   UNK N   1      35.518  11.194  18.958  0.00  0.00     0.092 A 
HETATM    7  C   UNK N   1      35.310  12.212  18.044  0.00  0.00     0.071 A 
HETATM    8  C   UNK N   1      35.284  13.348  18.830  0.00  0.00     0.278 A 
HETATM    9  O   UNK N   1      35.116  14.491  18.448  0.00  0.00    -0.265 OA
HETATM   10  N   UNK N   1      35.461  13.009  20.130  0.00  0.00    -0.225 N 
HETATM   11  O   UNK N   1      35.597  11.713  20.165  0.00  0.00    -0.238 OA
HETATM   12  H   UNK N   1      35.481  13.623  20.900  0.00  0.00     0.198 HD
ENDROOT
BRANCH   1  13
HETATM   13  C   UNK N   1      35.241  13.420  15.788  0.00  0.00     0.074 C 
BRANCH  13  14
HETATM   14  C   UNK N   1      36.520  13.583  14.979  0.00  0.00     0.177 C 
BRANCH  14  15
HETATM   15  N   UNK N   1      37.257  14.748  15.450  0.00  0.00    -0.417 N 
HETATM   16  H   UNK N   1      37.890  15.247  14.826  0.00  0.00     0.150 HD
HETATM   17  H   UNK N   1      37.139  15.066  16.411  0.00  0.00     0.150 HD
ENDBRANCH  14  15
BRANCH  14  18
HETATM   18  C   UNK N   1      36.146  13.734  13.531  0.00  0.00     0.163 C 
HETATM   19  O   UNK N   1      34.976  13.803  13.190  0.00  0.00    -0.648 OA
BRANCH  18  20
HETATM   20  O   UNK N   1      37.115  13.784  12.597  0.00  0.00    -0.775 OA
HETATM   21  H   UNK N   1      37.143  13.148  11.908  0.00  0.00     0.167 HD
ENDBRANCH  18  20
ENDBRANCH  14  18
ENDBRANCH  13  14
ENDBRANCH   1  13
TORSDOF 5
ENDMDL
MODEL 2
REMARK VINA RESULT:      -6.4     10.585     12.716
REMARK  5 active torsions:
REMARK  status: ('A' for Active; 'I' for Inactive)
REMARK    1  A    between atoms: C_2  and  N_1 
REMARK    2  A    between atoms: C_2  and  C_3 
REMARK    3  A    between atoms: C_2  and  C_15 
REMARK    4  A    between atoms: C_3  and  C_4 
REMARK    5  A    between atoms: C_15  and  O_16 
ROOT
HETATM    1  C   UNK N   1      30.839  17.045   6.715  0.00  0.00    -0.041 C 
HETATM    2  C   UNK N   1      30.109  16.936   5.582  0.00  0.00    -0.018 C 
HETATM    3  C   UNK N   1      30.538  16.931   4.133  0.00  0.00     0.028 C 
HETATM    4  C   UNK N   1      31.992  16.598   3.842  0.00  0.00     0.010 C 
HETATM    5  C   UNK N   1      32.857  17.743   4.302  0.00  0.00     0.068 C 
HETATM    6  C   UNK N   1      33.194  17.534   5.729  0.00  0.00     0.092 A 
HETATM    7  C   UNK N   1      32.317  17.245   6.760  0.00  0.00     0.071 A 
HETATM    8  C   UNK N   1      33.137  17.186   7.870  0.00  0.00     0.278 A 
HETATM    9  O   UNK N   1      32.794  16.947   9.014  0.00  0.00    -0.265 OA
HETATM   10  N   UNK N   1      34.421  17.421   7.505  0.00  0.00    -0.225 N 
HETATM   11  O   UNK N   1      34.413  17.625   6.218  0.00  0.00    -0.238 OA
HETATM   12  H   UNK N   1      35.207  17.435   8.098  0.00  0.00     0.198 HD
ENDROOT
BRANCH   1  13
HETATM   13  C   UNK N   1      30.101  17.040   8.024  0.00  0.00     0.074 C 
BRANCH  13  14
HETATM   14  C   UNK N   1      29.741  18.423   8.549  0.00  0.00     0.177 C 
BRANCH  14  15
HETATM   15  N   UNK N   1      30.109  18.528   9.954  0.00  0.00    -0.417 N 
HETATM   16  H   UNK N   1      29.970  17.739  10.586  0.00  0.00     0.150 HD
HETATM   17  H   UNK N   1      30.510  19.396  10.309  0.00  0.00     0.150 HD
ENDBRANCH  14  15
BRANCH  14  18
HETATM   18  C   UNK N   1      28.264  18.628   8.364  0.00  0.00     0.163 C 
HETATM   19  O   UNK N   1      27.826  19.160   7.356  0.00  0.00    -0.648 OA
BRANCH  18  20
HETATM   20  O   UNK N   1      27.412  18.225   9.327  0.00  0.00    -0.775 OA
HETATM   21  H   UNK N   1      26.755  18.809   9.653  0.00  0.00     0.167 HD
ENDBRANCH  18  20
ENDBRANCH  14  18
ENDBRANCH  13  14
ENDBRANCH   1  13
TORSDOF 5
ENDMDL
MODEL 3
REMARK VINA RESULT:      -6.4     16.288     17.623
REMARK  5 active torsions:
REMARK  status: ('A' for Active; 'I' for Inactive)
REMARK    1  A    between atoms: C_2  and  N_1 
REMARK    2  A    between atoms: C_2  and  C_3 
REMARK    3  A    between atoms: C_2  and  C_15 
REMARK    4  A    between atoms: C_3  and  C_4 
REMARK    5  A    between atoms: C_15  and  O_16 
ROOT
HETATM    1  C   UNK N   1      20.427  15.361   8.490  0.00  0.00    -0.041 C 
HETATM    2  C   UNK N   1      20.027  14.588   9.525  0.00  0.00    -0.018 C 
HETATM    3  C   UNK N   1      20.704  13.410  10.190  0.00  0.00     0.028 C 
HETATM    4  C   UNK N   1      22.203  13.268   9.989  0.00  0.00     0.010 C 
HETATM    5  C   UNK N   1      22.469  12.870   8.560  0.00  0.00     0.068 C 
HETATM    6  C   UNK N   1      22.573  14.100   7.741  0.00  0.00     0.092 A 
HETATM    7  C   UNK N   1      21.683  15.159   7.711  0.00  0.00     0.071 A 
HETATM    8  C   UNK N   1      22.231  16.009   6.770  0.00  0.00     0.278 A 
HETATM    9  O   UNK N   1      21.784  17.086   6.418  0.00  0.00    -0.265 OA
HETATM   10  N   UNK N   1      23.378  15.477   6.283  0.00  0.00    -0.225 N 
HETATM   11  O   UNK N   1      23.547  14.335   6.888  0.00  0.00    -0.238 OA
HETATM   12  H   UNK N   1      23.969  15.876   5.604  0.00  0.00     0.198 HD
ENDROOT
BRANCH   1  13
HETATM   13  C   UNK N   1      19.502  16.457   8.042  0.00  0.00     0.074 C 
BRANCH  13  14
HETATM   14  C   UNK N   1      18.997  17.354   9.163  0.00  0.00     0.177 C 
BRANCH  14  15
HETATM   15  N   UNK N   1      17.579  17.627   8.977  0.00  0.00    -0.417 N 
HETATM   16  H   UNK N   1      17.257  18.171   8.176  0.00  0.00     0.150 HD
HETATM   17  H   UNK N   1      16.901  17.270   9.651  0.00  0.00     0.150 HD
ENDBRANCH  14  15
BRANCH  14  18
HETATM   18  C   UNK N   1      19.796  18.626   9.145  0.00  0.00     0.163 C 
HETATM   19  O   UNK N   1      19.826  19.362  10.119  0.00  0.00    -0.648 OA
BRANCH  18  20
HETATM   20  O   UNK N   1      20.482  18.964   8.036  0.00  0.00    -0.775 OA
HETATM   21  H   UNK N   1      21.341  19.334   8.104  0.00  0.00     0.167 HD
ENDBRANCH  18  20
ENDBRANCH  14  18
ENDBRANCH  13  14
ENDBRANCH   1  13
TORSDOF 5
ENDMDL
MODEL 4
REMARK VINA RESULT:      -6.1     10.542     12.485
REMARK  5 active torsions:
REMARK  status: ('A' for Active; 'I' for Inactive)
REMARK    1  A    between atoms: C_2  and  N_1 
REMARK    2  A    between atoms: C_2  and  C_3 
REMARK    3  A    between atoms: C_2  and  C_15 
REMARK    4  A    between atoms: C_3  and  C_4 
REMARK    5  A    between atoms: C_15  and  O_16 
ROOT
HETATM    1  C   UNK N   1      31.006  17.388   8.038  0.00  0.00    -0.041 C 
HETATM    2  C   UNK N   1      30.652  17.968   9.208  0.00  0.00    -0.018 C 
HETATM    3  C   UNK N   1      29.346  18.598   9.636  0.00  0.00     0.028 C 
HETATM    4  C   UNK N   1      28.102  18.213   8.855  0.00  0.00     0.010 C 
HETATM    5  C   UNK N   1      28.177  18.826   7.481  0.00  0.00     0.068 C 
HETATM    6  C   UNK N   1      28.908  17.895   6.590  0.00  0.00     0.092 A 
HETATM    7  C   UNK N   1      30.128  17.291   6.835  0.00  0.00     0.071 A 
HETATM    8  C   UNK N   1      30.362  16.564   5.685  0.00  0.00     0.278 A 
HETATM    9  O   UNK N   1      31.328  15.858   5.456  0.00  0.00    -0.265 OA
HETATM   10  N   UNK N   1      29.332  16.730   4.820  0.00  0.00    -0.225 N 
HETATM   11  O   UNK N   1      28.484  17.533   5.397  0.00  0.00    -0.238 OA
HETATM   12  H   UNK N   1      29.242  16.322   3.928  0.00  0.00     0.198 HD
ENDROOT
BRANCH   1  13
HETATM   13  C   UNK N   1      32.411  16.869   7.915  0.00  0.00     0.074 C 
BRANCH  13  14
HETATM   14  C   UNK N   1      33.415  17.886   7.391  0.00  0.00     0.177 C 
BRANCH  14  15
HETATM   15  N   UNK N   1      34.074  17.363   6.203  0.00  0.00    -0.417 N 
HETATM   16  H   UNK N   1      33.743  17.618   5.273  0.00  0.00     0.150 HD
HETATM   17  H   UNK N   1      34.873  16.738   6.302  0.00  0.00     0.150 HD
ENDBRANCH  14  15
BRANCH  14  18
HETATM   18  C   UNK N   1      34.412  18.167   8.480  0.00  0.00     0.163 C 
HETATM   19  O   UNK N   1      35.232  19.064   8.364  0.00  0.00    -0.648 OA
BRANCH  18  20
HETATM   20  O   UNK N   1      34.405  17.413   9.597  0.00  0.00    -0.775 OA
HETATM   21  H   UNK N   1      34.026  17.742  10.388  0.00  0.00     0.167 HD
ENDBRANCH  18  20
ENDBRANCH  14  18
ENDBRANCH  13  14
ENDBRANCH   1  13
TORSDOF 5
ENDMDL
MODEL 5
REMARK VINA RESULT:      -6.1      3.793      5.032
REMARK  5 active torsions:
REMARK  status: ('A' for Active; 'I' for Inactive)
REMARK    1  A    between atoms: C_2  and  N_1 
REMARK    2  A    between atoms: C_2  and  C_3 
REMARK    3  A    between atoms: C_2  and  C_15 
REMARK    4  A    between atoms: C_3  and  C_4 
REMARK    5  A    between atoms: C_15  and  O_16 
ROOT
HETATM    1  C   UNK N   1      35.818  13.398  13.340  0.00  0.00    -0.041 C 
HETATM    2  C   UNK N   1      36.377  14.010  14.409  0.00  0.00    -0.018 C 
HETATM    3  C   UNK N   1      36.309  13.672  15.881  0.00  0.00     0.028 C 
HETATM    4  C   UNK N   1      35.916  12.251  16.248  0.00  0.00     0.010 C 
HETATM    5  C   UNK N   1      34.456  12.050  15.930  0.00  0.00     0.068 C 
HETATM    6  C   UNK N   1      34.338  11.616  14.519  0.00  0.00     0.092 A 
HETATM    7  C   UNK N   1      34.919  12.210  13.412  0.00  0.00     0.071 A 
HETATM    8  C   UNK N   1      34.464  11.438  12.360  0.00  0.00     0.278 A 
HETATM    9  O   UNK N   1      34.731  11.589  11.182  0.00  0.00    -0.265 OA
HETATM   10  N   UNK N   1      33.667  10.448  12.829  0.00  0.00    -0.225 N 
HETATM   11  O   UNK N   1      33.616  10.588  14.123  0.00  0.00    -0.238 OA
HETATM   12  H   UNK N   1      33.215   9.755  12.294  0.00  0.00     0.198 HD
ENDROOT
BRANCH   1  13
HETATM   13  C   UNK N   1      36.058  14.004  11.986  0.00  0.00     0.074 C 
BRANCH  13  14
HETATM   14  C   UNK N   1      35.133  15.162  11.640  0.00  0.00     0.177 C 
BRANCH  14  15
HETATM   15  N   UNK N   1      34.028  14.683  10.822  0.00  0.00    -0.417 N 
HETATM   16  H   UNK N   1      34.187  13.988  10.093  0.00  0.00     0.150 HD
HETATM   17  H   UNK N   1      33.088  15.046  10.979  0.00  0.00     0.150 HD
ENDBRANCH  14  15
BRANCH  14  18
HETATM   18  C   UNK N   1      35.933  16.202  10.908  0.00  0.00     0.163 C 
HETATM   19  O   UNK N   1      35.410  17.230  10.509  0.00  0.00    -0.648 OA
BRANCH  18  20
HETATM   20  O   UNK N   1      37.245  15.992  10.682  0.00  0.00    -0.775 OA
HETATM   21  H   UNK N   1      37.832  16.718  10.595  0.00  0.00     0.167 HD
ENDBRANCH  18  20
ENDBRANCH  14  18
ENDBRANCH  13  14
ENDBRANCH   1  13
TORSDOF 5
ENDMDL
MODEL 6
REMARK VINA RESULT:      -6.0      8.428     11.831
REMARK  5 active torsions:
REMARK  status: ('A' for Active; 'I' for Inactive)
REMARK    1  A    between atoms: C_2  and  N_1 
REMARK    2  A    between atoms: C_2  and  C_3 
REMARK    3  A    between atoms: C_2  and  C_15 
REMARK    4  A    between atoms: C_3  and  C_4 
REMARK    5  A    between atoms: C_15  and  O_16 
ROOT
HETATM    1  C   UNK N   1      32.670  17.492   7.163  0.00  0.00    -0.041 C 
HETATM    2  C   UNK N   1      33.553  17.508   6.139  0.00  0.00    -0.018 C 
HETATM    3  C   UNK N   1      33.334  17.375   4.649  0.00  0.00     0.028 C 
HETATM    4  C   UNK N   1      31.936  17.659   4.126  0.00  0.00     0.010 C 
HETATM    5  C   UNK N   1      31.016  16.548   4.563  0.00  0.00     0.068 C 
HETATM    6  C   UNK N   1      30.479  16.881   5.903  0.00  0.00     0.092 A 
HETATM    7  C   UNK N   1      31.200  17.275   7.016  0.00  0.00     0.071 A 
HETATM    8  C   UNK N   1      30.231  17.423   7.989  0.00  0.00     0.278 A 
HETATM    9  O   UNK N   1      30.408  17.770   9.143  0.00  0.00    -0.265 OA
HETATM   10  N   UNK N   1      29.013  17.136   7.470  0.00  0.00    -0.225 N 
HETATM   11  O   UNK N   1      29.203  16.816   6.221  0.00  0.00    -0.238 OA
HETATM   12  H   UNK N   1      28.150  17.164   7.945  0.00  0.00     0.198 HD
ENDROOT
BRANCH   1  13
HETATM   13  C   UNK N   1      33.215  17.626   8.556  0.00  0.00     0.074 C 
BRANCH  13  14
HETATM   14  C   UNK N   1      33.787  16.341   9.136  0.00  0.00     0.177 C 
BRANCH  14  15
HETATM   15  N   UNK N   1      32.715  15.532   9.699  0.00  0.00    -0.417 N 
HETATM   16  H   UNK N   1      32.222  14.851   9.121  0.00  0.00     0.150 HD
HETATM   17  H   UNK N   1      32.454  15.648  10.678  0.00  0.00     0.150 HD
ENDBRANCH  14  15
BRANCH  14  18
HETATM   18  C   UNK N   1      34.794  16.707  10.189  0.00  0.00     0.163 C 
HETATM   19  O   UNK N   1      35.564  17.640  10.024  0.00  0.00    -0.648 OA
BRANCH  18  20
HETATM   20  O   UNK N   1      34.854  15.990  11.328  0.00  0.00    -0.775 OA
HETATM   21  H   UNK N   1      34.344  16.242  12.074  0.00  0.00     0.167 HD
ENDBRANCH  18  20
ENDBRANCH  14  18
ENDBRANCH  13  14
ENDBRANCH   1  13
TORSDOF 5
ENDMDL
MODEL 7
REMARK VINA RESULT:      -5.9     11.690     13.549
REMARK  5 active torsions:
REMARK  status: ('A' for Active; 'I' for Inactive)
REMARK    1  A    between atoms: C_2  and  N_1 
REMARK    2  A    between atoms: C_2  and  C_3 
REMARK    3  A    between atoms: C_2  and  C_15 
REMARK    4  A    between atoms: C_3  and  C_4 
REMARK    5  A    between atoms: C_15  and  O_16 
ROOT
HETATM    1  C   UNK N   1      30.700  17.438   7.235  0.00  0.00    -0.041 C 
HETATM    2  C   UNK N   1      31.447  17.487   8.362  0.00  0.00    -0.018 C 
HETATM    3  C   UNK N   1      32.947  17.536   8.545  0.00  0.00     0.028 C 
HETATM    4  C   UNK N   1      33.776  17.996   7.358  0.00  0.00     0.010 C 
HETATM    5  C   UNK N   1      33.740  16.929   6.294  0.00  0.00     0.068 C 
HETATM    6  C   UNK N   1      32.556  17.161   5.435  0.00  0.00     0.092 A 
HETATM    7  C   UNK N   1      31.252  17.368   5.850  0.00  0.00     0.071 A 
HETATM    8  C   UNK N   1      30.555  17.493   4.664  0.00  0.00     0.278 A 
HETATM    9  O   UNK N   1      29.360  17.697   4.542  0.00  0.00    -0.265 OA
HETATM   10  N   UNK N   1      31.406  17.372   3.617  0.00  0.00    -0.225 N 
HETATM   11  O   UNK N   1      32.592  17.174   4.119  0.00  0.00    -0.238 OA
HETATM   12  H   UNK N   1      31.173  17.425   2.661  0.00  0.00     0.198 HD
ENDROOT
BRANCH   1  13
HETATM   13  C   UNK N   1      29.208  17.373   7.391  0.00  0.00     0.074 C 
BRANCH  13  14
HETATM   14  C   UNK N   1      28.579  18.630   7.975  0.00  0.00     0.177 C 
BRANCH  14  15
HETATM   15  N   UNK N   1      27.775  18.285   9.139  0.00  0.00    -0.417 N 
HETATM   16  H   UNK N   1      27.496  19.003   9.807  0.00  0.00     0.150 HD
HETATM   17  H   UNK N   1      27.488  17.317   9.287  0.00  0.00     0.150 HD
ENDBRANCH  14  15
BRANCH  14  18
HETATM   18  C   UNK N   1      27.736  19.273   6.910  0.00  0.00     0.163 C 
HETATM   19  O   UNK N   1      27.751  20.482   6.743  0.00  0.00    -0.648 OA
BRANCH  18  20
HETATM   20  O   UNK N   1      26.945  18.505   6.135  0.00  0.00    -0.775 OA
HETATM   21  H   UNK N   1      26.016  18.628   6.138  0.00  0.00     0.167 HD
ENDBRANCH  18  20
ENDBRANCH  14  18
ENDBRANCH  13  14
ENDBRANCH   1  13
TORSDOF 5
ENDMDL
MODEL 8
REMARK VINA RESULT:      -5.9     14.138     15.733
REMARK  5 active torsions:
REMARK  status: ('A' for Active; 'I' for Inactive)
REMARK    1  A    between atoms: C_2  and  N_1 
REMARK    2  A    between atoms: C_2  and  C_3 
REMARK    3  A    between atoms: C_2  and  C_15 
REMARK    4  A    between atoms: C_3  and  C_4 
REMARK    5  A    between atoms: C_15  and  O_16 
ROOT
HETATM    1  C   UNK N   1      22.073  12.854   9.609  0.00  0.00    -0.041 C 
HETATM    2  C   UNK N   1      21.092  13.705   9.989  0.00  0.00    -0.018 C 
HETATM    3  C   UNK N   1      20.412  14.822   9.231  0.00  0.00     0.028 C 
HETATM    4  C   UNK N   1      20.503  14.786   7.715  0.00  0.00     0.010 C 
HETATM    5  C   UNK N   1      21.919  15.099   7.302  0.00  0.00     0.068 C 
HETATM    6  C   UNK N   1      22.693  13.837   7.284  0.00  0.00     0.092 A 
HETATM    7  C   UNK N   1      22.760  12.884   8.285  0.00  0.00     0.071 A 
HETATM    8  C   UNK N   1      23.634  11.944   7.774  0.00  0.00     0.278 A 
HETATM    9  O   UNK N   1      23.989  10.913   8.316  0.00  0.00    -0.265 OA
HETATM   10  N   UNK N   1      24.048  12.325   6.541  0.00  0.00    -0.225 N 
HETATM   11  O   UNK N   1      23.464  13.461   6.284  0.00  0.00    -0.238 OA
HETATM   12  H   UNK N   1      24.669  11.837   5.953  0.00  0.00     0.198 HD
ENDROOT
BRANCH   1  13
HETATM   13  C   UNK N   1      22.559  11.854  10.620  0.00  0.00     0.074 C 
BRANCH  13  14
HETATM   14  C   UNK N   1      23.617  12.387  11.575  0.00  0.00     0.177 C 
BRANCH  14  15
HETATM   15  N   UNK N   1      24.931  11.901  11.177  0.00  0.00    -0.417 N 
HETATM   16  H   UNK N   1      25.540  11.441  11.854  0.00  0.00     0.150 HD
HETATM   17  H   UNK N   1      25.245  12.021  10.214  0.00  0.00     0.150 HD
ENDBRANCH  14  15
BRANCH  14  18
HETATM   18  C   UNK N   1      23.272  11.928  12.964  0.00  0.00     0.163 C 
HETATM   19  O   UNK N   1      23.944  12.272  13.924  0.00  0.00    -0.648 OA
BRANCH  18  20
HETATM   20  O   UNK N   1      22.212  11.118  13.151  0.00  0.00    -0.775 OA
HETATM   21  H   UNK N   1      21.405  11.463  13.482  0.00  0.00     0.167 HD
ENDBRANCH  18  20
ENDBRANCH  14  18
ENDBRANCH  13  14
ENDBRANCH   1  13
TORSDOF 5
ENDMDL
MODEL 9
REMARK VINA RESULT:      -5.9     19.267     21.082
REMARK  5 active torsions:
REMARK  status: ('A' for Active; 'I' for Inactive)
REMARK    1  A    between atoms: C_2  and  N_1 
REMARK    2  A    between atoms: C_2  and  C_3 
REMARK    3  A    between atoms: C_2  and  C_15 
REMARK    4  A    between atoms: C_3  and  C_4 
REMARK    5  A    between atoms: C_15  and  O_16 
ROOT
HETATM    1  C   UNK N   1      21.714  17.796   3.467  0.00  0.00    -0.041 C 
HETATM    2  C   UNK N   1      22.782  17.099   3.918  0.00  0.00    -0.018 C 
HETATM    3  C   UNK N   1      24.179  17.559   4.269  0.00  0.00     0.028 C 
HETATM    4  C   UNK N   1      24.368  19.038   4.561  0.00  0.00     0.010 C 
HETATM    5  C   UNK N   1      24.219  19.814   3.278  0.00  0.00     0.068 C 
HETATM    6  C   UNK N   1      22.786  20.133   3.085  0.00  0.00     0.092 A 
HETATM    7  C   UNK N   1      21.719  19.256   3.158  0.00  0.00     0.071 A 
HETATM    8  C   UNK N   1      20.629  20.054   2.868  0.00  0.00     0.278 A 
HETATM    9  O   UNK N   1      19.463  19.703   2.826  0.00  0.00    -0.265 OA
HETATM   10  N   UNK N   1      21.038  21.326   2.644  0.00  0.00    -0.225 N 
HETATM   11  O   UNK N   1      22.334  21.332   2.782  0.00  0.00    -0.238 OA
HETATM   12  H   UNK N   1      20.467  22.097   2.421  0.00  0.00     0.198 HD
ENDROOT
BRANCH   1  13
HETATM   13  C   UNK N   1      20.452  17.032   3.185  0.00  0.00     0.074 C 
BRANCH  13  14
HETATM   14  C   UNK N   1      20.351  16.483   1.768  0.00  0.00     0.177 C 
BRANCH  14  15
HETATM   15  N   UNK N   1      19.288  17.170   1.048  0.00  0.00    -0.417 N 
HETATM   16  H   UNK N   1      19.459  18.077   0.613  0.00  0.00     0.150 HD
HETATM   17  H   UNK N   1      18.365  16.741   0.977  0.00  0.00     0.150 HD
ENDBRANCH  14  15
BRANCH  14  18
HETATM   18  C   UNK N   1      20.077  15.008   1.853  0.00  0.00     0.163 C 
HETATM   19  O   UNK N   1      20.992  14.205   1.950  0.00  0.00    -0.648 OA
BRANCH  18  20
HETATM   20  O   UNK N   1      18.805  14.565   1.813  0.00  0.00    -0.775 OA
HETATM   21  H   UNK N   1      18.155  14.942   2.373  0.00  0.00     0.167 HD
ENDBRANCH  18  20
ENDBRANCH  14  18
ENDBRANCH  13  14
ENDBRANCH   1  13
TORSDOF 5
ENDMDL
