REMARK  10 active torsions:
REMARK  status: ('A' for Active; 'I' for Inactive)
REMARK    1  A    between atoms: C_30  and  C_6 
REMARK    2  A    between atoms: C_30  and  C_7 
REMARK    3  A    between atoms: C_9  and  C_8 
REMARK    4  A    between atoms: C_21  and  C_11 
REMARK    5  A    between atoms: C_14  and  C_13 
REMARK    6  A    between atoms: C_30  and  C_18 
REMARK    7  A    between atoms: C_26  and  C_21 
REMARK    8  A    between atoms: C_25  and  O_31 
REMARK    9  A    between atoms: C_28  and  O_32 
REMARK   10  A    between atoms: O_33  and  C_30 
ROOT
HETATM    1  C   UNK N   1       3.315   0.219   1.377  0.00  0.00     0.016 C 
HETATM    2  C   UNK N   1       5.137   0.487  -0.934  0.00  0.00     0.005 C 
HETATM    3  C   UNK N   1       4.922   1.992  -1.216  0.00  0.00     0.034 C 
HETATM    4  C   UNK N   1       3.622   3.756   0.008  0.00  0.00     0.004 C 
HETATM    5  C   UNK N   1       0.548   0.772   0.573  0.00  0.00     0.007 C 
HETATM    6  C   UNK N   1       1.251   2.078   0.251  0.00  0.00     0.010 C 
HETATM    7  C   UNK N   1       3.839  -0.358  -1.004  0.00  0.00     0.010 C 
HETATM    8  C   UNK N   1       3.691   2.527  -0.521  0.00  0.00    -0.075 C 
HETATM    9  C   UNK N   1       1.358  -0.344  -0.123  0.00  0.00     0.002 C 
HETATM   10  C   UNK N   1       2.474   1.650  -0.555  0.00  0.00     0.023 C 
HETATM   11  C   UNK N   1       2.780   0.238  -0.069  0.00  0.00    -0.032 C 
ENDROOT
BRANCH   4  12
HETATM   12  C   UNK N   1       4.722   4.742   0.050  0.00  0.00     0.008 C 
HETATM   13  C   UNK N   1       4.443   6.065   0.068  0.00  0.00    -0.048 C 
HETATM   14  C   UNK N   1       2.994   6.502  -0.103  0.00  0.00     0.071 C 
HETATM   15  C   UNK N   1       5.506   7.109   0.191  0.00  0.00    -0.033 C 
HETATM   16  C   UNK N   1       2.712   7.970   0.130  0.00  0.00     0.125 C 
HETATM   17  C   UNK N   1       3.781   8.815  -0.533  0.00  0.00     0.068 C 
HETATM   18  C   UNK N   1       5.160   8.579   0.088  0.00  0.00     0.153 C 
HETATM   19  C   UNK N   1       6.751   6.767   0.556  0.00  0.00     0.022 C 
BRANCH  16  20
HETATM   20  O   UNK N   1       1.471   8.276  -0.430  0.00  0.00    -0.395 OA
HETATM   21  H   UNK N   1       1.224   9.130  -0.819  0.00  0.00     0.210 HD
ENDBRANCH  16  20
BRANCH  18  22
HETATM   22  O   UNK N   1       6.098   9.238  -0.707  0.00  0.00    -0.391 OA
HETATM   23  H   UNK N   1       6.821   8.902  -1.259  0.00  0.00     0.210 HD
ENDBRANCH  18  22
ENDBRANCH   4  12
BRANCH   9  24
HETATM   24  C   UNK N   1       1.091  -1.747   0.485  0.00  0.00     0.009 C 
HETATM   25  C   UNK N   1       1.792  -2.829  -0.328  0.00  0.00     0.014 C 
BRANCH  24  26
HETATM   26  C   UNK N   1      -0.414  -1.901   0.525  0.00  0.00    -0.022 C 
HETATM   27  C   UNK N   1      -1.166  -2.855  -0.053  0.00  0.00    -0.004 C 
BRANCH  27  28
HETATM   28  C   UNK N   1      -2.652  -2.734  -0.014  0.00  0.00    -0.001 C 
HETATM   29  C   UNK N   1      -3.237  -1.508  -0.035  0.00  0.00     0.010 C 
BRANCH  29  30
HETATM   30  C   UNK N   1      -4.723  -1.206   0.019  0.00  0.00     0.075 C 
BRANCH  30  31
HETATM   31  C   UNK N   1      -4.968  -0.190   1.141  0.00  0.00     0.037 C 
HETATM   32  C   UNK N   1      -4.298   1.159   0.884  0.00  0.00     0.008 C 
ENDBRANCH  30  31
BRANCH  30  33
HETATM   33  C   UNK N   1      -5.613  -2.415   0.326  0.00  0.00     0.037 C 
HETATM   34  C   UNK N   1      -5.728  -3.390  -0.834  0.00  0.00     0.008 C 
ENDBRANCH  30  33
BRANCH  30  35
HETATM   35  O   UNK N   1      -5.119  -0.633  -1.194  0.00  0.00    -0.386 OA
HETATM   36  H   UNK N   1      -4.912  -0.197  -2.035  0.00  0.00     0.211 HD
ENDBRANCH  30  35
ENDBRANCH  29  30
ENDBRANCH  27  28
ENDBRANCH  24  26
ENDBRANCH   9  24
TORSDOF 10
