REMARK  7 active torsions:
REMARK  status: ('A' for Active; 'I' for Inactive)
REMARK    1  A    between atoms: C_2  and  C_3 
REMARK    2  A    between atoms: C_3  and  C_4 
REMARK    3  A    between atoms: C_4  and  C_5 
REMARK    4  A    between atoms: C_5  and  C_6 
REMARK    5  A    between atoms: C_6  and  C_7 
REMARK    6  A    between atoms: C_7  and  N_8 
REMARK    7  A    between atoms: N_8  and  C_9 
ROOT
HETATM    1  C   UNK N   1       6.162   2.898   0.000  0.00  0.00     0.020 C 
ENDROOT
BRANCH   1   2
HETATM    2  C   UNK N   1       4.922   2.036  -0.000  0.00  0.00     0.002 C 
BRANCH   2   3
HETATM    3  C   UNK N   1       3.664   2.871  -0.000  0.00  0.00     0.000 C 
BRANCH   3   4
HETATM    4  C   UNK N   1       2.500   1.906  -0.000  0.00  0.00    -0.000 C 
BRANCH   4   5
HETATM    5  C   UNK N   1       1.185   2.648   0.000  0.00  0.00    -0.005 C 
HETATM    6  C   UNK N   1       0.061   1.634   0.000  0.00  0.00     0.005 C 
ENDBRANCH   4   5
ENDBRANCH   3   4
ENDBRANCH   2   3
ENDBRANCH   1   2
BRANCH   1   7
HETATM    7  C   UNK N   1       7.348   1.961   0.000  0.00  0.00     0.122 C 
BRANCH   7   8
HETATM    8  N   UNK N   1       8.573   2.705   0.000  0.00  0.00    -0.368 N 
HETATM    9  H   UNK N   1       8.556   3.690  -0.000  0.00  0.00     0.161 HD
BRANCH   8  10
HETATM   10  C   UNK N   1       9.747   2.046   0.000  0.00  0.00     0.348 C 
HETATM   11  O   UNK N   1      10.796   2.666  -0.000  0.00  0.00    -0.284 OA
ENDBRANCH   8  10
ENDBRANCH   7   8
ENDBRANCH   1   7
TORSDOF 7
