REMARK  14 active torsions:
REMARK  status: ('A' for Active; 'I' for Inactive)
REMARK    1  A    between atoms: C_2  and  C_4 
REMARK    2  A    between atoms: C_4  and  C_5 
REMARK    3  A    between atoms: C_5  and  N_6 
REMARK    4  A    between atoms: C_5  and  C_15 
REMARK       I    between atoms: N_6  and  C_7 
REMARK    5  A    between atoms: C_7  and  C_9 
REMARK    6  A    between atoms: C_9  and  O_10 
REMARK    7  A    between atoms: C_9  and  C_11 
REMARK    8  A    between atoms: C_11  and  C_12 
REMARK    9  A    between atoms: C_12  and  O_13 
REMARK       I    between atoms: C_15  and  N_17 
REMARK   10  A    between atoms: N_17  and  C_18 
REMARK   11  A    between atoms: C_18  and  C_19 
REMARK   12  A    between atoms: C_19  and  C_20 
REMARK   13  A    between atoms: C_20  and  C_21 
REMARK   14  A    between atoms: C_21  and  N_22 
REMARK       I    between atoms: N_22  and  C_23 
REMARK       I    between atoms: C_23  and  N_24 
ROOT
HETATM    1  C   UNK N   1      10.122   4.327  -0.311  0.00  0.00     0.177 C 
ENDROOT
BRANCH   1   2
HETATM    2  C   UNK N   1      10.665   3.219   0.586  0.00  0.00     0.038 C 
BRANCH   2   3
HETATM    3  C   UNK N   1      11.223   2.094  -0.265  0.00  0.00    -0.020 C 
HETATM    4  C   UNK N   1      10.526   0.799   0.093  0.00  0.00     0.009 C 
HETATM    5  C   UNK N   1      12.709   1.950  -0.015  0.00  0.00     0.009 C 
ENDBRANCH   2   3
ENDBRANCH   1   2
BRANCH   1   6
HETATM    6  N   UNK N   1       8.770   4.673   0.077  0.00  0.00    -0.346 N 
HETATM    7  C   UNK N   1       7.724   3.808   0.067  0.00  0.00     0.247 C 
HETATM    8  O   UNK N   1       7.879   2.644  -0.270  0.00  0.00    -0.271 OA
HETATM    9  H   UNK N   1       8.599   5.597   0.368  0.00  0.00     0.163 HD
BRANCH   7  10
HETATM   10  C   UNK N   1       6.366   4.285   0.499  0.00  0.00     0.219 C 
BRANCH  10  11
HETATM   11  O   UNK N   1       6.416   5.641   0.841  0.00  0.00    -0.386 OA
HETATM   12  H   UNK N   1       7.247   6.081   1.077  0.00  0.00     0.210 HD
ENDBRANCH  10  11
BRANCH  10  13
HETATM   13  C   UNK N   1       5.341   4.057  -0.607  0.00  0.00     0.151 C 
BRANCH  13  14
HETATM   14  C   UNK N   1       3.977   4.519  -0.199  0.00  0.00     0.142 C 
HETATM   15  O   UNK N   1       3.746   5.710  -0.068  0.00  0.00    -0.650 OA
BRANCH  14  16
HETATM   16  O   UNK N   1       2.997   3.620   0.007  0.00  0.00    -0.776 OA
HETATM   17  H   UNK N   1       2.114   3.899   0.150  0.00  0.00     0.167 HD
ENDBRANCH  14  16
ENDBRANCH  13  14
ENDBRANCH  10  13
ENDBRANCH   7  10
ENDBRANCH   1   6
BRANCH   1  18
HETATM   18  C   UNK N   1      11.001   5.548  -0.200  0.00  0.00     0.240 C 
HETATM   19  O   UNK N   1      10.533   6.608   0.192  0.00  0.00    -0.271 OA
HETATM   20  N   UNK N   1      12.314   5.465  -0.529  0.00  0.00    -0.359 N 
HETATM   21  H   UNK N   1      12.677   4.608  -0.851  0.00  0.00     0.162 HD
BRANCH  20  22
HETATM   22  C   UNK N   1      13.189   6.605  -0.416  0.00  0.00     0.122 C 
BRANCH  22  23
HETATM   23  C   UNK N   1      14.279   6.306   0.591  0.00  0.00     0.021 C 
BRANCH  23  24
HETATM   24  C   UNK N   1      15.604   6.144  -0.122  0.00  0.00     0.022 C 
BRANCH  24  25
HETATM   25  C   UNK N   1      16.132   4.741   0.084  0.00  0.00     0.138 C 
BRANCH  25  26
HETATM   26  N   UNK N   1      17.561   4.748  -0.090  0.00  0.00    -0.227 N 
HETATM   27  C   UNK N   1      18.338   3.565  -0.004  0.00  0.00     0.665 C 
HETATM   28  N   UNK N   1      19.743   3.645  -0.113  0.00  0.00    -0.235 N 
HETATM   29  N   UNK N   1      17.778   2.425   0.172  0.00  0.00    -0.235 N 
HETATM   30  H   UNK N   1      20.281   2.825  -0.190  0.00  0.00     0.174 HD
HETATM   31  H   UNK N   1      20.186   4.524  -0.113  0.00  0.00     0.174 HD
HETATM   32  H   UNK N   1      16.804   2.360   0.306  0.00  0.00     0.174 HD
HETATM   33  H   UNK N   1      18.326   1.607   0.172  0.00  0.00     0.174 HD
HETATM   34  H   UNK N   1      18.014   5.603  -0.276  0.00  0.00     0.177 HD
ENDBRANCH  25  26
ENDBRANCH  24  25
ENDBRANCH  23  24
ENDBRANCH  22  23
ENDBRANCH  20  22
ENDBRANCH   1  18
TORSDOF 14
