REMARK  19 active torsions:
REMARK  status: ('A' for Active; 'I' for Inactive)
REMARK    1  A    between atoms: C_14  and  C_13 
REMARK    2  A    between atoms: C_22  and  C_13 
REMARK    3  A    between atoms: C_23  and  C_14 
REMARK    4  A    between atoms: C_20  and  C_15 
REMARK    5  A    between atoms: C_21  and  C_15 
REMARK    6  A    between atoms: C_24  and  C_16 
REMARK    7  A    between atoms: C_25  and  C_17 
REMARK    8  A    between atoms: C_26  and  C_18 
REMARK    9  A    between atoms: C_18  and  N_30 
REMARK   10  A    between atoms: C_27  and  C_19 
REMARK   11  A    between atoms: N_31  and  C_19 
REMARK   12  A    between atoms: C_22  and  C_21 
REMARK   13  A    between atoms: C_21  and  N_32 
REMARK   14  A    between atoms: C_22  and  O_35 
REMARK       I    between atoms: N_33  and  C_23 
REMARK   15  A    between atoms: C_28  and  C_24 
REMARK   16  A    between atoms: C_24  and  N_33 
REMARK   17  A    between atoms: C_29  and  C_25 
REMARK   18  A    between atoms: C_25  and  N_34 
REMARK       I    between atoms: N_31  and  C_26 
REMARK       I    between atoms: N_32  and  C_27 
REMARK       I    between atoms: N_34  and  C_28 
REMARK   19  A    between atoms: O_41  and  C_29 
ROOT
HETATM    1  C   UNK N   1       1.988   3.439   0.203  0.00  0.00     0.141 C 
ENDROOT
BRANCH   1   2
HETATM    2  C   UNK N   1       1.236   4.260  -0.842  0.00  0.00     0.043 C 
BRANCH   2   3
HETATM    3  C   UNK N   1      -0.167   4.605  -0.400  0.00  0.00     0.105 C 
BRANCH   3   4
HETATM    4  C   UNK N   1      -1.099   3.458  -0.591  0.00  0.00     0.218 C 
HETATM    5  N   UNK N   1      -1.702   2.927   0.505  0.00  0.00    -0.347 N 
HETATM    6  H   UNK N   1      -1.345   3.209   1.378  0.00  0.00     0.163 HD
HETATM    7  O   UNK N   1      -1.375   3.076  -1.716  0.00  0.00    -0.274 OA
BRANCH   5   8
HETATM    8  C   UNK N   1      -2.813   1.993   0.537  0.00  0.00     0.180 C 
BRANCH   8   9
HETATM    9  C   UNK N   1      -2.484   0.573   0.013  0.00  0.00     0.009 C 
HETATM   10  C   UNK N   1      -2.329   0.481  -1.495  0.00  0.00     0.012 C 
HETATM   11  C   UNK N   1      -3.524  -0.446   0.451  0.00  0.00     0.012 C 
ENDBRANCH   8   9
BRANCH   8  12
HETATM   12  C   UNK N   1      -4.046   2.596  -0.091  0.00  0.00     0.241 C 
HETATM   13  N   UNK N   1      -5.258   2.074   0.175  0.00  0.00    -0.345 N 
HETATM   14  H   UNK N   1      -5.283   1.260   0.730  0.00  0.00     0.163 HD
HETATM   15  O   UNK N   1      -3.943   3.594  -0.803  0.00  0.00    -0.271 OA
BRANCH  13  16
HETATM   16  C   UNK N   1      -6.536   2.600  -0.281  0.00  0.00     0.187 C 
BRANCH  16  17
HETATM   17  C   UNK N   1      -6.815   4.026   0.263  0.00  0.00     0.010 C 
HETATM   18  C   UNK N   1      -6.114   5.152  -0.476  0.00  0.00     0.012 C 
HETATM   19  C   UNK N   1      -6.600   4.152   1.763  0.00  0.00     0.012 C 
ENDBRANCH  16  17
BRANCH  16  20
HETATM   20  C   UNK N   1      -7.641   1.672   0.193  0.00  0.00     0.281 C 
HETATM   21  O   UNK N   1      -7.353   0.683   0.858  0.00  0.00    -0.263 OA
BRANCH  20  22
HETATM   22  O   UNK N   1      -8.947   1.896  -0.097  0.00  0.00    -0.325 OA
HETATM   23  C   UNK N   1      -9.393   2.969  -0.833  0.00  0.00     0.213 C 
ENDBRANCH  20  22
ENDBRANCH  16  20
ENDBRANCH  13  16
ENDBRANCH   8  12
ENDBRANCH   5   8
ENDBRANCH   3   4
ENDBRANCH   2   3
ENDBRANCH   1   2
BRANCH   1  24
HETATM   24  C   UNK N   1       2.422   2.101  -0.426  0.00  0.00     0.117 C 
BRANCH  24  25
HETATM   25  C   UNK N   1       1.156   1.254  -0.669  0.00  0.00     0.066 C 
BRANCH  25  26
HETATM   26  C   UNK N   1       1.174  -0.166  -0.196  0.00  0.00    -0.056 A 
HETATM   27  C   UNK N   1       2.076  -1.098  -0.725  0.00  0.00     0.007 A 
HETATM   28  C   UNK N   1       2.050  -2.424  -0.278  0.00  0.00     0.001 A 
HETATM   29  C   UNK N   1       1.117  -2.821   0.686  0.00  0.00     0.000 A 
HETATM   30  C   UNK N   1       0.214  -1.892   1.208  0.00  0.00     0.001 A 
HETATM   31  C   UNK N   1       0.247  -0.568   0.769  0.00  0.00     0.007 A 
ENDBRANCH  25  26
ENDBRANCH  24  25
BRANCH  24  32
HETATM   32  N   UNK N   1       3.363   1.398   0.428  0.00  0.00    -0.352 N 
HETATM   33  C   UNK N   1       4.697   1.638   0.611  0.00  0.00     0.240 C 
HETATM   34  O   UNK N   1       5.287   0.932   1.415  0.00  0.00    -0.271 OA
HETATM   35  H   UNK N   1       2.990   0.648   0.945  0.00  0.00     0.163 HD
BRANCH  33  36
HETATM   36  C   UNK N   1       5.518   2.717  -0.113  0.00  0.00     0.172 C 
HETATM   37  C   UNK N   1       5.075   3.060  -1.521  0.00  0.00     0.042 C 
BRANCH  36  38
HETATM   38  N   UNK N   1       6.877   2.234  -0.229  0.00  0.00    -0.346 N 
HETATM   39  C   UNK N   1       7.982   2.922   0.153  0.00  0.00     0.240 C 
HETATM   40  O   UNK N   1       7.892   4.076   0.550  0.00  0.00    -0.271 OA
HETATM   41  H   UNK N   1       7.010   1.338  -0.614  0.00  0.00     0.163 HD
BRANCH  39  42
HETATM   42  C   UNK N   1       9.329   2.258   0.091  0.00  0.00     0.163 C 
HETATM   43  C   UNK N   1      10.236   2.991  -0.878  0.00  0.00     0.041 C 
BRANCH  42  44
HETATM   44  N   UNK N   1       9.206   0.871  -0.333  0.00  0.00    -0.419 N 
HETATM   45  H   UNK N   1       8.322   0.460  -0.630  0.00  0.00     0.150 HD
HETATM   46  H   UNK N   1      10.041   0.285  -0.333  0.00  0.00     0.150 HD
ENDBRANCH  42  44
ENDBRANCH  39  42
ENDBRANCH  36  38
ENDBRANCH  33  36
ENDBRANCH  24  32
ENDBRANCH   1  24
BRANCH   1  47
HETATM   47  O   UNK N   1       3.081   4.192   0.622  0.00  0.00    -0.393 OA
HETATM   48  H   UNK N   1       3.916   3.795   0.915  0.00  0.00     0.210 HD
ENDBRANCH   1  47
TORSDOF 19
