MODEL 1
REMARK VINA RESULT:      -7.6      0.000      0.000
REMARK  11 active torsions:
REMARK  status: ('A' for Active; 'I' for Inactive)
REMARK    1  A    between atoms: C_3  and  N_1 
REMARK    2  A    between atoms: C_9  and  O_16 
REMARK       I    between atoms: C_13  and  N_19 
REMARK    3  A    between atoms: C_14  and  C_20 
REMARK    4  A    between atoms: C_15  and  O_21 
REMARK    5  A    between atoms: C_20  and  O_22 
REMARK    6  A    between atoms: O_22  and  P_23 
REMARK    7  A    between atoms: P_23  and  O_24 
REMARK    8  A    between atoms: P_23  and  O_25 
REMARK    9  A    between atoms: O_24  and  P_27 
REMARK   10  A    between atoms: P_27  and  O_28 
REMARK   11  A    between atoms: P_27  and  O_29 
ROOT
HETATM    1  C   UNK N   1      32.612  16.656   7.229  0.00  0.00     0.262 C 
HETATM    2  O   UNK N   1      32.368  16.780   8.602  0.00  0.00    -0.353 OA
HETATM    3  C   UNK N   1      33.500  17.821   6.877  0.00  0.00     0.198 C 
HETATM    4  C   UNK N   1      33.621  17.144   9.133  0.00  0.00     0.180 C 
HETATM    5  C   UNK N   1      34.465  17.731   8.014  0.00  0.00     0.182 C 
ENDROOT
BRANCH   1   6
HETATM    6  N   UNK N   1      31.360  16.563   6.475  0.00  0.00    -0.297 N 
HETATM    7  C   UNK N   1      30.110  16.939   6.791  0.00  0.00     0.159 A 
HETATM    8  C   UNK N   1      29.295  16.693   5.747  0.00  0.00     0.147 A 
HETATM    9  N   UNK N   1      29.668  17.511   7.938  0.00  0.00    -0.174 N 
HETATM   10  C   UNK N   1      27.953  17.022   5.816  0.00  0.00     0.290 A 
HETATM   11  N   UNK N   1      29.994  16.144   4.737  0.00  0.00    -0.345 N 
HETATM   12  N   UNK N   1      27.492  17.605   6.976  0.00  0.00    -0.154 N 
HETATM   13  O   UNK N   1      27.200  16.817   4.880  0.00  0.00    -0.265 OA
HETATM   14  C   UNK N   1      28.343  17.846   8.028  0.00  0.00     0.680 A 
HETATM   15  H   UNK N   1      26.542  17.851   7.053  0.00  0.00     0.187 HD
HETATM   16  N   UNK N   1      27.852  18.453   9.199  0.00  0.00    -0.234 N 
HETATM   17  H   UNK N   1      28.431  18.536   9.992  0.00  0.00     0.174 HD
HETATM   18  H   UNK N   1      26.929  18.794   9.227  0.00  0.00     0.174 HD
HETATM   19  C   UNK N   1      31.269  16.079   5.209  0.00  0.00     0.188 A 
ATOM     20  HN  UNK N   1      29.648  15.844   3.826  1.00  0.00     0.167 HD
ATOM     21  HN  UNK N   1      30.305  17.688   8.714  1.00  0.00     0.186 HD
ENDBRANCH   1   6
BRANCH   3  22
HETATM   22  O   UNK N   1      34.159  17.619   5.666  0.00  0.00    -0.388 OA
HETATM   23  H   UNK N   1      34.811  18.000   5.057  0.00  0.00     0.210 HD
ENDBRANCH   3  22
BRANCH   4  24
HETATM   24  C   UNK N   1      34.310  15.905   9.685  0.00  0.00     0.215 C 
BRANCH  24  25
HETATM   25  O   UNK N   1      35.647  15.908   9.280  0.00  0.00    -0.294 OA
BRANCH  25  26
HETATM   26  P   UNK N   1      36.442  14.749  10.307  0.00  0.00     0.401 P 
HETATM   27  O   UNK N   1      34.940  14.418  10.525  0.00  0.00    -0.631 OA
BRANCH  26  28
HETATM   28  O   UNK N   1      36.276  14.862  12.036  0.00  0.00    -0.195 OA
BRANCH  28  29
HETATM   29  P   UNK N   1      36.273  13.220  12.610  0.00  0.00     0.399 P 
HETATM   30  O   UNK N   1      36.375  14.051  13.918  0.00  0.00    -0.631 OA
BRANCH  29  31
HETATM   31  O   UNK N   1      37.675  13.472  11.615  0.00  0.00    -0.307 OA
HETATM   32  H   UNK N   1      38.458  12.921  11.467  0.00  0.00     0.222 HD
ENDBRANCH  29  31
BRANCH  29  33
HETATM   33  O   UNK N   1      37.694  12.582  13.375  0.00  0.00    -0.307 OA
HETATM   34  H   UNK N   1      37.765  12.397  14.325  0.00  0.00     0.222 HD
ENDBRANCH  29  33
ENDBRANCH  28  29
ENDBRANCH  26  28
BRANCH  26  35
HETATM   35  O   UNK N   1      36.797  16.345  10.904  0.00  0.00    -0.307 OA
HETATM   36  H   UNK N   1      37.020  16.851  11.701  0.00  0.00     0.222 HD
ENDBRANCH  26  35
ENDBRANCH  25  26
ENDBRANCH  24  25
ENDBRANCH   4  24
BRANCH   5  37
HETATM   37  O   UNK N   1      34.937  18.997   8.359  0.00  0.00    -0.390 OA
HETATM   38  H   UNK N   1      34.593  19.888   8.191  0.00  0.00     0.210 HD
ENDBRANCH   5  37
TORSDOF 11
ENDMDL
MODEL 2
REMARK VINA RESULT:      -7.1      1.568      1.908
REMARK  11 active torsions:
REMARK  status: ('A' for Active; 'I' for Inactive)
REMARK    1  A    between atoms: C_3  and  N_1 
REMARK    2  A    between atoms: C_9  and  O_16 
REMARK       I    between atoms: C_13  and  N_19 
REMARK    3  A    between atoms: C_14  and  C_20 
REMARK    4  A    between atoms: C_15  and  O_21 
REMARK    5  A    between atoms: C_20  and  O_22 
REMARK    6  A    between atoms: O_22  and  P_23 
REMARK    7  A    between atoms: P_23  and  O_24 
REMARK    8  A    between atoms: P_23  and  O_25 
REMARK    9  A    between atoms: O_24  and  P_27 
REMARK   10  A    between atoms: P_27  and  O_28 
REMARK   11  A    between atoms: P_27  and  O_29 
ROOT
HETATM    1  C   UNK N   1      31.903  16.288   6.544  0.00  0.00     0.262 C 
HETATM    2  O   UNK N   1      32.451  17.159   7.493  0.00  0.00    -0.353 OA
HETATM    3  C   UNK N   1      33.072  15.810   5.723  0.00  0.00     0.198 C 
HETATM    4  C   UNK N   1      33.629  16.506   7.906  0.00  0.00     0.180 C 
HETATM    5  C   UNK N   1      34.028  15.510   6.831  0.00  0.00     0.182 C 
ENDROOT
BRANCH   1   6
HETATM    6  N   UNK N   1      30.823  16.933   5.795  0.00  0.00    -0.297 N 
HETATM    7  C   UNK N   1      29.701  17.543   6.211  0.00  0.00     0.159 A 
HETATM    8  C   UNK N   1      29.038  18.030   5.145  0.00  0.00     0.147 A 
HETATM    9  N   UNK N   1      29.258  17.712   7.481  0.00  0.00    -0.174 N 
HETATM   10  C   UNK N   1      27.858  18.730   5.316  0.00  0.00     0.290 A 
HETATM   11  N   UNK N   1      29.708  17.739   4.015  0.00  0.00    -0.345 N 
HETATM   12  N   UNK N   1      27.397  18.910   6.603  0.00  0.00    -0.154 N 
HETATM   13  O   UNK N   1      27.246  19.187   4.367  0.00  0.00    -0.265 OA
HETATM   14  C   UNK N   1      28.091  18.404   7.675  0.00  0.00     0.680 A 
HETATM   15  H   UNK N   1      26.561  19.405   6.755  0.00  0.00     0.187 HD
HETATM   16  N   UNK N   1      27.608  18.609   8.981  0.00  0.00    -0.234 N 
HETATM   17  H   UNK N   1      28.044  18.164   9.744  0.00  0.00     0.174 HD
HETATM   18  H   UNK N   1      26.833  19.197   9.132  0.00  0.00     0.174 HD
HETATM   19  C   UNK N   1      30.811  17.065   4.442  0.00  0.00     0.188 A 
ATOM     20  HN  UNK N   1      29.447  17.969   3.056  1.00  0.00     0.167 HD
ATOM     21  HN  UNK N   1      29.779  17.334   8.272  1.00  0.00     0.186 HD
ENDBRANCH   1   6
BRANCH   3  22
HETATM   22  O   UNK N   1      32.766  14.646   5.020  0.00  0.00    -0.388 OA
HETATM   23  H   UNK N   1      33.153  13.900   4.537  0.00  0.00     0.210 HD
ENDBRANCH   3  22
BRANCH   4  24
HETATM   24  C   UNK N   1      33.359  15.761   9.205  0.00  0.00     0.215 C 
BRANCH  24  25
HETATM   25  O   UNK N   1      34.276  14.715   9.330  0.00  0.00    -0.294 OA
BRANCH  25  26
HETATM   26  P   UNK N   1      35.114  15.012  10.827  0.00  0.00     0.401 P 
HETATM   27  O   UNK N   1      35.579  13.576  10.459  0.00  0.00    -0.631 OA
BRANCH  26  28
HETATM   28  O   UNK N   1      34.699  14.103  12.251  0.00  0.00    -0.195 OA
BRANCH  28  29
HETATM   29  P   UNK N   1      36.214  13.730  13.022  0.00  0.00     0.399 P 
HETATM   30  O   UNK N   1      35.189  13.611  14.182  0.00  0.00    -0.631 OA
BRANCH  29  31
HETATM   31  O   UNK N   1      36.267  15.358  12.419  0.00  0.00    -0.307 OA
HETATM   32  H   UNK N   1      35.585  16.047  12.382  0.00  0.00     0.222 HD
ENDBRANCH  29  31
BRANCH  29  33
HETATM   33  O   UNK N   1      36.847  14.810  14.222  0.00  0.00    -0.307 OA
HETATM   34  H   UNK N   1      37.647  15.346  14.104  0.00  0.00     0.222 HD
ENDBRANCH  29  33
ENDBRANCH  28  29
ENDBRANCH  26  28
BRANCH  26  35
HETATM   35  O   UNK N   1      33.403  15.025  11.145  0.00  0.00    -0.307 OA
HETATM   36  H   UNK N   1      32.603  15.572  11.106  0.00  0.00     0.222 HD
ENDBRANCH  26  35
ENDBRANCH  25  26
ENDBRANCH  24  25
ENDBRANCH   4  24
BRANCH   5  37
HETATM   37  O   UNK N   1      35.343  15.726   6.417  0.00  0.00    -0.390 OA
HETATM   38  H   UNK N   1      35.898  16.521   6.402  0.00  0.00     0.210 HD
ENDBRANCH   5  37
TORSDOF 11
ENDMDL
MODEL 3
REMARK VINA RESULT:      -7.1      9.300     12.755
REMARK  11 active torsions:
REMARK  status: ('A' for Active; 'I' for Inactive)
REMARK    1  A    between atoms: C_3  and  N_1 
REMARK    2  A    between atoms: C_9  and  O_16 
REMARK       I    between atoms: C_13  and  N_19 
REMARK    3  A    between atoms: C_14  and  C_20 
REMARK    4  A    between atoms: C_15  and  O_21 
REMARK    5  A    between atoms: C_20  and  O_22 
REMARK    6  A    between atoms: O_22  and  P_23 
REMARK    7  A    between atoms: P_23  and  O_24 
REMARK    8  A    between atoms: P_23  and  O_25 
REMARK    9  A    between atoms: O_24  and  P_27 
REMARK   10  A    between atoms: P_27  and  O_28 
REMARK   11  A    between atoms: P_27  and  O_29 
ROOT
HETATM    1  C   UNK N   1      21.580  18.621   3.895  0.00  0.00     0.262 C 
HETATM    2  O   UNK N   1      21.450  17.300   3.449  0.00  0.00    -0.353 OA
HETATM    3  C   UNK N   1      20.593  19.414   3.080  0.00  0.00     0.198 C 
HETATM    4  C   UNK N   1      20.058  17.129   3.313  0.00  0.00     0.180 C 
HETATM    5  C   UNK N   1      19.415  18.500   3.185  0.00  0.00     0.182 C 
ENDROOT
BRANCH   1   6
HETATM    6  N   UNK N   1      22.972  19.070   3.818  0.00  0.00    -0.297 N 
HETATM    7  C   UNK N   1      24.094  18.564   4.356  0.00  0.00     0.159 A 
HETATM    8  C   UNK N   1      25.149  19.302   3.959  0.00  0.00     0.147 A 
HETATM    9  N   UNK N   1      24.229  17.473   5.150  0.00  0.00    -0.174 N 
HETATM   10  C   UNK N   1      26.428  18.963   4.359  0.00  0.00     0.290 A 
HETATM   11  N   UNK N   1      24.735  20.306   3.165  0.00  0.00    -0.345 N 
HETATM   12  N   UNK N   1      26.578  17.856   5.166  0.00  0.00    -0.154 N 
HETATM   13  O   UNK N   1      27.397  19.611   4.005  0.00  0.00    -0.265 OA
HETATM   14  C   UNK N   1      25.487  17.119   5.558  0.00  0.00     0.680 A 
HETATM   15  H   UNK N   1      27.478  17.590   5.465  0.00  0.00     0.187 HD
HETATM   16  N   UNK N   1      25.666  15.985   6.372  0.00  0.00    -0.234 N 
HETATM   17  H   UNK N   1      24.883  15.513   6.739  0.00  0.00     0.174 HD
HETATM   18  H   UNK N   1      26.574  15.664   6.577  0.00  0.00     0.174 HD
HETATM   19  C   UNK N   1      23.386  20.139   3.088  0.00  0.00     0.188 A 
ATOM     20  HN  UNK N   1      25.302  21.029   2.722  1.00  0.00     0.167 HD
ATOM     21  HN  UNK N   1      23.414  16.931   5.436  1.00  0.00     0.186 HD
ENDBRANCH   1   6
BRANCH   3  22
HETATM   22  O   UNK N   1      20.305  20.643   3.673  0.00  0.00    -0.388 OA
HETATM   23  H   UNK N   1      20.175  21.586   3.491  0.00  0.00     0.210 HD
ENDBRANCH   3  22
BRANCH   4  24
HETATM   24  C   UNK N   1      19.515  16.434   4.553  0.00  0.00     0.215 C 
BRANCH  24  25
HETATM   25  O   UNK N   1      20.394  15.414   4.926  0.00  0.00    -0.294 OA
BRANCH  25  26
HETATM   26  P   UNK N   1      20.362  15.391   6.666  0.00  0.00     0.401 P 
HETATM   27  O   UNK N   1      21.836  15.776   6.361  0.00  0.00    -0.631 OA
BRANCH  26  28
HETATM   28  O   UNK N   1      21.257  14.180   7.536  0.00  0.00    -0.195 OA
BRANCH  28  29
HETATM   29  P   UNK N   1      20.889  14.447   9.216  0.00  0.00     0.399 P 
HETATM   30  O   UNK N   1      20.596  12.934   9.026  0.00  0.00    -0.631 OA
BRANCH  29  31
HETATM   31  O   UNK N   1      19.817  15.403   8.238  0.00  0.00    -0.307 OA
HETATM   32  H   UNK N   1      18.935  15.211   7.886  0.00  0.00     0.222 HD
ENDBRANCH  29  31
BRANCH  29  33
HETATM   33  O   UNK N   1      19.251  14.289   9.764  0.00  0.00    -0.307 OA
HETATM   34  H   UNK N   1      18.485  14.200   9.175  0.00  0.00     0.222 HD
ENDBRANCH  29  33
ENDBRANCH  28  29
ENDBRANCH  26  28
BRANCH  26  35
HETATM   35  O   UNK N   1      20.031  13.783   6.091  0.00  0.00    -0.307 OA
HETATM   36  H   UNK N   1      19.647  13.276   5.358  0.00  0.00     0.222 HD
ENDBRANCH  26  35
ENDBRANCH  25  26
ENDBRANCH  24  25
ENDBRANCH   4  24
BRANCH   5  37
HETATM   37  O   UNK N   1      18.630  18.576   2.034  0.00  0.00    -0.390 OA
HETATM   38  H   UNK N   1      17.675  18.673   1.904  0.00  0.00     0.210 HD
ENDBRANCH   5  37
TORSDOF 11
ENDMDL
MODEL 4
REMARK VINA RESULT:      -6.8      4.559      8.096
REMARK  11 active torsions:
REMARK  status: ('A' for Active; 'I' for Inactive)
REMARK    1  A    between atoms: C_3  and  N_1 
REMARK    2  A    between atoms: C_9  and  O_16 
REMARK       I    between atoms: C_13  and  N_19 
REMARK    3  A    between atoms: C_14  and  C_20 
REMARK    4  A    between atoms: C_15  and  O_21 
REMARK    5  A    between atoms: C_20  and  O_22 
REMARK    6  A    between atoms: O_22  and  P_23 
REMARK    7  A    between atoms: P_23  and  O_24 
REMARK    8  A    between atoms: P_23  and  O_25 
REMARK    9  A    between atoms: O_24  and  P_27 
REMARK   10  A    between atoms: P_27  and  O_28 
REMARK   11  A    between atoms: P_27  and  O_29 
ROOT
HETATM    1  C   UNK N   1      34.870  15.731   8.824  0.00  0.00     0.262 C 
HETATM    2  O   UNK N   1      34.841  15.948   7.441  0.00  0.00    -0.353 OA
HETATM    3  C   UNK N   1      35.310  17.042   9.421  0.00  0.00     0.198 C 
HETATM    4  C   UNK N   1      34.267  17.228   7.314  0.00  0.00     0.180 C 
HETATM    5  C   UNK N   1      34.436  17.963   8.633  0.00  0.00     0.182 C 
ENDROOT
BRANCH   1   6
HETATM    6  N   UNK N   1      35.698  14.572   9.161  0.00  0.00    -0.297 N 
HETATM    7  C   UNK N   1      36.145  14.120  10.344  0.00  0.00     0.159 A 
HETATM    8  C   UNK N   1      36.835  12.979  10.153  0.00  0.00     0.147 A 
HETATM    9  N   UNK N   1      35.947  14.651  11.576  0.00  0.00    -0.174 N 
HETATM   10  C   UNK N   1      37.375  12.301  11.230  0.00  0.00     0.290 A 
HETATM   11  N   UNK N   1      36.859  12.671   8.844  0.00  0.00    -0.345 N 
HETATM   12  N   UNK N   1      37.180  12.830  12.487  0.00  0.00    -0.154 N 
HETATM   13  O   UNK N   1      37.995  11.262  11.081  0.00  0.00    -0.265 OA
HETATM   14  C   UNK N   1      36.473  13.995  12.658  0.00  0.00     0.680 A 
HETATM   15  H   UNK N   1      37.553  12.368  13.273  0.00  0.00     0.187 HD
HETATM   16  N   UNK N   1      36.276  14.511  13.952  0.00  0.00    -0.234 N 
HETATM   17  H   UNK N   1      35.859  15.395  14.073  0.00  0.00     0.174 HD
HETATM   18  H   UNK N   1      36.557  13.988  14.738  0.00  0.00     0.174 HD
HETATM   19  C   UNK N   1      36.145  13.666   8.251  0.00  0.00     0.188 A 
ATOM     20  HN  UNK N   1      37.311  11.873   8.396  1.00  0.00     0.167 HD
ATOM     21  HN  UNK N   1      35.421  15.516  11.695  1.00  0.00     0.186 HD
ENDBRANCH   1   6
BRANCH   3  22
HETATM   22  O   UNK N   1      34.998  17.121  10.777  0.00  0.00    -0.388 OA
HETATM   23  H   UNK N   1      34.880  17.736  11.518  0.00  0.00     0.210 HD
ENDBRANCH   3  22
BRANCH   4  24
HETATM   24  C   UNK N   1      32.784  17.083   7.007  0.00  0.00     0.215 C 
BRANCH  24  25
HETATM   25  O   UNK N   1      32.049  17.800   7.954  0.00  0.00    -0.294 OA
BRANCH  25  26
HETATM   26  P   UNK N   1      30.812  16.707   8.503  0.00  0.00     0.401 P 
HETATM   27  O   UNK N   1      30.780  16.506   6.963  0.00  0.00    -0.631 OA
BRANCH  26  28
HETATM   28  O   UNK N   1      29.144  17.015   8.115  0.00  0.00    -0.195 OA
BRANCH  28  29
HETATM   29  P   UNK N   1      28.799  18.591   8.765  0.00  0.00     0.399 P 
HETATM   30  O   UNK N   1      27.780  17.676   9.497  0.00  0.00    -0.631 OA
BRANCH  29  31
HETATM   31  O   UNK N   1      28.491  18.600   7.056  0.00  0.00    -0.307 OA
HETATM   32  H   UNK N   1      27.872  19.122   6.523  0.00  0.00     0.222 HD
ENDBRANCH  29  31
BRANCH  29  33
HETATM   33  O   UNK N   1      27.273  19.340   8.419  0.00  0.00    -0.307 OA
HETATM   34  H   UNK N   1      26.430  19.069   8.815  0.00  0.00     0.222 HD
ENDBRANCH  29  33
ENDBRANCH  28  29
ENDBRANCH  26  28
BRANCH  26  35
HETATM   35  O   UNK N   1      30.327  18.328   8.907  0.00  0.00    -0.307 OA
HETATM   36  H   UNK N   1      30.506  19.265   8.732  0.00  0.00     0.222 HD
ENDBRANCH  26  35
ENDBRANCH  25  26
ENDBRANCH  24  25
ENDBRANCH   4  24
BRANCH   5  37
HETATM   37  O   UNK N   1      35.067  19.193   8.439  0.00  0.00    -0.390 OA
HETATM   38  H   UNK N   1      35.931  19.531   8.718  0.00  0.00     0.210 HD
ENDBRANCH   5  37
TORSDOF 11
ENDMDL
MODEL 5
REMARK VINA RESULT:      -6.7      5.419      8.775
REMARK  11 active torsions:
REMARK  status: ('A' for Active; 'I' for Inactive)
REMARK    1  A    between atoms: C_3  and  N_1 
REMARK    2  A    between atoms: C_9  and  O_16 
REMARK       I    between atoms: C_13  and  N_19 
REMARK    3  A    between atoms: C_14  and  C_20 
REMARK    4  A    between atoms: C_15  and  O_21 
REMARK    5  A    between atoms: C_20  and  O_22 
REMARK    6  A    between atoms: O_22  and  P_23 
REMARK    7  A    between atoms: P_23  and  O_24 
REMARK    8  A    between atoms: P_23  and  O_25 
REMARK    9  A    between atoms: O_24  and  P_27 
REMARK   10  A    between atoms: P_27  and  O_28 
REMARK   11  A    between atoms: P_27  and  O_29 
ROOT
HETATM    1  C   UNK N   1      35.004  14.102  10.959  0.00  0.00     0.262 C 
HETATM    2  O   UNK N   1      34.048  13.514  10.122  0.00  0.00    -0.353 OA
HETATM    3  C   UNK N   1      36.140  14.493  10.050  0.00  0.00     0.198 C 
HETATM    4  C   UNK N   1      34.041  14.346   8.986  0.00  0.00     0.180 C 
HETATM    5  C   UNK N   1      35.351  15.115   8.944  0.00  0.00     0.182 C 
ENDROOT
BRANCH   1   6
HETATM    6  N   UNK N   1      35.357  13.211  12.067  0.00  0.00    -0.297 N 
HETATM    7  C   UNK N   1      35.945  13.463  13.248  0.00  0.00     0.159 A 
HETATM    8  C   UNK N   1      36.014  12.323  13.962  0.00  0.00     0.147 A 
HETATM    9  N   UNK N   1      36.391  14.649  13.730  0.00  0.00    -0.174 N 
HETATM   10  C   UNK N   1      36.556  12.327  15.234  0.00  0.00     0.290 A 
HETATM   11  N   UNK N   1      35.484  11.307  13.257  0.00  0.00    -0.345 N 
HETATM   12  N   UNK N   1      37.012  13.526  15.735  0.00  0.00    -0.154 N 
HETATM   13  O   UNK N   1      36.620  11.308  15.900  0.00  0.00    -0.265 OA
HETATM   14  C   UNK N   1      36.931  14.677  14.989  0.00  0.00     0.680 A 
HETATM   15  H   UNK N   1      37.402  13.559  16.639  0.00  0.00     0.187 HD
HETATM   16  N   UNK N   1      37.393  15.893  15.526  0.00  0.00    -0.234 N 
HETATM   17  H   UNK N   1      37.430  16.699  14.961  0.00  0.00     0.174 HD
HETATM   18  H   UNK N   1      37.679  15.938  16.467  0.00  0.00     0.174 HD
HETATM   19  C   UNK N   1      35.079  11.882  12.092  0.00  0.00     0.188 A 
ATOM     20  HN  UNK N   1      35.404  10.328  13.533  1.00  0.00     0.167 HD
ATOM     21  HN  UNK N   1      36.327  15.499  13.171  1.00  0.00     0.186 HD
ENDBRANCH   1   6
BRANCH   3  22
HETATM   22  O   UNK N   1      36.972  15.441  10.643  0.00  0.00    -0.388 OA
HETATM   23  H   UNK N   1      37.712  15.556  11.260  0.00  0.00     0.210 HD
ENDBRANCH   3  22
BRANCH   4  24
HETATM   24  C   UNK N   1      32.885  15.330   9.094  0.00  0.00     0.215 C 
BRANCH  24  25
HETATM   25  O   UNK N   1      33.322  16.593   8.689  0.00  0.00    -0.294 OA
BRANCH  25  26
HETATM   26  P   UNK N   1      31.942  17.338   7.933  0.00  0.00     0.401 P 
HETATM   27  O   UNK N   1      32.875  18.551   8.201  0.00  0.00    -0.631 OA
BRANCH  26  28
HETATM   28  O   UNK N   1      30.920  18.408   8.849  0.00  0.00    -0.195 OA
BRANCH  28  29
HETATM   29  P   UNK N   1      29.524  17.463   9.279  0.00  0.00     0.399 P 
HETATM   30  O   UNK N   1      29.175  17.984   7.858  0.00  0.00    -0.631 OA
BRANCH  29  31
HETATM   31  O   UNK N   1      29.680  18.787  10.392  0.00  0.00    -0.307 OA
HETATM   32  H   UNK N   1      29.954  19.707  10.254  0.00  0.00     0.222 HD
ENDBRANCH  29  31
BRANCH  29  33
HETATM   33  O   UNK N   1      27.998  18.255   9.511  0.00  0.00    -0.307 OA
HETATM   34  H   UNK N   1      27.853  18.987  10.132  0.00  0.00     0.222 HD
ENDBRANCH  29  33
ENDBRANCH  28  29
ENDBRANCH  26  28
BRANCH  26  35
HETATM   35  O   UNK N   1      31.427  16.634   9.439  0.00  0.00    -0.307 OA
HETATM   36  H   UNK N   1      31.741  16.274  10.283  0.00  0.00     0.222 HD
ENDBRANCH  26  35
ENDBRANCH  25  26
ENDBRANCH  24  25
ENDBRANCH   4  24
BRANCH   5  37
HETATM   37  O   UNK N   1      35.994  14.934   7.719  0.00  0.00    -0.390 OA
HETATM   38  H   UNK N   1      36.783  15.345   7.332  0.00  0.00     0.210 HD
ENDBRANCH   5  37
TORSDOF 11
ENDMDL
MODEL 6
REMARK VINA RESULT:      -6.6      3.797      5.536
REMARK  11 active torsions:
REMARK  status: ('A' for Active; 'I' for Inactive)
REMARK    1  A    between atoms: C_3  and  N_1 
REMARK    2  A    between atoms: C_9  and  O_16 
REMARK       I    between atoms: C_13  and  N_19 
REMARK    3  A    between atoms: C_14  and  C_20 
REMARK    4  A    between atoms: C_15  and  O_21 
REMARK    5  A    between atoms: C_20  and  O_22 
REMARK    6  A    between atoms: O_22  and  P_23 
REMARK    7  A    between atoms: P_23  and  O_24 
REMARK    8  A    between atoms: P_23  and  O_25 
REMARK    9  A    between atoms: O_24  and  P_27 
REMARK   10  A    between atoms: P_27  and  O_28 
REMARK   11  A    between atoms: P_27  and  O_29 
ROOT
HETATM    1  C   UNK N   1      34.803  13.561   9.794  0.00  0.00     0.262 C 
HETATM    2  O   UNK N   1      36.061  13.022   9.499  0.00  0.00    -0.353 OA
HETATM    3  C   UNK N   1      33.836  12.819   8.909  0.00  0.00     0.198 C 
HETATM    4  C   UNK N   1      35.817  11.638   9.401  0.00  0.00     0.180 C 
HETATM    5  C   UNK N   1      34.337  11.428   9.130  0.00  0.00     0.182 C 
ENDROOT
BRANCH   1   6
HETATM    6  N   UNK N   1      34.805  15.018   9.649  0.00  0.00    -0.297 N 
HETATM    7  C   UNK N   1      34.612  15.798   8.572  0.00  0.00     0.159 A 
HETATM    8  C   UNK N   1      34.657  17.091   8.947  0.00  0.00     0.147 A 
HETATM    9  N   UNK N   1      34.370  15.420   7.293  0.00  0.00    -0.174 N 
HETATM   10  C   UNK N   1      34.456  18.095   8.017  0.00  0.00     0.290 A 
HETATM   11  N   UNK N   1      34.891  17.179  10.269  0.00  0.00    -0.345 N 
HETATM   12  N   UNK N   1      34.209  17.724   6.713  0.00  0.00    -0.154 N 
HETATM   13  O   UNK N   1      34.485  19.271   8.335  0.00  0.00    -0.265 OA
HETATM   14  C   UNK N   1      34.167  16.398   6.355  0.00  0.00     0.680 A 
HETATM   15  H   UNK N   1      34.061  18.417   6.030  0.00  0.00     0.187 HD
HETATM   16  N   UNK N   1      33.901  16.043   5.019  0.00  0.00    -0.234 N 
HETATM   17  H   UNK N   1      33.969  15.102   4.737  0.00  0.00     0.174 HD
HETATM   18  H   UNK N   1      33.647  16.735   4.367  0.00  0.00     0.174 HD
HETATM   19  C   UNK N   1      34.972  15.885  10.682  0.00  0.00     0.188 A 
ATOM     20  HN  UNK N   1      34.986  18.023  10.833  1.00  0.00     0.167 HD
ATOM     21  HN  UNK N   1      34.339  14.435   7.035  1.00  0.00     0.186 HD
ENDBRANCH   1   6
BRANCH   3  22
HETATM   22  O   UNK N   1      32.525  12.938   9.366  0.00  0.00    -0.388 OA
HETATM   23  H   UNK N   1      31.624  12.596   9.255  0.00  0.00     0.210 HD
ENDBRANCH   3  22
BRANCH   4  24
HETATM   24  C   UNK N   1      36.187  10.970  10.716  0.00  0.00     0.215 C 
BRANCH  24  25
HETATM   25  O   UNK N   1      37.429  11.449  11.138  0.00  0.00    -0.294 OA
BRANCH  25  26
HETATM   26  P   UNK N   1      37.179  12.009  12.767  0.00  0.00     0.401 P 
HETATM   27  O   UNK N   1      35.783  11.441  12.388  0.00  0.00    -0.631 OA
BRANCH  26  28
HETATM   28  O   UNK N   1      36.124  13.359  13.071  0.00  0.00    -0.195 OA
BRANCH  28  29
HETATM   29  P   UNK N   1      36.261  13.682  14.775  0.00  0.00     0.399 P 
HETATM   30  O   UNK N   1      36.558  15.062  14.129  0.00  0.00    -0.631 OA
BRANCH  29  31
HETATM   31  O   UNK N   1      37.469  12.521  14.316  0.00  0.00    -0.307 OA
HETATM   32  H   UNK N   1      38.437  12.579  14.307  0.00  0.00     0.222 HD
ENDBRANCH  29  31
BRANCH  29  33
HETATM   33  O   UNK N   1      37.806  14.106  15.440  0.00  0.00    -0.307 OA
HETATM   34  H   UNK N   1      37.951  14.349  16.368  0.00  0.00     0.222 HD
ENDBRANCH  29  33
ENDBRANCH  28  29
ENDBRANCH  26  28
BRANCH  26  35
HETATM   35  O   UNK N   1      37.559  13.382  11.770  0.00  0.00    -0.307 OA
HETATM   36  H   UNK N   1      37.172  14.108  11.256  0.00  0.00     0.222 HD
ENDBRANCH  26  35
ENDBRANCH  25  26
ENDBRANCH  24  25
ENDBRANCH   4  24
BRANCH   5  37
HETATM   37  O   UNK N   1      34.145  10.650   7.989  0.00  0.00    -0.390 OA
HETATM   38  H   UNK N   1      34.546  10.680   7.106  0.00  0.00     0.210 HD
ENDBRANCH   5  37
TORSDOF 11
ENDMDL
MODEL 7
REMARK VINA RESULT:      -6.6      9.780     12.133
REMARK  11 active torsions:
REMARK  status: ('A' for Active; 'I' for Inactive)
REMARK    1  A    between atoms: C_3  and  N_1 
REMARK    2  A    between atoms: C_9  and  O_16 
REMARK       I    between atoms: C_13  and  N_19 
REMARK    3  A    between atoms: C_14  and  C_20 
REMARK    4  A    between atoms: C_15  and  O_21 
REMARK    5  A    between atoms: C_20  and  O_22 
REMARK    6  A    between atoms: O_22  and  P_23 
REMARK    7  A    between atoms: P_23  and  O_24 
REMARK    8  A    between atoms: P_23  and  O_25 
REMARK    9  A    between atoms: O_24  and  P_27 
REMARK   10  A    between atoms: P_27  and  O_28 
REMARK   11  A    between atoms: P_27  and  O_29 
ROOT
HETATM    1  C   UNK N   1      21.132  16.913   5.364  0.00  0.00     0.262 C 
HETATM    2  O   UNK N   1      20.337  16.039   4.611  0.00  0.00    -0.353 OA
HETATM    3  C   UNK N   1      20.266  17.341   6.519  0.00  0.00     0.198 C 
HETATM    4  C   UNK N   1      19.689  15.254   5.585  0.00  0.00     0.180 C 
HETATM    5  C   UNK N   1      19.713  16.008   6.904  0.00  0.00     0.182 C 
ENDROOT
BRANCH   1   6
HETATM    6  N   UNK N   1      21.661  17.996   4.532  0.00  0.00    -0.297 N 
HETATM    7  C   UNK N   1      22.885  18.545   4.473  0.00  0.00     0.159 A 
HETATM    8  C   UNK N   1      22.904  19.486   3.509  0.00  0.00     0.147 A 
HETATM    9  N   UNK N   1      23.983  18.234   5.205  0.00  0.00    -0.174 N 
HETATM   10  C   UNK N   1      24.067  20.180   3.232  0.00  0.00     0.290 A 
HETATM   11  N   UNK N   1      21.692  19.574   2.930  0.00  0.00    -0.345 N 
HETATM   12  N   UNK N   1      25.190  19.872   3.968  0.00  0.00    -0.154 N 
HETATM   13  O   UNK N   1      24.109  21.028   2.359  0.00  0.00    -0.265 OA
HETATM   14  C   UNK N   1      25.147  18.909   4.947  0.00  0.00     0.680 A 
HETATM   15  H   UNK N   1      26.033  20.349   3.792  0.00  0.00     0.187 HD
HETATM   16  N   UNK N   1      26.310  18.603   5.679  0.00  0.00    -0.234 N 
HETATM   17  H   UNK N   1      26.262  17.988   6.447  0.00  0.00     0.174 HD
HETATM   18  H   UNK N   1      27.172  19.005   5.424  0.00  0.00     0.174 HD
HETATM   19  C   UNK N   1      20.942  18.640   3.575  0.00  0.00     0.188 A 
ATOM     20  HN  UNK N   1      21.401  20.201   2.179  1.00  0.00     0.167 HD
ATOM     21  HN  UNK N   1      23.944  17.517   5.928  1.00  0.00     0.186 HD
ENDBRANCH   1   6
BRANCH   3  22
HETATM   22  O   UNK N   1      21.024  17.870   7.562  0.00  0.00    -0.388 OA
HETATM   23  H   UNK N   1      21.471  18.672   7.875  0.00  0.00     0.210 HD
ENDBRANCH   3  22
BRANCH   4  24
HETATM   24  C   UNK N   1      20.435  13.938   5.745  0.00  0.00     0.215 C 
BRANCH  24  25
HETATM   25  O   UNK N   1      20.275  13.478   7.054  0.00  0.00    -0.294 OA
BRANCH  25  26
HETATM   26  P   UNK N   1      21.889  13.244   7.662  0.00  0.00     0.401 P 
HETATM   27  O   UNK N   1      21.624  11.921   6.892  0.00  0.00    -0.631 OA
BRANCH  26  28
HETATM   28  O   UNK N   1      22.195  12.032   8.873  0.00  0.00    -0.195 OA
BRANCH  28  29
HETATM   29  P   UNK N   1      22.330  12.900  10.375  0.00  0.00     0.399 P 
HETATM   30  O   UNK N   1      23.600  13.339   9.598  0.00  0.00    -0.631 OA
BRANCH  29  31
HETATM   31  O   UNK N   1      22.372  11.193  10.697  0.00  0.00    -0.307 OA
HETATM   32  H   UNK N   1      21.677  10.519  10.649  0.00  0.00     0.222 HD
ENDBRANCH  29  31
BRANCH  29  33
HETATM   33  O   UNK N   1      23.618  12.512  11.470  0.00  0.00    -0.307 OA
HETATM   34  H   UNK N   1      24.396  11.984  11.231  0.00  0.00     0.222 HD
ENDBRANCH  29  33
ENDBRANCH  28  29
ENDBRANCH  26  28
BRANCH  26  35
HETATM   35  O   UNK N   1      20.807  13.376   9.018  0.00  0.00    -0.307 OA
HETATM   36  H   UNK N   1      20.536  12.952   9.848  0.00  0.00     0.222 HD
ENDBRANCH  26  35
ENDBRANCH  25  26
ENDBRANCH  24  25
ENDBRANCH   4  24
BRANCH   5  37
HETATM   37  O   UNK N   1      18.425  16.141   7.424  0.00  0.00    -0.390 OA
HETATM   38  H   UNK N   1      18.058  16.717   8.112  0.00  0.00     0.210 HD
ENDBRANCH   5  37
TORSDOF 11
ENDMDL
MODEL 8
REMARK VINA RESULT:      -6.5      3.982      6.634
REMARK  11 active torsions:
REMARK  status: ('A' for Active; 'I' for Inactive)
REMARK    1  A    between atoms: C_3  and  N_1 
REMARK    2  A    between atoms: C_9  and  O_16 
REMARK       I    between atoms: C_13  and  N_19 
REMARK    3  A    between atoms: C_14  and  C_20 
REMARK    4  A    between atoms: C_15  and  O_21 
REMARK    5  A    between atoms: C_20  and  O_22 
REMARK    6  A    between atoms: O_22  and  P_23 
REMARK    7  A    between atoms: P_23  and  O_24 
REMARK    8  A    between atoms: P_23  and  O_25 
REMARK    9  A    between atoms: O_24  and  P_27 
REMARK   10  A    between atoms: P_27  and  O_28 
REMARK   11  A    between atoms: P_27  and  O_29 
ROOT
HETATM    1  C   UNK N   1      35.413  13.785  11.730  0.00  0.00     0.262 C 
HETATM    2  O   UNK N   1      34.535  13.598  12.804  0.00  0.00    -0.353 OA
HETATM    3  C   UNK N   1      36.793  13.731  12.333  0.00  0.00     0.198 C 
HETATM    4  C   UNK N   1      35.143  12.578  13.561  0.00  0.00     0.180 C 
HETATM    5  C   UNK N   1      36.620  12.532  13.206  0.00  0.00     0.182 C 
ENDROOT
BRANCH   1   6
HETATM    6  N   UNK N   1      35.092  15.006  10.989  0.00  0.00    -0.297 N 
HETATM    7  C   UNK N   1      34.334  15.203   9.898  0.00  0.00     0.159 A 
HETATM    8  C   UNK N   1      34.297  16.520   9.614  0.00  0.00     0.147 A 
HETATM    9  N   UNK N   1      33.656  14.284   9.168  0.00  0.00    -0.174 N 
HETATM   10  C   UNK N   1      33.552  16.983   8.546  0.00  0.00     0.290 A 
HETATM   11  N   UNK N   1      35.037  17.203  10.507  0.00  0.00    -0.345 N 
HETATM   12  N   UNK N   1      32.858  16.059   7.796  0.00  0.00    -0.154 N 
HETATM   13  O   UNK N   1      33.498  18.170   8.276  0.00  0.00    -0.265 OA
HETATM   14  C   UNK N   1      32.911  14.721   8.105  0.00  0.00     0.680 A 
HETATM   15  H   UNK N   1      32.318  16.360   7.030  0.00  0.00     0.187 HD
HETATM   16  N   UNK N   1      32.184  13.796   7.332  0.00  0.00    -0.234 N 
HETATM   17  H   UNK N   1      32.297  12.829   7.485  0.00  0.00     0.174 HD
HETATM   18  H   UNK N   1      31.563  14.115   6.638  0.00  0.00     0.174 HD
HETATM   19  C   UNK N   1      35.514  16.247  11.350  0.00  0.00     0.188 A 
ATOM     20  HN  UNK N   1      35.204  18.208  10.542  1.00  0.00     0.167 HD
ATOM     21  HN  UNK N   1      33.699  13.293   9.404  1.00  0.00     0.186 HD
ENDBRANCH   1   6
BRANCH   3  22
HETATM   22  O   UNK N   1      37.768  13.489  11.366  0.00  0.00    -0.388 OA
HETATM   23  H   UNK N   1      38.483  12.885  11.111  0.00  0.00     0.210 HD
ENDBRANCH   3  22
BRANCH   4  24
HETATM   24  C   UNK N   1      34.501  11.244  13.210  0.00  0.00     0.215 C 
BRANCH  24  25
HETATM   25  O   UNK N   1      35.484  10.376  12.731  0.00  0.00    -0.294 OA
BRANCH  25  26
HETATM   26  P   UNK N   1      34.725   9.483  11.445  0.00  0.00     0.401 P 
HETATM   27  O   UNK N   1      35.884  10.211  10.711  0.00  0.00    -0.631 OA
BRANCH  26  28
HETATM   28  O   UNK N   1      33.894  10.329  10.171  0.00  0.00    -0.195 OA
BRANCH  28  29
HETATM   29  P   UNK N   1      32.463   9.394   9.848  0.00  0.00     0.399 P 
HETATM   30  O   UNK N   1      33.428   8.968   8.709  0.00  0.00    -0.631 OA
BRANCH  29  31
HETATM   31  O   UNK N   1      32.080  11.083   9.723  0.00  0.00    -0.307 OA
HETATM   32  H   UNK N   1      31.228  11.539   9.637  0.00  0.00     0.222 HD
ENDBRANCH  29  31
BRANCH  29  33
HETATM   33  O   UNK N   1      31.545   9.711   8.411  0.00  0.00    -0.307 OA
HETATM   34  H   UNK N   1      30.596   9.530   8.320  0.00  0.00     0.222 HD
ENDBRANCH  29  33
ENDBRANCH  28  29
ENDBRANCH  26  28
BRANCH  26  35
HETATM   35  O   UNK N   1      33.580  10.641  12.057  0.00  0.00    -0.307 OA
HETATM   36  H   UNK N   1      32.852  11.231  11.806  0.00  0.00     0.222 HD
ENDBRANCH  26  35
ENDBRANCH  25  26
ENDBRANCH  24  25
ENDBRANCH   4  24
BRANCH   5  37
HETATM   37  O   UNK N   1      37.410  12.640  14.352  0.00  0.00    -0.390 OA
HETATM   38  H   UNK N   1      38.335  12.899  14.482  0.00  0.00     0.210 HD
ENDBRANCH   5  37
TORSDOF 11
ENDMDL
MODEL 9
REMARK VINA RESULT:      -6.5     10.326     12.085
REMARK  11 active torsions:
REMARK  status: ('A' for Active; 'I' for Inactive)
REMARK    1  A    between atoms: C_3  and  N_1 
REMARK    2  A    between atoms: C_9  and  O_16 
REMARK       I    between atoms: C_13  and  N_19 
REMARK    3  A    between atoms: C_14  and  C_20 
REMARK    4  A    between atoms: C_15  and  O_21 
REMARK    5  A    between atoms: C_20  and  O_22 
REMARK    6  A    between atoms: O_22  and  P_23 
REMARK    7  A    between atoms: P_23  and  O_24 
REMARK    8  A    between atoms: P_23  and  O_25 
REMARK    9  A    between atoms: O_24  and  P_27 
REMARK   10  A    between atoms: P_27  and  O_28 
REMARK   11  A    between atoms: P_27  and  O_29 
ROOT
HETATM    1  C   UNK N   1      20.807  17.055   5.243  0.00  0.00     0.262 C 
HETATM    2  O   UNK N   1      19.800  16.087   5.343  0.00  0.00    -0.353 OA
HETATM    3  C   UNK N   1      20.790  17.782   6.563  0.00  0.00     0.198 C 
HETATM    4  C   UNK N   1      19.953  15.579   6.648  0.00  0.00     0.180 C 
HETATM    5  C   UNK N   1      20.708  16.604   7.478  0.00  0.00     0.182 C 
ENDROOT
BRANCH   1   6
HETATM    6  N   UNK N   1      20.621  17.892   4.056  0.00  0.00    -0.297 N 
HETATM    7  C   UNK N   1      21.426  18.800   3.481  0.00  0.00     0.159 A 
HETATM    8  C   UNK N   1      20.835  19.278   2.369  0.00  0.00     0.147 A 
HETATM    9  N   UNK N   1      22.661  19.198   3.876  0.00  0.00    -0.174 N 
HETATM   10  C   UNK N   1      21.482  20.210   1.580  0.00  0.00     0.290 A 
HETATM   11  N   UNK N   1      19.632  18.699   2.204  0.00  0.00    -0.345 N 
HETATM   12  N   UNK N   1      22.738  20.623   1.970  0.00  0.00    -0.154 N 
HETATM   13  O   UNK N   1      20.970  20.649   0.565  0.00  0.00    -0.265 OA
HETATM   14  C   UNK N   1      23.321  20.122   3.108  0.00  0.00     0.680 A 
HETATM   15  H   UNK N   1      23.223  21.286   1.427  0.00  0.00     0.187 HD
HETATM   16  N   UNK N   1      24.609  20.549   3.481  0.00  0.00    -0.234 N 
HETATM   17  H   UNK N   1      24.989  20.271   4.346  0.00  0.00     0.174 HD
HETATM   18  H   UNK N   1      25.129  21.127   2.877  0.00  0.00     0.174 HD
HETATM   19  C   UNK N   1      19.524  17.842   3.255  0.00  0.00     0.188 A 
ATOM     20  HN  UNK N   1      18.954  18.866   1.460  1.00  0.00     0.167 HD
ATOM     21  HN  UNK N   1      23.087  18.821   4.721  1.00  0.00     0.186 HD
ENDBRANCH   1   6
BRANCH   3  22
HETATM   22  O   UNK N   1      21.976  18.482   6.780  0.00  0.00    -0.388 OA
HETATM   23  H   UNK N   1      22.645  19.037   6.351  0.00  0.00     0.210 HD
ENDBRANCH   3  22
BRANCH   4  24
HETATM   24  C   UNK N   1      20.755  14.288   6.592  0.00  0.00     0.215 C 
BRANCH  24  25
HETATM   25  O   UNK N   1      21.734  14.315   7.589  0.00  0.00    -0.294 OA
BRANCH  25  26
HETATM   26  P   UNK N   1      22.111  12.646   7.910  0.00  0.00     0.401 P 
HETATM   27  O   UNK N   1      20.776  12.845   8.681  0.00  0.00    -0.631 OA
BRANCH  26  28
HETATM   28  O   UNK N   1      22.526  12.144   9.523  0.00  0.00    -0.195 OA
BRANCH  28  29
HETATM   29  P   UNK N   1      24.145  12.724   9.789  0.00  0.00     0.399 P 
HETATM   30  O   UNK N   1      24.364  11.247   9.366  0.00  0.00    -0.631 OA
BRANCH  29  31
HETATM   31  O   UNK N   1      23.258  12.806  11.281  0.00  0.00    -0.307 OA
HETATM   32  H   UNK N   1      22.725  12.140  11.742  0.00  0.00     0.222 HD
ENDBRANCH  29  31
BRANCH  29  33
HETATM   33  O   UNK N   1      25.079  12.072  11.097  0.00  0.00    -0.307 OA
HETATM   34  H   UNK N   1      24.716  11.509  11.798  0.00  0.00     0.222 HD
ENDBRANCH  29  33
ENDBRANCH  28  29
ENDBRANCH  26  28
BRANCH  26  35
HETATM   35  O   UNK N   1      23.360  13.634   8.610  0.00  0.00    -0.307 OA
HETATM   36  H   UNK N   1      24.309  13.835   8.580  0.00  0.00     0.222 HD
ENDBRANCH  26  35
ENDBRANCH  25  26
ENDBRANCH  24  25
ENDBRANCH   4  24
BRANCH   5  37
HETATM   37  O   UNK N   1      19.998  16.928   8.634  0.00  0.00    -0.390 OA
HETATM   38  H   UNK N   1      19.207  16.544   9.041  0.00  0.00     0.210 HD
ENDBRANCH   5  37
TORSDOF 11
ENDMDL
