MODEL 1
REMARK VINA RESULT:      -4.6      0.000      0.000
REMARK  6 active torsions:
REMARK  status: ('A' for Active; 'I' for Inactive)
REMARK    1  A    between atoms: C_3  and  C_2 
REMARK    2  A    between atoms: C_4  and  C_2 
REMARK    3  A    between atoms: C_5  and  C_3 
REMARK    4  A    between atoms: C_6  and  C_5 
REMARK    5  A    between atoms: C_5  and  N_7 
REMARK    6  A    between atoms: O_10  and  C_6 
ROOT
HETATM    1  C   UNK N   1      22.464  12.296  11.296  0.00  0.00     0.173 C 
ENDROOT
BRANCH   1   2
HETATM    2  C   UNK N   1      22.677  12.992   9.929  0.00  0.00     0.043 C 
BRANCH   2   3
HETATM    3  C   UNK N   1      21.552  13.123   8.894  0.00  0.00     0.080 C 
BRANCH   3   4
HETATM    4  C   UNK N   1      20.551  14.176   9.299  0.00  0.00     0.123 C 
HETATM    5  C   UNK N   1      20.715  15.613   8.909  0.00  0.00     0.091 C 
HETATM    6  O   UNK N   1      19.580  13.853   9.964  0.00  0.00    -0.298 OA
ENDBRANCH   3   4
ENDBRANCH   2   3
ENDBRANCH   1   2
BRANCH   1   7
HETATM    7  C   UNK N   1      23.671  12.127  12.200  0.00  0.00     0.163 C 
HETATM    8  O   UNK N   1      23.493  11.965  13.404  0.00  0.00    -0.648 OA
BRANCH   7   9
HETATM    9  O   UNK N   1      24.929  12.149  11.733  0.00  0.00    -0.775 OA
HETATM   10  H   UNK N   1      25.161  12.734  11.039  0.00  0.00     0.167 HD
ENDBRANCH   7   9
ENDBRANCH   1   7
BRANCH   1  11
HETATM   11  N   UNK N   1      21.238  11.761  11.860  0.00  0.00    -0.418 N 
HETATM   12  H   UNK N   1      21.178  11.571  12.860  0.00  0.00     0.150 HD
HETATM   13  H   UNK N   1      20.438  11.574  11.256  0.00  0.00     0.150 HD
ENDBRANCH   1  11
TORSDOF 6
ENDMDL
MODEL 2
REMARK VINA RESULT:      -4.5     10.938     11.702
REMARK  6 active torsions:
REMARK  status: ('A' for Active; 'I' for Inactive)
REMARK    1  A    between atoms: C_3  and  C_2 
REMARK    2  A    between atoms: C_4  and  C_2 
REMARK    3  A    between atoms: C_5  and  C_3 
REMARK    4  A    between atoms: C_6  and  C_5 
REMARK    5  A    between atoms: C_5  and  N_7 
REMARK    6  A    between atoms: O_10  and  C_6 
ROOT
HETATM    1  C   UNK N   1      33.267  17.551   8.671  0.00  0.00     0.173 C 
ENDROOT
BRANCH   1   2
HETATM    2  C   UNK N   1      31.804  17.946   8.349  0.00  0.00     0.043 C 
BRANCH   2   3
HETATM    3  C   UNK N   1      30.605  17.165   8.902  0.00  0.00     0.080 C 
BRANCH   3   4
HETATM    4  C   UNK N   1      29.523  18.094   9.393  0.00  0.00     0.123 C 
HETATM    5  C   UNK N   1      28.142  18.073   8.813  0.00  0.00     0.091 C 
HETATM    6  O   UNK N   1      29.775  18.885  10.286  0.00  0.00    -0.298 OA
ENDBRANCH   3   4
ENDBRANCH   2   3
ENDBRANCH   1   2
BRANCH   1   7
HETATM    7  C   UNK N   1      34.374  18.256   7.910  0.00  0.00     0.163 C 
HETATM    8  O   UNK N   1      34.508  18.030   6.711  0.00  0.00    -0.648 OA
BRANCH   7   9
HETATM    9  O   UNK N   1      35.215  19.120   8.499  0.00  0.00    -0.775 OA
HETATM   10  H   UNK N   1      36.019  18.812   8.872  0.00  0.00     0.167 HD
ENDBRANCH   7   9
ENDBRANCH   1   7
BRANCH   1  11
HETATM   11  N   UNK N   1      33.752  16.572   9.627  0.00  0.00    -0.418 N 
HETATM   12  H   UNK N   1      34.704  16.215   9.551  0.00  0.00     0.150 HD
HETATM   13  H   UNK N   1      33.140  16.241  10.372  0.00  0.00     0.150 HD
ENDBRANCH   1  11
TORSDOF 6
ENDMDL
MODEL 3
REMARK VINA RESULT:      -4.5      1.636      1.829
REMARK  6 active torsions:
REMARK  status: ('A' for Active; 'I' for Inactive)
REMARK    1  A    between atoms: C_3  and  C_2 
REMARK    2  A    between atoms: C_4  and  C_2 
REMARK    3  A    between atoms: C_5  and  C_3 
REMARK    4  A    between atoms: C_6  and  C_5 
REMARK    5  A    between atoms: C_5  and  N_7 
REMARK    6  A    between atoms: O_10  and  C_6 
ROOT
HETATM    1  C   UNK N   1      23.709  12.155  11.005  0.00  0.00     0.173 C 
ENDROOT
BRANCH   1   2
HETATM    2  C   UNK N   1      22.782  12.000   9.775  0.00  0.00     0.043 C 
BRANCH   2   3
HETATM    3  C   UNK N   1      22.207  13.211   9.026  0.00  0.00     0.080 C 
BRANCH   3   4
HETATM    4  C   UNK N   1      20.878  13.632   9.602  0.00  0.00     0.123 C 
HETATM    5  C   UNK N   1      20.238  14.936   9.237  0.00  0.00     0.091 C 
HETATM    6  O   UNK N   1      20.306  12.895  10.387  0.00  0.00    -0.298 OA
ENDBRANCH   3   4
ENDBRANCH   2   3
ENDBRANCH   1   2
BRANCH   1   7
HETATM    7  C   UNK N   1      23.108  11.920  12.378  0.00  0.00     0.163 C 
HETATM    8  O   UNK N   1      23.811  12.090  13.371  0.00  0.00    -0.648 OA
BRANCH   7   9
HETATM    9  O   UNK N   1      21.835  11.533  12.550  0.00  0.00    -0.775 OA
HETATM   10  H   UNK N   1      21.586  11.071  13.327  0.00  0.00     0.167 HD
ENDBRANCH   7   9
ENDBRANCH   1   7
BRANCH   1  11
HETATM   11  N   UNK N   1      25.118  12.504  11.041  0.00  0.00    -0.418 N 
HETATM   12  H   UNK N   1      25.422  13.346  11.528  0.00  0.00     0.150 HD
HETATM   13  H   UNK N   1      25.803  11.907  10.578  0.00  0.00     0.150 HD
ENDBRANCH   1  11
TORSDOF 6
ENDMDL
MODEL 4
REMARK VINA RESULT:      -4.4     12.616     13.930
REMARK  6 active torsions:
REMARK  status: ('A' for Active; 'I' for Inactive)
REMARK    1  A    between atoms: C_3  and  C_2 
REMARK    2  A    between atoms: C_4  and  C_2 
REMARK    3  A    between atoms: C_5  and  C_3 
REMARK    4  A    between atoms: C_6  and  C_5 
REMARK    5  A    between atoms: C_5  and  N_7 
REMARK    6  A    between atoms: O_10  and  C_6 
ROOT
HETATM    1  C   UNK N   1      34.012  17.151   8.925  0.00  0.00     0.173 C 
ENDROOT
BRANCH   1   2
HETATM    2  C   UNK N   1      34.989  16.116   9.534  0.00  0.00     0.043 C 
BRANCH   2   3
HETATM    3  C   UNK N   1      35.594  16.287  10.934  0.00  0.00     0.080 C 
BRANCH   3   4
HETATM    4  C   UNK N   1      35.242  15.126  11.831  0.00  0.00     0.123 C 
HETATM    5  C   UNK N   1      36.149  14.679  12.936  0.00  0.00     0.091 C 
HETATM    6  O   UNK N   1      34.191  14.533  11.655  0.00  0.00    -0.298 OA
ENDBRANCH   3   4
ENDBRANCH   2   3
ENDBRANCH   1   2
BRANCH   1   7
HETATM    7  C   UNK N   1      34.595  18.243   8.047  0.00  0.00     0.163 C 
HETATM    8  O   UNK N   1      34.424  18.182   6.832  0.00  0.00    -0.648 OA
BRANCH   7   9
HETATM    9  O   UNK N   1      35.291  19.275   8.547  0.00  0.00    -0.775 OA
HETATM   10  H   UNK N   1      34.978  19.727   9.306  0.00  0.00     0.167 HD
ENDBRANCH   7   9
ENDBRANCH   1   7
BRANCH   1  11
HETATM   11  N   UNK N   1      32.570  17.236   9.076  0.00  0.00    -0.418 N 
HETATM   12  H   UNK N   1      32.047  16.435   9.427  0.00  0.00     0.150 HD
HETATM   13  H   UNK N   1      32.082  18.096   8.828  0.00  0.00     0.150 HD
ENDBRANCH   1  11
TORSDOF 6
ENDMDL
MODEL 5
REMARK VINA RESULT:      -4.3     12.727     13.155
REMARK  6 active torsions:
REMARK  status: ('A' for Active; 'I' for Inactive)
REMARK    1  A    between atoms: C_3  and  C_2 
REMARK    2  A    between atoms: C_4  and  C_2 
REMARK    3  A    between atoms: C_5  and  C_3 
REMARK    4  A    between atoms: C_6  and  C_5 
REMARK    5  A    between atoms: C_5  and  N_7 
REMARK    6  A    between atoms: O_10  and  C_6 
ROOT
HETATM    1  C   UNK N   1      34.645  15.486   9.906  0.00  0.00     0.173 C 
ENDROOT
BRANCH   1   2
HETATM    2  C   UNK N   1      34.694  15.135   8.399  0.00  0.00     0.043 C 
BRANCH   2   3
HETATM    3  C   UNK N   1      33.681  15.701   7.394  0.00  0.00     0.080 C 
BRANCH   3   4
HETATM    4  C   UNK N   1      33.706  17.209   7.378  0.00  0.00     0.123 C 
HETATM    5  C   UNK N   1      32.712  18.023   8.149  0.00  0.00     0.091 C 
HETATM    6  O   UNK N   1      34.556  17.785   6.721  0.00  0.00    -0.298 OA
ENDBRANCH   3   4
ENDBRANCH   2   3
ENDBRANCH   1   2
BRANCH   1   7
HETATM    7  C   UNK N   1      35.699  16.436  10.446  0.00  0.00     0.163 C 
HETATM    8  O   UNK N   1      35.496  17.646  10.382  0.00  0.00    -0.648 OA
BRANCH   7   9
HETATM    9  O   UNK N   1      36.845  16.004  10.992  0.00  0.00    -0.775 OA
HETATM   10  H   UNK N   1      37.374  16.589  11.498  0.00  0.00     0.167 HD
ENDBRANCH   7   9
ENDBRANCH   1   7
BRANCH   1  11
HETATM   11  N   UNK N   1      33.709  15.025  10.915  0.00  0.00    -0.418 N 
HETATM   12  H   UNK N   1      32.949  14.397  10.656  0.00  0.00     0.150 HD
HETATM   13  H   UNK N   1      33.812  15.330  11.883  0.00  0.00     0.150 HD
ENDBRANCH   1  11
TORSDOF 6
ENDMDL
MODEL 6
REMARK VINA RESULT:      -4.3     12.972     14.256
REMARK  6 active torsions:
REMARK  status: ('A' for Active; 'I' for Inactive)
REMARK    1  A    between atoms: C_3  and  C_2 
REMARK    2  A    between atoms: C_4  and  C_2 
REMARK    3  A    between atoms: C_5  and  C_3 
REMARK    4  A    between atoms: C_6  and  C_5 
REMARK    5  A    between atoms: C_5  and  N_7 
REMARK    6  A    between atoms: O_10  and  C_6 
ROOT
HETATM    1  C   UNK N   1      34.795  15.014  11.345  0.00  0.00     0.173 C 
ENDROOT
BRANCH   1   2
HETATM    2  C   UNK N   1      35.393  13.916  12.259  0.00  0.00     0.043 C 
BRANCH   2   3
HETATM    3  C   UNK N   1      36.035  14.241  13.614  0.00  0.00     0.080 C 
BRANCH   3   4
HETATM    4  C   UNK N   1      35.667  13.216  14.657  0.00  0.00     0.123 C 
HETATM    5  C   UNK N   1      36.680  12.274  15.231  0.00  0.00     0.091 C 
HETATM    6  O   UNK N   1      34.513  13.149  15.047  0.00  0.00    -0.298 OA
ENDBRANCH   3   4
ENDBRANCH   2   3
ENDBRANCH   1   2
BRANCH   1   7
HETATM    7  C   UNK N   1      35.693  16.170  10.946  0.00  0.00     0.163 C 
HETATM    8  O   UNK N   1      35.186  17.266  10.721  0.00  0.00    -0.648 OA
BRANCH   7   9
HETATM    9  O   UNK N   1      37.024  16.042  10.831  0.00  0.00    -0.775 OA
HETATM   10  H   UNK N   1      37.432  15.215  11.002  0.00  0.00     0.167 HD
ENDBRANCH   7   9
ENDBRANCH   1   7
BRANCH   1  11
HETATM   11  N   UNK N   1      33.455  15.104  10.793  0.00  0.00    -0.418 N 
HETATM   12  H   UNK N   1      32.851  14.283  10.786  0.00  0.00     0.150 HD
HETATM   13  H   UNK N   1      33.119  15.989  10.413  0.00  0.00     0.150 HD
ENDBRANCH   1  11
TORSDOF 6
ENDMDL
MODEL 7
REMARK VINA RESULT:      -4.3     11.446     12.231
REMARK  6 active torsions:
REMARK  status: ('A' for Active; 'I' for Inactive)
REMARK    1  A    between atoms: C_3  and  C_2 
REMARK    2  A    between atoms: C_4  and  C_2 
REMARK    3  A    between atoms: C_5  and  C_3 
REMARK    4  A    between atoms: C_6  and  C_5 
REMARK    5  A    between atoms: C_5  and  N_7 
REMARK    6  A    between atoms: O_10  and  C_6 
ROOT
HETATM    1  C   UNK N   1      33.380  17.495   8.748  0.00  0.00     0.173 C 
ENDROOT
BRANCH   1   2
HETATM    2  C   UNK N   1      31.874  17.629   8.414  0.00  0.00     0.043 C 
BRANCH   2   3
HETATM    3  C   UNK N   1      31.136  16.608   7.539  0.00  0.00     0.080 C 
BRANCH   3   4
HETATM    4  C   UNK N   1      30.931  17.130   6.139  0.00  0.00     0.123 C 
HETATM    5  C   UNK N   1      29.564  17.403   5.590  0.00  0.00     0.091 C 
HETATM    6  O   UNK N   1      31.902  17.337   5.430  0.00  0.00    -0.298 OA
ENDBRANCH   3   4
ENDBRANCH   2   3
ENDBRANCH   1   2
BRANCH   1   7
HETATM    7  C   UNK N   1      34.368  18.251   7.880  0.00  0.00     0.163 C 
HETATM    8  O   UNK N   1      35.069  19.119   8.395  0.00  0.00    -0.648 OA
BRANCH   7   9
HETATM    9  O   UNK N   1      34.507  18.008   6.568  0.00  0.00    -0.775 OA
HETATM   10  H   UNK N   1      34.499  18.717   5.956  0.00  0.00     0.167 HD
ENDBRANCH   7   9
ENDBRANCH   1   7
BRANCH   1  11
HETATM   11  N   UNK N   1      34.009  16.725   9.806  0.00  0.00    -0.418 N 
HETATM   12  H   UNK N   1      33.894  17.006  10.779  0.00  0.00     0.150 HD
HETATM   13  H   UNK N   1      34.567  15.902   9.575  0.00  0.00     0.150 HD
ENDBRANCH   1  11
TORSDOF 6
ENDMDL
MODEL 8
REMARK VINA RESULT:      -4.2     12.417     12.931
REMARK  6 active torsions:
REMARK  status: ('A' for Active; 'I' for Inactive)
REMARK    1  A    between atoms: C_3  and  C_2 
REMARK    2  A    between atoms: C_4  and  C_2 
REMARK    3  A    between atoms: C_5  and  C_3 
REMARK    4  A    between atoms: C_6  and  C_5 
REMARK    5  A    between atoms: C_5  and  N_7 
REMARK    6  A    between atoms: O_10  and  C_6 
ROOT
HETATM    1  C   UNK N   1      33.448  17.080   8.885  0.00  0.00     0.173 C 
ENDROOT
BRANCH   1   2
HETATM    2  C   UNK N   1      32.404  17.597   7.865  0.00  0.00     0.043 C 
BRANCH   2   3
HETATM    3  C   UNK N   1      32.127  16.875   6.539  0.00  0.00     0.080 C 
BRANCH   3   4
HETATM    4  C   UNK N   1      32.961  17.445   5.419  0.00  0.00     0.123 C 
HETATM    5  C   UNK N   1      32.441  17.537   4.017  0.00  0.00     0.091 C 
HETATM    6  O   UNK N   1      34.088  17.844   5.657  0.00  0.00    -0.298 OA
ENDBRANCH   3   4
ENDBRANCH   2   3
ENDBRANCH   1   2
BRANCH   1   7
HETATM    7  C   UNK N   1      34.714  17.895   9.077  0.00  0.00     0.163 C 
HETATM    8  O   UNK N   1      35.498  17.574   9.966  0.00  0.00    -0.648 OA
BRANCH   7   9
HETATM    9  O   UNK N   1      35.010  18.955   8.310  0.00  0.00    -0.775 OA
HETATM   10  H   UNK N   1      34.359  19.321   7.743  0.00  0.00     0.167 HD
ENDBRANCH   7   9
ENDBRANCH   1   7
BRANCH   1  11
HETATM   11  N   UNK N   1      33.395  15.889   9.713  0.00  0.00    -0.418 N 
HETATM   12  H   UNK N   1      33.330  15.975  10.727  0.00  0.00     0.150 HD
HETATM   13  H   UNK N   1      33.424  14.966   9.280  0.00  0.00     0.150 HD
ENDBRANCH   1  11
TORSDOF 6
ENDMDL
MODEL 9
REMARK VINA RESULT:      -3.9     13.714     14.693
REMARK  6 active torsions:
REMARK  status: ('A' for Active; 'I' for Inactive)
REMARK    1  A    between atoms: C_3  and  C_2 
REMARK    2  A    between atoms: C_4  and  C_2 
REMARK    3  A    between atoms: C_5  and  C_3 
REMARK    4  A    between atoms: C_6  and  C_5 
REMARK    5  A    between atoms: C_5  and  N_7 
REMARK    6  A    between atoms: O_10  and  C_6 
ROOT
HETATM    1  C   UNK N   1      36.765  13.167  12.602  0.00  0.00     0.173 C 
ENDROOT
BRANCH   1   2
HETATM    2  C   UNK N   1      36.656  12.487  13.988  0.00  0.00     0.043 C 
BRANCH   2   3
HETATM    3  C   UNK N   1      36.597  13.293  15.293  0.00  0.00     0.080 C 
BRANCH   3   4
HETATM    4  C   UNK N   1      35.263  13.134  15.978  0.00  0.00     0.123 C 
HETATM    5  C   UNK N   1      35.137  13.130  17.471  0.00  0.00     0.091 C 
HETATM    6  O   UNK N   1      34.256  13.004  15.302  0.00  0.00    -0.298 OA
ENDBRANCH   3   4
ENDBRANCH   2   3
ENDBRANCH   1   2
BRANCH   1   7
HETATM    7  C   UNK N   1      35.572  13.963  12.107  0.00  0.00     0.163 C 
HETATM    8  O   UNK N   1      35.763  14.912  11.352  0.00  0.00    -0.648 OA
BRANCH   7   9
HETATM    9  O   UNK N   1      34.312  13.668  12.464  0.00  0.00    -0.775 OA
HETATM   10  H   UNK N   1      34.152  13.122  13.209  0.00  0.00     0.167 HD
ENDBRANCH   7   9
ENDBRANCH   1   7
BRANCH   1  11
HETATM   11  N   UNK N   1      37.880  13.155  11.671  0.00  0.00    -0.418 N 
HETATM   12  H   UNK N   1      38.184  12.277  11.251  0.00  0.00     0.150 HD
HETATM   13  H   UNK N   1      38.359  14.025  11.438  0.00  0.00     0.150 HD
ENDBRANCH   1  11
TORSDOF 6
ENDMDL
