REMARK  10 active torsions:
REMARK  status: ('A' for Active; 'I' for Inactive)
REMARK    1  A    between atoms: C_2  and  N_1 
REMARK    2  A    between atoms: C_2  and  C_3 
REMARK    3  A    between atoms: C_2  and  C_13 
REMARK    4  A    between atoms: C_3  and  O_4 
REMARK    5  A    between atoms: O_4  and  V_5 
REMARK    6  A    between atoms: V_5  and  O_6 
REMARK    7  A    between atoms: V_5  and  O_7 
REMARK    8  A    between atoms: V_5  and  O_9 
REMARK    9  A    between atoms: V_5  and  O_11 
REMARK   10  A    between atoms: C_13  and  O_14 
ROOT
HETATM    1  O   UNK N   1       3.519   1.808   0.843  0.00  0.00    -0.238 OA
ENDROOT
BRANCH   1   2
HETATM    2  C   UNK N   1       4.322   2.396  -0.139  0.00  0.00     0.245 C 
BRANCH   2   3
HETATM    3  C   UNK N   1       5.711   2.631   0.435  0.00  0.00     0.200 C 
BRANCH   3   4
HETATM    4  N   UNK N   1       6.329   3.761  -0.238  0.00  0.00    -0.416 N 
HETATM    5  H   UNK N   1       7.233   3.782  -0.710  0.00  0.00     0.150 HD
HETATM    6  H   UNK N   1       5.799   4.633  -0.238  0.00  0.00     0.150 HD
ENDBRANCH   3   4
BRANCH   3   7
HETATM    7  C   UNK N   1       6.576   1.404   0.319  0.00  0.00     0.165 C 
HETATM    8  O   UNK N   1       6.204   0.346   0.798  0.00  0.00    -0.648 OA
BRANCH   7   9
HETATM    9  O   UNK N   1       7.778   1.471  -0.289  0.00  0.00    -0.775 OA
HETATM   10  H   UNK N   1       8.236   0.771  -0.711  0.00  0.00     0.167 HD
ENDBRANCH   7   9
ENDBRANCH   3   7
ENDBRANCH   2   3
ENDBRANCH   1   2
BRANCH   1  11
HETATM   11  V   UNK N   1       1.718   1.478   0.066  0.00  0.00     0.000 V 
BRANCH  11  12
HETATM   12  O   UNK N   1      -0.093   1.925   0.752  0.00  0.00    -0.253 OA
HETATM   13  H   UNK N   1      -0.346   2.800   1.086  0.00  0.00     0.253 HD
ENDBRANCH  11  12
BRANCH  11  14
HETATM   14  O   UNK N   1       1.696   3.395  -0.455  0.00  0.00    -0.253 OA
ATOM     15  HO  UNK N   1       0.835   3.238  -0.826  1.00  0.00     0.253 HD
ENDBRANCH  11  14
BRANCH  11  16
HETATM   16  O   UNK N   1       1.191  -0.339   0.661  0.00  0.00    -0.253 OA
ATOM     17  HO  UNK N   1       0.330  -0.496   0.290  1.00  0.00     0.253 HD
ENDBRANCH  11  16
BRANCH  11  18
HETATM   18  O   UNK N   1       2.452   0.558  -1.525  0.00  0.00    -0.253 OA
ATOM     19  HO  UNK N   1       1.592   0.401  -1.896  1.00  0.00     0.253 HD
ENDBRANCH  11  18
ENDBRANCH   1  11
TORSDOF 10
