REMARK  2 active torsions:
REMARK  status: ('A' for Active; 'I' for Inactive)
REMARK    1  A    between atoms: C_17  and  C_14 
REMARK    2  A    between atoms: C_16  and  O_24 
ROOT
HETATM    1  C   UNK N   1       6.101  -0.135   1.730  0.00  0.00     0.016 C 
HETATM    2  C   UNK N   1       1.842   1.468   1.635  0.00  0.00     0.019 C 
HETATM    3  C   UNK N   1       5.378  -2.121  -0.356  0.00  0.00     0.006 C 
HETATM    4  C   UNK N   1       3.891  -1.855  -0.559  0.00  0.00     0.008 C 
HETATM    5  C   UNK N   1       8.015   1.295  -0.628  0.00  0.00     0.032 C 
HETATM    6  C   UNK N   1       3.845   1.517  -0.992  0.00  0.00     0.007 C 
HETATM    7  C   UNK N   1      -0.426  -0.281  -0.405  0.00  0.00     0.013 C 
HETATM    8  C   UNK N   1       6.623   1.554  -0.029  0.00  0.00     0.012 C 
HETATM    9  C   UNK N   1       2.379   2.045  -0.759  0.00  0.00     0.013 C 
HETATM   10  C   UNK N   1       0.721  -1.162   0.140  0.00  0.00     0.040 C 
HETATM   11  C   UNK N   1       7.699  -1.211  -0.577  0.00  0.00     0.037 C 
HETATM   12  C   UNK N   1       6.197  -0.868  -0.674  0.00  0.00    -0.004 C 
HETATM   13  C   UNK N   1       8.595  -0.033  -0.160  0.00  0.00     0.118 C 
HETATM   14  C   UNK N   1      -0.031   1.099   0.106  0.00  0.00     0.028 C 
HETATM   15  C   UNK N   1       4.289   0.604   0.176  0.00  0.00     0.001 C 
HETATM   16  C   UNK N   1       3.353  -0.672   0.273  0.00  0.00     0.025 C 
HETATM   17  C   UNK N   1       5.802   0.280   0.281  0.00  0.00    -0.036 C 
HETATM   18  C   UNK N   1       1.526   1.116   0.169  0.00  0.00    -0.005 C 
HETATM   19  C   UNK N   1       1.916  -0.318  -0.250  0.00  0.00     0.070 C 
HETATM   20  O   UNK N   1       1.941  -0.388  -1.663  0.00  0.00    -0.389 OA
HETATM   21  H   UNK N   1       1.908  -0.427  -2.631  0.00  0.00     0.210 HD
ENDROOT
BRANCH  14  22
HETATM   22  C   UNK N   1      -0.753   2.336  -0.380  0.00  0.00    -0.045 A 
HETATM   23  C   UNK N   1      -2.019   2.590  -0.073  0.00  0.00     0.087 A 
HETATM   24  C   UNK N   1      -2.251   3.932  -0.525  0.00  0.00     0.283 A 
HETATM   25  O   UNK N   1      -3.280   4.564  -0.347  0.00  0.00    -0.260 OA
HETATM   26  O   UNK N   1      -1.153   4.455  -1.083  0.00  0.00    -0.314 OA
HETATM   27  C   UNK N   1      -0.115   3.540  -1.048  0.00  0.00     0.213 A 
ENDBRANCH  14  22
BRANCH  13  28
HETATM   28  O   UNK N   1       9.869  -0.206  -0.697  0.00  0.00    -0.396 OA
HETATM   29  H   UNK N   1      10.208  -1.034  -1.072  0.00  0.00     0.210 HD
ENDBRANCH  13  28
TORSDOF 2
