MODEL 1
REMARK VINA RESULT:      -7.8      0.000      0.000
REMARK  22 active torsions:
REMARK  status: ('A' for Active; 'I' for Inactive)
REMARK    1  A    between atoms: C_19  and  C_9 
REMARK    2  A    between atoms: O_41  and  C_9 
REMARK    3  A    between atoms: C_20  and  C_10 
REMARK    4  A    between atoms: O_42  and  C_10 
REMARK    5  A    between atoms: C_21  and  C_11 
REMARK    6  A    between atoms: O_43  and  C_11 
REMARK    7  A    between atoms: O_44  and  C_13 
REMARK    8  A    between atoms: O_45  and  C_14 
REMARK    9  A    between atoms: O_46  and  C_15 
REMARK   10  A    between atoms: O_52  and  C_16 
REMARK   11  A    between atoms: C_23  and  N_35 
REMARK   12  A    between atoms: C_24  and  N_37 
REMARK   13  A    between atoms: C_25  and  N_39 
REMARK   14  A    between atoms: C_26  and  O_48 
REMARK   15  A    between atoms: C_27  and  O_49 
REMARK   16  A    between atoms: C_28  and  O_50 
REMARK   17  A    between atoms: C_29  and  O_51 
REMARK   18  A    between atoms: C_30  and  O_58 
REMARK   19  A    between atoms: C_31  and  O_57 
REMARK   20  A    between atoms: C_32  and  O_52 
REMARK   21  A    between atoms: C_33  and  O_57 
REMARK   22  A    between atoms: C_34  and  O_58 
ROOT
HETATM    1  C   UNK N   1      29.342  16.276   4.575  0.00  0.00     0.180 C 
HETATM    2  C   UNK N   1      26.925  17.950   4.707  0.00  0.00     0.169 C 
HETATM    3  C   UNK N   1      28.069  18.099   5.809  0.00  0.00     0.177 C 
HETATM    4  C   UNK N   1      29.479  17.623   5.347  0.00  0.00     0.186 C 
HETATM    5  C   UNK N   1      27.315  16.896   3.631  0.00  0.00     0.286 C 
HETATM    6  O   UNK N   1      28.016  15.943   4.320  0.00  0.00    -0.349 OA
ENDROOT
BRANCH   5   7
HETATM    7  O   UNK N   1      26.183  16.262   3.034  0.00  0.00    -0.348 OA
BRANCH   7   8
HETATM    8  C   UNK N   1      25.820  15.004   3.651  0.00  0.00     0.186 C 
HETATM    9  C   UNK N   1      24.464  15.079   4.511  0.00  0.00     0.180 C 
HETATM   10  O   UNK N   1      23.665  13.911   4.425  0.00  0.00    -0.349 OA
HETATM   11  C   UNK N   1      24.481  12.769   4.498  0.00  0.00     0.292 C 
HETATM   12  C   UNK N   1      25.117  12.553   3.103  0.00  0.00     0.170 C 
HETATM   13  C   UNK N   1      25.526  13.964   2.534  0.00  0.00     0.177 C 
BRANCH   9  14
HETATM   14  C   UNK N   1      24.578  15.436   6.008  0.00  0.00     0.198 C 
BRANCH  14  15
HETATM   15  O   UNK N   1      25.875  15.268   6.507  0.00  0.00    -0.398 OA
HETATM   16  H   UNK N   1      26.750  15.492   6.859  0.00  0.00     0.209 HD
ENDBRANCH  14  15
ENDBRANCH   9  14
BRANCH  11  17
HETATM   17  O   UNK N   1      23.785  11.716   5.083  0.00  0.00    -0.318 OA
BRANCH  17  18
HETATM   18  C   UNK N   1      23.274  11.826   6.352  0.00  0.00     0.074 A 
HETATM   19  C   UNK N   1      21.930  12.180   6.559  0.00  0.00     0.038 A 
HETATM   20  C   UNK N   1      21.417  12.415   7.827  0.00  0.00     0.017 A 
HETATM   21  C   UNK N   1      22.249  12.298   8.937  0.00  0.00     0.004 A 
HETATM   22  C   UNK N   1      21.782  12.579  10.226  0.00  0.00    -0.043 A 
HETATM   23  C   UNK N   1      23.594  11.901   8.762  0.00  0.00     0.092 A 
HETATM   24  C   UNK N   1      20.378  13.028  10.478  0.00  0.00     0.049 C 
HETATM   25  C   UNK N   1      22.660  12.455  11.299  0.00  0.00     0.090 A 
HETATM   26  C   UNK N   1      23.973  12.051  11.057  0.00  0.00     0.288 A 
HETATM   27  O   UNK N   1      24.749  11.941  11.995  0.00  0.00    -0.260 OA
HETATM   28  O   UNK N   1      24.396  11.791   9.822  0.00  0.00    -0.275 OA
HETATM   29  C   UNK N   1      24.103  11.661   7.471  0.00  0.00     0.075 A 
ENDBRANCH  17  18
ENDBRANCH  11  17
BRANCH  12  30
HETATM   30  N   UNK N   1      24.205  11.926   2.163  0.00  0.00    -0.363 N 
HETATM   31  C   UNK N   1      24.583  11.177   1.182  0.00  0.00     0.107 C 
HETATM   32  C   UNK N   1      23.559  10.564   0.292  0.00  0.00     0.097 C 
ATOM     33  HN  UNK N   1      23.205  12.086   2.285  1.00  0.00     0.162 HD
BRANCH  31  34
HETATM   34  O   UNK N   1      25.891  10.956   0.935  0.00  0.00    -0.350 OA
HETATM   35  H   UNK N   1      26.577  10.386   1.222  0.00  0.00     0.219 HD
ENDBRANCH  31  34
ENDBRANCH  12  30
BRANCH  13  36
HETATM   36  O   UNK N   1      26.602  13.834   1.652  0.00  0.00    -0.391 OA
HETATM   37  H   UNK N   1      27.502  14.194   1.697  0.00  0.00     0.210 HD
ENDBRANCH  13  36
ENDBRANCH   7   8
ENDBRANCH   5   7
BRANCH   2  38
HETATM   38  N   UNK N   1      26.564  19.207   4.068  0.00  0.00    -0.363 N 
HETATM   39  C   UNK N   1      25.370  19.448   3.629  0.00  0.00     0.107 C 
HETATM   40  C   UNK N   1      25.072  20.747   2.966  0.00  0.00     0.097 C 
ATOM     41  HN  UNK N   1      27.279  19.925   3.962  1.00  0.00     0.162 HD
BRANCH  39  42
HETATM   42  O   UNK N   1      24.373  18.550   3.783  0.00  0.00    -0.350 OA
HETATM   43  H   UNK N   1      23.454  18.624   3.949  0.00  0.00     0.219 HD
ENDBRANCH  39  42
ENDBRANCH   2  38
BRANCH   3  44
HETATM   44  O   UNK N   1      28.112  19.400   6.321  0.00  0.00    -0.391 OA
HETATM   45  H   UNK N   1      28.786  19.642   6.975  0.00  0.00     0.210 HD
ENDBRANCH   3  44
BRANCH   1  46
HETATM   46  C   UNK N   1      30.234  16.155   3.334  0.00  0.00     0.198 C 
BRANCH  46  47
HETATM   47  O   UNK N   1      31.146  17.207   3.264  0.00  0.00    -0.398 OA
HETATM   48  H   UNK N   1      31.623  17.517   2.478  0.00  0.00     0.209 HD
ENDBRANCH  46  47
ENDBRANCH   1  46
BRANCH   4  49
HETATM   49  O   UNK N   1      30.476  17.633   6.405  0.00  0.00    -0.348 OA
BRANCH  49  50
HETATM   50  C   UNK N   1      30.952  16.347   6.863  0.00  0.00     0.286 C 
HETATM   51  C   UNK N   1      31.012  16.216   8.431  0.00  0.00     0.169 C 
HETATM   52  C   UNK N   1      32.356  15.564   8.872  0.00  0.00     0.177 C 
HETATM   53  C   UNK N   1      32.604  14.320   8.016  0.00  0.00     0.180 C 
HETATM   54  C   UNK N   1      32.683  14.756   6.533  0.00  0.00     0.179 C 
HETATM   55  O   UNK N   1      32.259  16.109   6.357  0.00  0.00    -0.349 OA
BRANCH  51  56
HETATM   56  N   UNK N   1      30.860  17.483   9.121  0.00  0.00    -0.363 N 
HETATM   57  C   UNK N   1      29.751  17.894   9.641  0.00  0.00     0.107 C 
HETATM   58  C   UNK N   1      28.500  17.068   9.595  0.00  0.00     0.097 C 
ATOM     59  HN  UNK N   1      31.679  18.086   9.200  1.00  0.00     0.162 HD
BRANCH  57  60
HETATM   60  O   UNK N   1      29.720  19.084  10.265  0.00  0.00    -0.350 OA
HETATM   61  H   UNK N   1      29.232  19.857  10.061  0.00  0.00     0.219 HD
ENDBRANCH  57  60
ENDBRANCH  51  56
BRANCH  52  62
HETATM   62  O   UNK N   1      32.315  15.226  10.227  0.00  0.00    -0.391 OA
HETATM   63  H   UNK N   1      32.769  14.471  10.632  0.00  0.00     0.210 HD
ENDBRANCH  52  62
BRANCH  53  64
HETATM   64  O   UNK N   1      33.792  13.679   8.389  0.00  0.00    -0.390 OA
HETATM   65  H   UNK N   1      34.396  14.091   9.026  0.00  0.00     0.210 HD
ENDBRANCH  53  64
BRANCH  54  66
HETATM   66  C   UNK N   1      31.960  13.770   5.599  0.00  0.00     0.198 C 
BRANCH  66  67
HETATM   67  O   UNK N   1      32.013  12.466   6.094  0.00  0.00    -0.398 OA
HETATM   68  H   UNK N   1      31.699  11.665   5.647  0.00  0.00     0.209 HD
ENDBRANCH  66  67
ENDBRANCH  54  66
ENDBRANCH  49  50
ENDBRANCH   4  49
TORSDOF 22
ENDMDL
MODEL 2
REMARK VINA RESULT:      -7.6      5.994     11.621
REMARK  22 active torsions:
REMARK  status: ('A' for Active; 'I' for Inactive)
REMARK    1  A    between atoms: C_19  and  C_9 
REMARK    2  A    between atoms: O_41  and  C_9 
REMARK    3  A    between atoms: C_20  and  C_10 
REMARK    4  A    between atoms: O_42  and  C_10 
REMARK    5  A    between atoms: C_21  and  C_11 
REMARK    6  A    between atoms: O_43  and  C_11 
REMARK    7  A    between atoms: O_44  and  C_13 
REMARK    8  A    between atoms: O_45  and  C_14 
REMARK    9  A    between atoms: O_46  and  C_15 
REMARK   10  A    between atoms: O_52  and  C_16 
REMARK   11  A    between atoms: C_23  and  N_35 
REMARK   12  A    between atoms: C_24  and  N_37 
REMARK   13  A    between atoms: C_25  and  N_39 
REMARK   14  A    between atoms: C_26  and  O_48 
REMARK   15  A    between atoms: C_27  and  O_49 
REMARK   16  A    between atoms: C_28  and  O_50 
REMARK   17  A    between atoms: C_29  and  O_51 
REMARK   18  A    between atoms: C_30  and  O_58 
REMARK   19  A    between atoms: C_31  and  O_57 
REMARK   20  A    between atoms: C_32  and  O_52 
REMARK   21  A    between atoms: C_33  and  O_57 
REMARK   22  A    between atoms: C_34  and  O_58 
ROOT
HETATM    1  C   UNK N   1      34.197  15.992   8.772  0.00  0.00     0.180 C 
HETATM    2  C   UNK N   1      35.528  14.439   6.657  0.00  0.00     0.169 C 
HETATM    3  C   UNK N   1      34.430  15.533   6.282  0.00  0.00     0.177 C 
HETATM    4  C   UNK N   1      34.230  16.643   7.356  0.00  0.00     0.186 C 
HETATM    5  C   UNK N   1      35.773  14.391   8.193  0.00  0.00     0.286 C 
HETATM    6  O   UNK N   1      34.547  14.647   8.745  0.00  0.00    -0.349 OA
ENDROOT
BRANCH   5   7
HETATM    7  O   UNK N   1      36.202  13.108   8.650  0.00  0.00    -0.348 OA
BRANCH   7   8
HETATM    8  C   UNK N   1      35.635  12.718   9.924  0.00  0.00     0.186 C 
HETATM    9  C   UNK N   1      34.746  11.381   9.848  0.00  0.00     0.180 C 
HETATM   10  O   UNK N   1      34.869  10.545  10.987  0.00  0.00    -0.349 OA
HETATM   11  C   UNK N   1      34.863  11.328  12.154  0.00  0.00     0.292 C 
HETATM   12  C   UNK N   1      36.278  11.931  12.326  0.00  0.00     0.170 C 
HETATM   13  C   UNK N   1      36.792  12.372  10.904  0.00  0.00     0.177 C 
BRANCH   9  14
HETATM   14  C   UNK N   1      33.237  11.533   9.563  0.00  0.00     0.198 C 
BRANCH  14  15
HETATM   15  O   UNK N   1      32.977  12.057   8.292  0.00  0.00    -0.398 OA
HETATM   16  H   UNK N   1      33.071  12.603   7.496  0.00  0.00     0.209 HD
ENDBRANCH  14  15
ENDBRANCH   9  14
BRANCH  11  17
HETATM   17  O   UNK N   1      34.312  10.611  13.212  0.00  0.00    -0.318 OA
BRANCH  17  18
HETATM   18  C   UNK N   1      34.434  11.054  14.505  0.00  0.00     0.074 A 
HETATM   19  C   UNK N   1      34.385  12.425  14.804  0.00  0.00     0.038 A 
HETATM   20  C   UNK N   1      34.623  12.909  16.083  0.00  0.00     0.017 A 
HETATM   21  C   UNK N   1      34.921  12.019  17.110  0.00  0.00     0.004 A 
HETATM   22  C   UNK N   1      35.221  12.473  18.399  0.00  0.00    -0.043 A 
HETATM   23  C   UNK N   1      34.936  10.630  16.847  0.00  0.00     0.092 A 
HETATM   24  C   UNK N   1      35.249  13.929  18.739  0.00  0.00     0.049 C 
HETATM   25  C   UNK N   1      35.521  11.538  19.386  0.00  0.00     0.090 A 
HETATM   26  C   UNK N   1      35.509  10.182  19.062  0.00  0.00     0.288 A 
HETATM   27  O   UNK N   1      35.773   9.356  19.923  0.00  0.00    -0.260 OA
HETATM   28  O   UNK N   1      35.225   9.772  17.828  0.00  0.00    -0.275 OA
HETATM   29  C   UNK N   1      34.687  10.150  15.547  0.00  0.00     0.075 A 
ENDBRANCH  17  18
ENDBRANCH  11  17
BRANCH  12  30
HETATM   30  N   UNK N   1      37.228  10.983  12.882  0.00  0.00    -0.363 N 
HETATM   31  C   UNK N   1      37.904  11.189  13.963  0.00  0.00     0.107 C 
HETATM   32  C   UNK N   1      38.833  10.136  14.456  0.00  0.00     0.097 C 
ATOM     33  HN  UNK N   1      37.370  10.101  12.390  1.00  0.00     0.162 HD
BRANCH  31  34
HETATM   34  O   UNK N   1      37.799  12.350  14.642  0.00  0.00    -0.350 OA
HETATM   35  H   UNK N   1      37.262  12.732  15.308  0.00  0.00     0.219 HD
ENDBRANCH  31  34
ENDBRANCH  12  30
BRANCH  13  36
HETATM   36  O   UNK N   1      37.700  13.427  11.025  0.00  0.00    -0.391 OA
HETATM   37  H   UNK N   1      38.309  13.814  10.376  0.00  0.00     0.210 HD
ENDBRANCH  13  36
ENDBRANCH   7   8
ENDBRANCH   5   7
BRANCH   2  38
HETATM   38  N   UNK N   1      36.791  14.615   5.955  0.00  0.00    -0.363 N 
HETATM   39  C   UNK N   1      37.301  13.697   5.196  0.00  0.00     0.107 C 
HETATM   40  C   UNK N   1      38.607  13.934   4.522  0.00  0.00     0.097 C 
ATOM     41  HN  UNK N   1      37.293  15.495   6.065  1.00  0.00     0.162 HD
BRANCH  39  42
HETATM   42  O   UNK N   1      36.657  12.531   4.980  0.00  0.00    -0.350 OA
HETATM   43  H   UNK N   1      36.500  12.009   4.218  0.00  0.00     0.219 HD
ENDBRANCH  39  42
ENDBRANCH   2  38
BRANCH   3  44
HETATM   44  O   UNK N   1      34.675  16.083   5.020  0.00  0.00    -0.391 OA
HETATM   45  H   UNK N   1      35.056  15.536   4.316  0.00  0.00     0.210 HD
ENDBRANCH   3  44
BRANCH   1  46
HETATM   46  C   UNK N   1      34.943  16.779   9.856  0.00  0.00     0.198 C 
BRANCH  46  47
HETATM   47  O   UNK N   1      35.281  18.056   9.411  0.00  0.00    -0.398 OA
HETATM   48  H   UNK N   1      34.820  18.584   8.741  0.00  0.00     0.209 HD
ENDBRANCH  46  47
ENDBRANCH   1  46
BRANCH   4  49
HETATM   49  O   UNK N   1      33.131  17.549   7.064  0.00  0.00    -0.348 OA
BRANCH  49  50
HETATM   50  C   UNK N   1      31.811  17.122   7.471  0.00  0.00     0.286 C 
HETATM   51  C   UNK N   1      30.811  16.927   6.271  0.00  0.00     0.169 C 
HETATM   52  C   UNK N   1      29.431  17.571   6.600  0.00  0.00     0.177 C 
HETATM   53  C   UNK N   1      29.002  17.126   8.000  0.00  0.00     0.180 C 
HETATM   54  C   UNK N   1      30.069  17.604   9.012  0.00  0.00     0.179 C 
HETATM   55  O   UNK N   1      31.245  18.082   8.355  0.00  0.00    -0.349 OA
BRANCH  51  56
HETATM   56  N   UNK N   1      31.297  17.480   5.020  0.00  0.00    -0.363 N 
HETATM   57  C   UNK N   1      31.478  16.787   3.945  0.00  0.00     0.107 C 
HETATM   58  C   UNK N   1      31.172  15.319   3.888  0.00  0.00     0.097 C 
ATOM     59  HN  UNK N   1      31.509  18.477   4.989  1.00  0.00     0.162 HD
BRANCH  57  60
HETATM   60  O   UNK N   1      31.926  17.399   2.837  0.00  0.00    -0.350 OA
HETATM   61  H   UNK N   1      32.775  17.746   2.644  0.00  0.00     0.219 HD
ENDBRANCH  57  60
ENDBRANCH  51  56
BRANCH  52  62
HETATM   62  O   UNK N   1      28.476  17.195   5.652  0.00  0.00    -0.391 OA
HETATM   63  H   UNK N   1      28.453  17.491   4.729  0.00  0.00     0.210 HD
ENDBRANCH  52  62
BRANCH  53  64
HETATM   64  O   UNK N   1      27.752  17.659   8.337  0.00  0.00    -0.390 OA
HETATM   65  H   UNK N   1      27.685  18.433   8.917  0.00  0.00     0.210 HD
ENDBRANCH  53  64
BRANCH  54  66
HETATM   66  C   UNK N   1      30.368  16.542  10.086  0.00  0.00     0.198 C 
BRANCH  66  67
HETATM   67  O   UNK N   1      29.314  16.425  10.993  0.00  0.00    -0.398 OA
HETATM   68  H   UNK N   1      28.483  15.944  10.855  0.00  0.00     0.209 HD
ENDBRANCH  66  67
ENDBRANCH  54  66
ENDBRANCH  49  50
ENDBRANCH   4  49
TORSDOF 22
ENDMDL
MODEL 3
REMARK VINA RESULT:      -7.6      5.221     11.234
REMARK  22 active torsions:
REMARK  status: ('A' for Active; 'I' for Inactive)
REMARK    1  A    between atoms: C_19  and  C_9 
REMARK    2  A    between atoms: O_41  and  C_9 
REMARK    3  A    between atoms: C_20  and  C_10 
REMARK    4  A    between atoms: O_42  and  C_10 
REMARK    5  A    between atoms: C_21  and  C_11 
REMARK    6  A    between atoms: O_43  and  C_11 
REMARK    7  A    between atoms: O_44  and  C_13 
REMARK    8  A    between atoms: O_45  and  C_14 
REMARK    9  A    between atoms: O_46  and  C_15 
REMARK   10  A    between atoms: O_52  and  C_16 
REMARK   11  A    between atoms: C_23  and  N_35 
REMARK   12  A    between atoms: C_24  and  N_37 
REMARK   13  A    between atoms: C_25  and  N_39 
REMARK   14  A    between atoms: C_26  and  O_48 
REMARK   15  A    between atoms: C_27  and  O_49 
REMARK   16  A    between atoms: C_28  and  O_50 
REMARK   17  A    between atoms: C_29  and  O_51 
REMARK   18  A    between atoms: C_30  and  O_58 
REMARK   19  A    between atoms: C_31  and  O_57 
REMARK   20  A    between atoms: C_32  and  O_52 
REMARK   21  A    between atoms: C_33  and  O_57 
REMARK   22  A    between atoms: C_34  and  O_58 
ROOT
HETATM    1  C   UNK N   1      33.729  17.168   8.816  0.00  0.00     0.180 C 
HETATM    2  C   UNK N   1      34.316  14.284   8.781  0.00  0.00     0.169 C 
HETATM    3  C   UNK N   1      32.847  14.810   8.453  0.00  0.00     0.177 C 
HETATM    4  C   UNK N   1      32.786  16.283   7.947  0.00  0.00     0.186 C 
HETATM    5  C   UNK N   1      35.292  15.467   9.045  0.00  0.00     0.286 C 
HETATM    6  O   UNK N   1      34.524  16.413   9.671  0.00  0.00    -0.349 OA
ENDROOT
BRANCH   5   7
HETATM    7  O   UNK N   1      36.365  15.122   9.923  0.00  0.00    -0.348 OA
BRANCH   7   8
HETATM    8  C   UNK N   1      36.154  13.889  10.652  0.00  0.00     0.186 C 
HETATM    9  C   UNK N   1      37.495  13.027  10.854  0.00  0.00     0.180 C 
HETATM   10  O   UNK N   1      37.573  12.371  12.109  0.00  0.00    -0.349 OA
HETATM   11  C   UNK N   1      36.323  11.816  12.434  0.00  0.00     0.292 C 
HETATM   12  C   UNK N   1      35.426  12.954  12.976  0.00  0.00     0.170 C 
HETATM   13  C   UNK N   1      35.682  14.234  12.093  0.00  0.00     0.177 C 
BRANCH   9  14
HETATM   14  C   UNK N   1      37.846  11.978   9.778  0.00  0.00     0.198 C 
BRANCH  14  15
HETATM   15  O   UNK N   1      37.925  12.527   8.493  0.00  0.00    -0.398 OA
HETATM   16  H   UNK N   1      37.762  12.651   7.545  0.00  0.00     0.209 HD
ENDBRANCH  14  15
ENDBRANCH   9  14
BRANCH  11  17
HETATM   17  O   UNK N   1      36.492  10.674  13.211  0.00  0.00    -0.318 OA
BRANCH  17  18
HETATM   18  C   UNK N   1      35.861   9.499  12.886  0.00  0.00     0.074 A 
HETATM   19  C   UNK N   1      36.257   8.284  13.470  0.00  0.00     0.038 A 
HETATM   20  C   UNK N   1      35.719   7.067  13.075  0.00  0.00     0.017 A 
HETATM   21  C   UNK N   1      34.757   7.036  12.069  0.00  0.00     0.004 A 
HETATM   22  C   UNK N   1      34.232   5.824  11.606  0.00  0.00    -0.043 A 
HETATM   23  C   UNK N   1      34.309   8.246  11.494  0.00  0.00     0.092 A 
HETATM   24  C   UNK N   1      34.680   4.507  12.153  0.00  0.00     0.049 C 
HETATM   25  C   UNK N   1      33.279   5.851  10.592  0.00  0.00     0.090 A 
HETATM   26  C   UNK N   1      32.875   7.081  10.073  0.00  0.00     0.288 A 
HETATM   27  O   UNK N   1      32.039   7.111   9.182  0.00  0.00    -0.260 OA
HETATM   28  O   UNK N   1      33.390   8.221  10.527  0.00  0.00    -0.275 OA
HETATM   29  C   UNK N   1      34.858   9.475  11.906  0.00  0.00     0.075 A 
ENDBRANCH  17  18
ENDBRANCH  11  17
BRANCH  12  30
HETATM   30  N   UNK N   1      35.715  13.286  14.360  0.00  0.00    -0.363 N 
HETATM   31  C   UNK N   1      34.995  12.903  15.360  0.00  0.00     0.107 C 
HETATM   32  C   UNK N   1      35.401  13.282  16.741  0.00  0.00     0.097 C 
ATOM     33  HN  UNK N   1      36.538  13.857  14.553  1.00  0.00     0.162 HD
BRANCH  31  34
HETATM   34  O   UNK N   1      33.870  12.182  15.175  0.00  0.00    -0.350 OA
HETATM   35  H   UNK N   1      33.615  11.286  15.069  0.00  0.00     0.219 HD
ENDBRANCH  31  34
ENDBRANCH  12  30
BRANCH  13  36
HETATM   36  O   UNK N   1      34.547  15.048  12.085  0.00  0.00    -0.391 OA
HETATM   37  H   UNK N   1      33.897  15.218  11.384  0.00  0.00     0.210 HD
ENDBRANCH  13  36
ENDBRANCH   7   8
ENDBRANCH   5   7
BRANCH   2  38
HETATM   38  N   UNK N   1      34.863  13.405   7.759  0.00  0.00    -0.363 N 
HETATM   39  C   UNK N   1      34.666  12.125   7.762  0.00  0.00     0.107 C 
HETATM   40  C   UNK N   1      35.271  11.279   6.697  0.00  0.00     0.097 C 
ATOM     41  HN  UNK N   1      35.424  13.812   7.012  1.00  0.00     0.162 HD
BRANCH  39  42
HETATM   42  O   UNK N   1      33.894  11.538   8.702  0.00  0.00    -0.350 OA
HETATM   43  H   UNK N   1      33.650  11.768   9.576  0.00  0.00     0.219 HD
ENDBRANCH  39  42
ENDBRANCH   2  38
BRANCH   3  44
HETATM   44  O   UNK N   1      32.183  13.943   7.580  0.00  0.00    -0.391 OA
HETATM   45  H   UNK N   1      31.216  13.870   7.610  0.00  0.00     0.210 HD
ENDBRANCH   3  44
BRANCH   1  46
HETATM   46  C   UNK N   1      34.528  18.215   8.031  0.00  0.00     0.198 C 
BRANCH  46  47
HETATM   47  O   UNK N   1      34.500  17.949   6.662  0.00  0.00    -0.398 OA
HETATM   48  H   UNK N   1      34.063  18.473   5.973  0.00  0.00     0.209 HD
ENDBRANCH  46  47
ENDBRANCH   1  46
BRANCH   4  49
HETATM   49  O   UNK N   1      31.432  16.791   7.787  0.00  0.00    -0.348 OA
BRANCH  49  50
HETATM   50  C   UNK N   1      30.985  17.041   6.436  0.00  0.00     0.286 C 
HETATM   51  C   UNK N   1      29.478  17.485   6.339  0.00  0.00     0.169 C 
HETATM   52  C   UNK N   1      28.756  16.716   5.193  0.00  0.00     0.177 C 
HETATM   53  C   UNK N   1      29.626  16.775   3.935  0.00  0.00     0.180 C 
HETATM   54  C   UNK N   1      30.986  16.109   4.251  0.00  0.00     0.179 C 
HETATM   55  O   UNK N   1      31.143  15.865   5.651  0.00  0.00    -0.349 OA
BRANCH  51  56
HETATM   56  N   UNK N   1      28.739  17.285   7.572  0.00  0.00    -0.363 N 
HETATM   57  C   UNK N   1      28.066  18.212   8.169  0.00  0.00     0.107 C 
HETATM   58  C   UNK N   1      27.969  19.603   7.615  0.00  0.00     0.097 C 
ATOM     59  HN  UNK N   1      28.752  16.356   7.992  1.00  0.00     0.162 HD
BRANCH  57  60
HETATM   60  O   UNK N   1      27.410  17.920   9.305  0.00  0.00    -0.350 OA
HETATM   61  H   UNK N   1      27.671  18.037  10.197  0.00  0.00     0.219 HD
ENDBRANCH  57  60
ENDBRANCH  51  56
BRANCH  52  62
HETATM   62  O   UNK N   1      27.499  17.273   4.945  0.00  0.00    -0.391 OA
HETATM   63  H   UNK N   1      27.000  17.188   4.119  0.00  0.00     0.210 HD
ENDBRANCH  52  62
BRANCH  53  64
HETATM   64  O   UNK N   1      29.011  16.118   2.864  0.00  0.00    -0.390 OA
HETATM   65  H   UNK N   1      29.259  15.210   2.632  0.00  0.00     0.210 HD
ENDBRANCH  53  64
BRANCH  54  66
HETATM   66  C   UNK N   1      32.168  16.881   3.637  0.00  0.00     0.198 C 
BRANCH  66  67
HETATM   67  O   UNK N   1      31.911  17.235   2.312  0.00  0.00    -0.398 OA
HETATM   68  H   UNK N   1      32.524  17.158   1.564  0.00  0.00     0.209 HD
ENDBRANCH  66  67
ENDBRANCH  54  66
ENDBRANCH  49  50
ENDBRANCH   4  49
TORSDOF 22
ENDMDL
MODEL 4
REMARK VINA RESULT:      -7.5      2.189      3.397
REMARK  22 active torsions:
REMARK  status: ('A' for Active; 'I' for Inactive)
REMARK    1  A    between atoms: C_19  and  C_9 
REMARK    2  A    between atoms: O_41  and  C_9 
REMARK    3  A    between atoms: C_20  and  C_10 
REMARK    4  A    between atoms: O_42  and  C_10 
REMARK    5  A    between atoms: C_21  and  C_11 
REMARK    6  A    between atoms: O_43  and  C_11 
REMARK    7  A    between atoms: O_44  and  C_13 
REMARK    8  A    between atoms: O_45  and  C_14 
REMARK    9  A    between atoms: O_46  and  C_15 
REMARK   10  A    between atoms: O_52  and  C_16 
REMARK   11  A    between atoms: C_23  and  N_35 
REMARK   12  A    between atoms: C_24  and  N_37 
REMARK   13  A    between atoms: C_25  and  N_39 
REMARK   14  A    between atoms: C_26  and  O_48 
REMARK   15  A    between atoms: C_27  and  O_49 
REMARK   16  A    between atoms: C_28  and  O_50 
REMARK   17  A    between atoms: C_29  and  O_51 
REMARK   18  A    between atoms: C_30  and  O_58 
REMARK   19  A    between atoms: C_31  and  O_57 
REMARK   20  A    between atoms: C_32  and  O_52 
REMARK   21  A    between atoms: C_33  and  O_57 
REMARK   22  A    between atoms: C_34  and  O_58 
ROOT
HETATM    1  C   UNK N   1      30.354  14.599   4.864  0.00  0.00     0.180 C 
HETATM    2  C   UNK N   1      28.499  16.833   5.343  0.00  0.00     0.169 C 
HETATM    3  C   UNK N   1      29.313  16.189   6.554  0.00  0.00     0.177 C 
HETATM    4  C   UNK N   1      30.625  15.459   6.135  0.00  0.00     0.186 C 
HETATM    5  C   UNK N   1      28.873  16.159   3.991  0.00  0.00     0.286 C 
HETATM    6  O   UNK N   1      29.101  14.847   4.314  0.00  0.00    -0.349 OA
ENDROOT
BRANCH   5   7
HETATM    7  O   UNK N   1      27.813  16.198   3.036  0.00  0.00    -0.348 OA
BRANCH   7   8
HETATM    8  C   UNK N   1      26.636  15.453   3.431  0.00  0.00     0.186 C 
HETATM    9  C   UNK N   1      25.295  16.337   3.454  0.00  0.00     0.180 C 
HETATM   10  O   UNK N   1      24.139  15.638   3.019  0.00  0.00    -0.349 OA
HETATM   11  C   UNK N   1      24.136  14.341   3.559  0.00  0.00     0.292 C 
HETATM   12  C   UNK N   1      25.097  13.473   2.711  0.00  0.00     0.170 C 
HETATM   13  C   UNK N   1      26.365  14.345   2.373  0.00  0.00     0.177 C 
BRANCH   9  14
HETATM   14  C   UNK N   1      24.920  17.045   4.773  0.00  0.00     0.198 C 
BRANCH  14  15
HETATM   15  O   UNK N   1      24.788  18.430   4.625  0.00  0.00    -0.398 OA
HETATM   16  H   UNK N   1      24.465  19.283   4.296  0.00  0.00     0.209 HD
ENDBRANCH  14  15
ENDBRANCH   9  14
BRANCH  11  17
HETATM   17  O   UNK N   1      22.829  13.901   3.744  0.00  0.00    -0.318 OA
BRANCH  17  18
HETATM   18  C   UNK N   1      22.165  14.135   4.922  0.00  0.00     0.074 A 
HETATM   19  C   UNK N   1      21.416  15.310   5.105  0.00  0.00     0.038 A 
HETATM   20  C   UNK N   1      20.833  15.629   6.323  0.00  0.00     0.017 A 
HETATM   21  C   UNK N   1      20.987  14.767   7.405  0.00  0.00     0.004 A 
HETATM   22  C   UNK N   1      20.460  15.082   8.663  0.00  0.00    -0.043 A 
HETATM   23  C   UNK N   1      21.699  13.558   7.238  0.00  0.00     0.092 A 
HETATM   24  C   UNK N   1      19.719  16.355   8.915  0.00  0.00     0.049 C 
HETATM   25  C   UNK N   1      20.653  14.187   9.713  0.00  0.00     0.090 A 
HETATM   26  C   UNK N   1      21.358  13.007   9.478  0.00  0.00     0.288 A 
HETATM   27  O   UNK N   1      21.531  12.219  10.395  0.00  0.00    -0.260 OA
HETATM   28  O   UNK N   1      21.853  12.730   8.274  0.00  0.00    -0.275 OA
HETATM   29  C   UNK N   1      22.282  13.242   5.997  0.00  0.00     0.075 A 
ENDBRANCH  17  18
ENDBRANCH  11  17
BRANCH  12  30
HETATM   30  N   UNK N   1      24.500  13.030   1.464  0.00  0.00    -0.363 N 
HETATM   31  C   UNK N   1      24.713  11.873   0.933  0.00  0.00     0.107 C 
HETATM   32  C   UNK N   1      24.027  11.514  -0.339  0.00  0.00     0.097 C 
ATOM     33  HN  UNK N   1      23.874  13.672   0.977  1.00  0.00     0.162 HD
BRANCH  31  34
HETATM   34  O   UNK N   1      25.561  10.990   1.498  0.00  0.00    -0.350 OA
HETATM   35  H   UNK N   1      25.816  10.094   1.400  0.00  0.00     0.219 HD
ENDBRANCH  31  34
ENDBRANCH  12  30
BRANCH  13  36
HETATM   36  O   UNK N   1      27.479  13.523   2.188  0.00  0.00    -0.391 OA
HETATM   37  H   UNK N   1      28.389  13.741   1.931  0.00  0.00     0.210 HD
ENDBRANCH  13  36
ENDBRANCH   7   8
ENDBRANCH   5   7
BRANCH   2  38
HETATM   38  N   UNK N   1      28.652  18.277   5.239  0.00  0.00    -0.363 N 
HETATM   39  C   UNK N   1      27.900  19.106   5.890  0.00  0.00     0.107 C 
HETATM   40  C   UNK N   1      28.096  20.573   5.723  0.00  0.00     0.097 C 
ATOM     41  HN  UNK N   1      29.379  18.650   4.630  1.00  0.00     0.162 HD
BRANCH  39  42
HETATM   42  O   UNK N   1      26.950  18.668   6.744  0.00  0.00    -0.350 OA
HETATM   43  H   UNK N   1      26.715  17.823   7.072  0.00  0.00     0.219 HD
ENDBRANCH  39  42
ENDBRANCH   2  38
BRANCH   3  44
HETATM   44  O   UNK N   1      29.554  17.132   7.559  0.00  0.00    -0.391 OA
HETATM   45  H   UNK N   1      30.438  17.212   7.948  0.00  0.00     0.210 HD
ENDBRANCH   3  44
BRANCH   1  46
HETATM   46  C   UNK N   1      31.477  14.626   3.821  0.00  0.00     0.198 C 
BRANCH  46  47
HETATM   47  O   UNK N   1      32.720  14.408   4.412  0.00  0.00    -0.398 OA
HETATM   48  H   UNK N   1      33.227  13.581   4.423  0.00  0.00     0.209 HD
ENDBRANCH  46  47
ENDBRANCH   1  46
BRANCH   4  49
HETATM   49  O   UNK N   1      31.279  14.759   7.229  0.00  0.00    -0.348 OA
BRANCH  49  50
HETATM   50  C   UNK N   1      32.504  15.338   7.733  0.00  0.00     0.286 C 
HETATM   51  C   UNK N   1      33.299  14.389   8.705  0.00  0.00     0.169 C 
HETATM   52  C   UNK N   1      33.783  15.177   9.959  0.00  0.00     0.177 C 
HETATM   53  C   UNK N   1      34.438  16.481   9.499  0.00  0.00     0.180 C 
HETATM   54  C   UNK N   1      33.386  17.308   8.722  0.00  0.00     0.179 C 
HETATM   55  O   UNK N   1      32.215  16.539   8.437  0.00  0.00    -0.349 OA
BRANCH  51  56
HETATM   56  N   UNK N   1      32.531  13.240   9.145  0.00  0.00    -0.363 N 
HETATM   57  C   UNK N   1      32.947  12.020   9.068  0.00  0.00     0.107 C 
HETATM   58  C   UNK N   1      34.303  11.678   8.524  0.00  0.00     0.097 C 
ATOM     59  HN  UNK N   1      31.605  13.406   9.539  1.00  0.00     0.162 HD
BRANCH  57  60
HETATM   60  O   UNK N   1      32.157  11.027   9.510  0.00  0.00    -0.350 OA
HETATM   61  H   UNK N   1      32.108  10.630  10.358  0.00  0.00     0.219 HD
ENDBRANCH  57  60
ENDBRANCH  51  56
BRANCH  52  62
HETATM   62  O   UNK N   1      34.686  14.411  10.701  0.00  0.00    -0.391 OA
HETATM   63  H   UNK N   1      34.555  14.117  11.615  0.00  0.00     0.210 HD
ENDBRANCH  52  62
BRANCH  53  64
HETATM   64  O   UNK N   1      34.915  17.219  10.589  0.00  0.00    -0.390 OA
HETATM   65  H   UNK N   1      34.340  17.853  11.046  0.00  0.00     0.210 HD
ENDBRANCH  53  64
BRANCH  54  66
HETATM   66  C   UNK N   1      33.983  17.984   7.476  0.00  0.00     0.198 C 
BRANCH  66  67
HETATM   67  O   UNK N   1      34.998  18.878   7.818  0.00  0.00    -0.398 OA
HETATM   68  H   UNK N   1      35.050  19.815   7.572  0.00  0.00     0.209 HD
ENDBRANCH  66  67
ENDBRANCH  54  66
ENDBRANCH  49  50
ENDBRANCH   4  49
TORSDOF 22
ENDMDL
MODEL 5
REMARK VINA RESULT:      -7.5      3.127      9.296
REMARK  22 active torsions:
REMARK  status: ('A' for Active; 'I' for Inactive)
REMARK    1  A    between atoms: C_19  and  C_9 
REMARK    2  A    between atoms: O_41  and  C_9 
REMARK    3  A    between atoms: C_20  and  C_10 
REMARK    4  A    between atoms: O_42  and  C_10 
REMARK    5  A    between atoms: C_21  and  C_11 
REMARK    6  A    between atoms: O_43  and  C_11 
REMARK    7  A    between atoms: O_44  and  C_13 
REMARK    8  A    between atoms: O_45  and  C_14 
REMARK    9  A    between atoms: O_46  and  C_15 
REMARK   10  A    between atoms: O_52  and  C_16 
REMARK   11  A    between atoms: C_23  and  N_35 
REMARK   12  A    between atoms: C_24  and  N_37 
REMARK   13  A    between atoms: C_25  and  N_39 
REMARK   14  A    between atoms: C_26  and  O_48 
REMARK   15  A    between atoms: C_27  and  O_49 
REMARK   16  A    between atoms: C_28  and  O_50 
REMARK   17  A    between atoms: C_29  and  O_51 
REMARK   18  A    between atoms: C_30  and  O_58 
REMARK   19  A    between atoms: C_31  and  O_57 
REMARK   20  A    between atoms: C_32  and  O_52 
REMARK   21  A    between atoms: C_33  and  O_57 
REMARK   22  A    between atoms: C_34  and  O_58 
ROOT
HETATM    1  C   UNK N   1      25.650  16.105   3.303  0.00  0.00     0.180 C 
HETATM    2  C   UNK N   1      26.003  18.836   4.342  0.00  0.00     0.169 C 
HETATM    3  C   UNK N   1      24.579  18.356   3.806  0.00  0.00     0.177 C 
HETATM    4  C   UNK N   1      24.366  16.812   3.831  0.00  0.00     0.186 C 
HETATM    5  C   UNK N   1      27.049  17.687   4.266  0.00  0.00     0.286 C 
HETATM    6  O   UNK N   1      26.711  16.988   3.138  0.00  0.00    -0.349 OA
ENDROOT
BRANCH   5   7
HETATM    7  O   UNK N   1      28.387  18.159   4.105  0.00  0.00    -0.348 OA
BRANCH   7   8
HETATM    8  C   UNK N   1      29.386  17.325   4.739  0.00  0.00     0.186 C 
HETATM    9  C   UNK N   1      28.784  16.342   5.858  0.00  0.00     0.180 C 
HETATM   10  O   UNK N   1      29.404  15.066   5.896  0.00  0.00    -0.349 OA
HETATM   11  C   UNK N   1      30.795  15.210   5.760  0.00  0.00     0.292 C 
HETATM   12  C   UNK N   1      31.105  15.422   4.259  0.00  0.00     0.170 C 
HETATM   13  C   UNK N   1      30.002  16.380   3.668  0.00  0.00     0.177 C 
BRANCH   9  14
HETATM   14  C   UNK N   1      28.726  16.855   7.312  0.00  0.00     0.198 C 
BRANCH  14  15
HETATM   15  O   UNK N   1      27.451  17.304   7.677  0.00  0.00    -0.398 OA
HETATM   16  H   UNK N   1      26.486  17.327   7.766  0.00  0.00     0.209 HD
ENDBRANCH  14  15
ENDBRANCH   9  14
BRANCH  11  17
HETATM   17  O   UNK N   1      31.453  14.187   6.437  0.00  0.00    -0.318 OA
BRANCH  17  18
HETATM   18  C   UNK N   1      32.387  14.466   7.403  0.00  0.00     0.074 A 
HETATM   19  C   UNK N   1      32.251  15.590   8.234  0.00  0.00     0.038 A 
HETATM   20  C   UNK N   1      33.237  15.963   9.136  0.00  0.00     0.017 A 
HETATM   21  C   UNK N   1      34.402  15.208   9.231  0.00  0.00     0.004 A 
HETATM   22  C   UNK N   1      35.442  15.584  10.090  0.00  0.00    -0.043 A 
HETATM   23  C   UNK N   1      34.548  14.047   8.438  0.00  0.00     0.092 A 
HETATM   24  C   UNK N   1      35.363  16.813  10.937  0.00  0.00     0.049 C 
HETATM   25  C   UNK N   1      36.589  14.796  10.138  0.00  0.00     0.090 A 
HETATM   26  C   UNK N   1      36.664  13.658   9.335  0.00  0.00     0.288 A 
HETATM   27  O   UNK N   1      37.669  12.963   9.371  0.00  0.00    -0.260 OA
HETATM   28  O   UNK N   1      35.665  13.322   8.523  0.00  0.00    -0.275 OA
HETATM   29  C   UNK N   1      33.539  13.675   7.530  0.00  0.00     0.075 A 
ENDBRANCH  17  18
ENDBRANCH  11  17
BRANCH  12  30
HETATM   30  N   UNK N   1      31.089  14.183   3.502  0.00  0.00    -0.363 N 
HETATM   31  C   UNK N   1      32.023  13.824   2.685  0.00  0.00     0.107 C 
HETATM   32  C   UNK N   1      31.915  12.518   1.980  0.00  0.00     0.097 C 
ATOM     33  HN  UNK N   1      30.293  13.557   3.623  1.00  0.00     0.162 HD
BRANCH  31  34
HETATM   34  O   UNK N   1      33.084  14.620   2.444  0.00  0.00    -0.350 OA
HETATM   35  H   UNK N   1      33.657  14.837   1.735  0.00  0.00     0.219 HD
ENDBRANCH  31  34
ENDBRANCH  12  30
BRANCH  13  36
HETATM   36  O   UNK N   1      30.514  17.093   2.582  0.00  0.00    -0.391 OA
HETATM   37  H   UNK N   1      30.657  16.823   1.660  0.00  0.00     0.210 HD
ENDBRANCH  13  36
ENDBRANCH   7   8
ENDBRANCH   5   7
BRANCH   2  38
HETATM   38  N   UNK N   1      25.964  19.388   5.687  0.00  0.00    -0.363 N 
HETATM   39  C   UNK N   1      26.717  20.374   6.058  0.00  0.00     0.107 C 
HETATM   40  C   UNK N   1      26.642  20.879   7.457  0.00  0.00     0.097 C 
ATOM     41  HN  UNK N   1      25.319  18.983   6.365  1.00  0.00     0.162 HD
BRANCH  39  42
HETATM   42  O   UNK N   1      27.557  20.979   5.190  0.00  0.00    -0.350 OA
HETATM   43  H   UNK N   1      28.201  21.653   5.276  0.00  0.00     0.219 HD
ENDBRANCH  39  42
ENDBRANCH   2  38
BRANCH   3  44
HETATM   44  O   UNK N   1      23.540  19.024   4.462  0.00  0.00    -0.391 OA
HETATM   45  H   UNK N   1      23.238  19.887   4.140  0.00  0.00     0.210 HD
ENDBRANCH   3  44
BRANCH   1  46
HETATM   46  C   UNK N   1      26.045  14.838   4.072  0.00  0.00     0.198 C 
BRANCH  46  47
HETATM   47  O   UNK N   1      25.471  14.818   5.341  0.00  0.00    -0.398 OA
HETATM   48  H   UNK N   1      25.614  15.455   6.059  0.00  0.00     0.209 HD
ENDBRANCH  46  47
ENDBRANCH   1  46
BRANCH   4  49
HETATM   49  O   UNK N   1      23.123  16.383   3.211  0.00  0.00    -0.348 OA
BRANCH  49  50
HETATM   50  C   UNK N   1      22.144  15.763   4.074  0.00  0.00     0.286 C 
HETATM   51  C   UNK N   1      20.655  16.044   3.649  0.00  0.00     0.169 C 
HETATM   52  C   UNK N   1      19.795  16.423   4.892  0.00  0.00     0.177 C 
HETATM   53  C   UNK N   1      20.067  15.409   6.005  0.00  0.00     0.180 C 
HETATM   54  C   UNK N   1      21.572  15.464   6.360  0.00  0.00     0.179 C 
HETATM   55  O   UNK N   1      22.311  16.231   5.407  0.00  0.00    -0.349 OA
BRANCH  51  56
HETATM   56  N   UNK N   1      20.528  17.096   2.658  0.00  0.00    -0.363 N 
HETATM   57  C   UNK N   1      20.221  16.890   1.420  0.00  0.00     0.107 C 
HETATM   58  C   UNK N   1      19.940  15.514   0.892  0.00  0.00     0.097 C 
ATOM     59  HN  UNK N   1      20.692  18.058   2.956  1.00  0.00     0.162 HD
BRANCH  57  60
HETATM   60  O   UNK N   1      20.124  17.937   0.584  0.00  0.00    -0.350 OA
HETATM   61  H   UNK N   1      20.495  18.064  -0.267  0.00  0.00     0.219 HD
ENDBRANCH  57  60
ENDBRANCH  51  56
BRANCH  52  62
HETATM   62  O   UNK N   1      18.438  16.437   4.563  0.00  0.00    -0.391 OA
HETATM   63  H   UNK N   1      17.966  15.733   4.092  0.00  0.00     0.210 HD
ENDBRANCH  52  62
BRANCH  53  64
HETATM   64  O   UNK N   1      19.298  15.689   7.141  0.00  0.00    -0.390 OA
HETATM   65  H   UNK N   1      19.724  15.935   7.978  0.00  0.00     0.210 HD
ENDBRANCH  53  64
BRANCH  54  66
HETATM   66  C   UNK N   1      22.164  14.064   6.598  0.00  0.00     0.198 C 
BRANCH  66  67
HETATM   67  O   UNK N   1      23.419  14.139   7.205  0.00  0.00    -0.398 OA
HETATM   68  H   UNK N   1      23.612  14.474   8.094  0.00  0.00     0.209 HD
ENDBRANCH  66  67
ENDBRANCH  54  66
ENDBRANCH  49  50
ENDBRANCH   4  49
TORSDOF 22
ENDMDL
MODEL 6
REMARK VINA RESULT:      -7.5      3.229      8.787
REMARK  22 active torsions:
REMARK  status: ('A' for Active; 'I' for Inactive)
REMARK    1  A    between atoms: C_19  and  C_9 
REMARK    2  A    between atoms: O_41  and  C_9 
REMARK    3  A    between atoms: C_20  and  C_10 
REMARK    4  A    between atoms: O_42  and  C_10 
REMARK    5  A    between atoms: C_21  and  C_11 
REMARK    6  A    between atoms: O_43  and  C_11 
REMARK    7  A    between atoms: O_44  and  C_13 
REMARK    8  A    between atoms: O_45  and  C_14 
REMARK    9  A    between atoms: O_46  and  C_15 
REMARK   10  A    between atoms: O_52  and  C_16 
REMARK   11  A    between atoms: C_23  and  N_35 
REMARK   12  A    between atoms: C_24  and  N_37 
REMARK   13  A    between atoms: C_25  and  N_39 
REMARK   14  A    between atoms: C_26  and  O_48 
REMARK   15  A    between atoms: C_27  and  O_49 
REMARK   16  A    between atoms: C_28  and  O_50 
REMARK   17  A    between atoms: C_29  and  O_51 
REMARK   18  A    between atoms: C_30  and  O_58 
REMARK   19  A    between atoms: C_31  and  O_57 
REMARK   20  A    between atoms: C_32  and  O_52 
REMARK   21  A    between atoms: C_33  and  O_57 
REMARK   22  A    between atoms: C_34  and  O_58 
ROOT
HETATM    1  C   UNK N   1      27.382  16.569   3.299  0.00  0.00     0.180 C 
HETATM    2  C   UNK N   1      28.233  18.683   5.161  0.00  0.00     0.169 C 
HETATM    3  C   UNK N   1      26.747  18.669   4.584  0.00  0.00     0.177 C 
HETATM    4  C   UNK N   1      26.250  17.271   4.108  0.00  0.00     0.186 C 
HETATM    5  C   UNK N   1      29.048  17.461   4.646  0.00  0.00     0.286 C 
HETATM    6  O   UNK N   1      28.589  17.255   3.372  0.00  0.00    -0.349 OA
ENDROOT
BRANCH   5   7
HETATM    7  O   UNK N   1      30.451  17.717   4.571  0.00  0.00    -0.348 OA
BRANCH   7   8
HETATM    8  C   UNK N   1      31.275  16.611   5.011  0.00  0.00     0.186 C 
HETATM    9  C   UNK N   1      30.623  15.761   6.208  0.00  0.00     0.180 C 
HETATM   10  O   UNK N   1      30.869  14.367   6.123  0.00  0.00    -0.349 OA
HETATM   11  C   UNK N   1      32.204  14.142   5.747  0.00  0.00     0.292 C 
HETATM   12  C   UNK N   1      32.307  14.350   4.217  0.00  0.00     0.170 C 
HETATM   13  C   UNK N   1      31.424  15.600   3.839  0.00  0.00     0.177 C 
BRANCH   9  14
HETATM   14  C   UNK N   1      30.948  16.187   7.655  0.00  0.00     0.198 C 
BRANCH  14  15
HETATM   15  O   UNK N   1      31.198  17.559   7.773  0.00  0.00    -0.398 OA
HETATM   16  H   UNK N   1      31.077  18.517   7.681  0.00  0.00     0.209 HD
ENDBRANCH  14  15
ENDBRANCH   9  14
BRANCH  11  17
HETATM   17  O   UNK N   1      32.660  12.944   6.288  0.00  0.00    -0.318 OA
BRANCH  17  18
HETATM   18  C   UNK N   1      33.420  12.928   7.431  0.00  0.00     0.074 A 
HETATM   19  C   UNK N   1      33.379  11.832   8.309  0.00  0.00     0.038 A 
HETATM   20  C   UNK N   1      34.042  11.838   9.527  0.00  0.00     0.017 A 
HETATM   21  C   UNK N   1      34.774  12.960   9.904  0.00  0.00     0.004 A 
HETATM   22  C   UNK N   1      35.411  13.025  11.149  0.00  0.00    -0.043 A 
HETATM   23  C   UNK N   1      34.868  14.061   9.023  0.00  0.00     0.092 A 
HETATM   24  C   UNK N   1      35.331  11.907  12.138  0.00  0.00     0.049 C 
HETATM   25  C   UNK N   1      36.123  14.175  11.478  0.00  0.00     0.090 A 
HETATM   26  C   UNK N   1      36.183  15.222  10.559  0.00  0.00     0.288 A 
HETATM   27  O   UNK N   1      36.805  16.235  10.842  0.00  0.00    -0.260 OA
HETATM   28  O   UNK N   1      35.567  15.140   9.382  0.00  0.00    -0.275 OA
HETATM   29  C   UNK N   1      34.196  14.041   7.787  0.00  0.00     0.075 A 
ENDBRANCH  17  18
ENDBRANCH  11  17
BRANCH  12  30
HETATM   30  N   UNK N   1      31.828  13.206   3.462  0.00  0.00    -0.363 N 
HETATM   31  C   UNK N   1      32.300  12.851   2.314  0.00  0.00     0.107 C 
HETATM   32  C   UNK N   1      31.750  11.643   1.639  0.00  0.00     0.097 C 
ATOM     33  HN  UNK N   1      31.073  12.649   3.862  1.00  0.00     0.162 HD
BRANCH  31  34
HETATM   34  O   UNK N   1      33.269  13.565   1.706  0.00  0.00    -0.350 OA
HETATM   35  H   UNK N   1      34.193  13.519   1.559  0.00  0.00     0.219 HD
ENDBRANCH  31  34
ENDBRANCH  12  30
BRANCH  13  36
HETATM   36  O   UNK N   1      31.924  16.212   2.687  0.00  0.00    -0.391 OA
HETATM   37  H   UNK N   1      32.180  15.833   1.831  0.00  0.00     0.210 HD
ENDBRANCH  13  36
ENDBRANCH   7   8
ENDBRANCH   5   7
BRANCH   2  38
HETATM   38  N   UNK N   1      28.294  18.747   6.614  0.00  0.00    -0.363 N 
HETATM   39  C   UNK N   1      27.771  17.839   7.375  0.00  0.00     0.107 C 
HETATM   40  C   UNK N   1      27.852  17.975   8.855  0.00  0.00     0.097 C 
ATOM     41  HN  UNK N   1      28.768  19.537   7.050  1.00  0.00     0.162 HD
BRANCH  39  42
HETATM   42  O   UNK N   1      27.171  16.748   6.851  0.00  0.00    -0.350 OA
HETATM   43  H   UNK N   1      26.342  16.334   6.992  0.00  0.00     0.219 HD
ENDBRANCH  39  42
ENDBRANCH   2  38
BRANCH   3  44
HETATM   44  O   UNK N   1      25.848  19.249   5.486  0.00  0.00    -0.391 OA
HETATM   45  H   UNK N   1      25.022  18.793   5.710  0.00  0.00     0.210 HD
ENDBRANCH   3  44
BRANCH   1  46
HETATM   46  C   UNK N   1      27.533  15.069   3.578  0.00  0.00     0.198 C 
BRANCH  46  47
HETATM   47  O   UNK N   1      26.627  14.642   4.548  0.00  0.00    -0.398 OA
HETATM   48  H   UNK N   1      26.116  13.818   4.550  0.00  0.00     0.209 HD
ENDBRANCH  46  47
ENDBRANCH   1  46
BRANCH   4  49
HETATM   49  O   UNK N   1      24.951  17.302   3.456  0.00  0.00    -0.348 OA
BRANCH  49  50
HETATM   50  C   UNK N   1      23.820  16.854   4.237  0.00  0.00     0.286 C 
HETATM   51  C   UNK N   1      22.693  17.941   4.401  0.00  0.00     0.169 C 
HETATM   52  C   UNK N   1      22.204  18.001   5.878  0.00  0.00     0.177 C 
HETATM   53  C   UNK N   1      21.933  16.575   6.365  0.00  0.00     0.180 C 
HETATM   54  C   UNK N   1      23.249  15.768   6.270  0.00  0.00     0.179 C 
HETATM   55  O   UNK N   1      24.252  16.477   5.538  0.00  0.00    -0.349 OA
BRANCH  51  56
HETATM   56  N   UNK N   1      23.111  19.270   3.994  0.00  0.00    -0.363 N 
HETATM   57  C   UNK N   1      22.469  20.002   3.146  0.00  0.00     0.107 C 
HETATM   58  C   UNK N   1      21.191  19.541   2.509  0.00  0.00     0.097 C 
ATOM     59  HN  UNK N   1      23.965  19.649   4.404  1.00  0.00     0.162 HD
BRANCH  57  60
HETATM   60  O   UNK N   1      22.940  21.224   2.843  0.00  0.00    -0.350 OA
HETATM   61  H   UNK N   1      23.048  21.978   3.388  0.00  0.00     0.219 HD
ENDBRANCH  57  60
ENDBRANCH  51  56
BRANCH  52  62
HETATM   62  O   UNK N   1      21.050  18.782   5.982  0.00  0.00    -0.391 OA
HETATM   63  H   UNK N   1      20.712  19.180   6.798  0.00  0.00     0.210 HD
ENDBRANCH  52  62
BRANCH  53  64
HETATM   64  O   UNK N   1      21.465  16.573   7.684  0.00  0.00    -0.390 OA
HETATM   65  H   UNK N   1      20.589  16.930   7.899  0.00  0.00     0.210 HD
ENDBRANCH  53  64
BRANCH  54  66
HETATM   66  C   UNK N   1      23.018  14.339   5.749  0.00  0.00     0.198 C 
BRANCH  66  67
HETATM   67  O   UNK N   1      24.213  13.622   5.680  0.00  0.00    -0.398 OA
HETATM   68  H   UNK N   1      24.588  13.197   4.893  0.00  0.00     0.209 HD
ENDBRANCH  66  67
ENDBRANCH  54  66
ENDBRANCH  49  50
ENDBRANCH   4  49
TORSDOF 22
ENDMDL
MODEL 7
REMARK VINA RESULT:      -7.4      3.620      9.429
REMARK  22 active torsions:
REMARK  status: ('A' for Active; 'I' for Inactive)
REMARK    1  A    between atoms: C_19  and  C_9 
REMARK    2  A    between atoms: O_41  and  C_9 
REMARK    3  A    between atoms: C_20  and  C_10 
REMARK    4  A    between atoms: O_42  and  C_10 
REMARK    5  A    between atoms: C_21  and  C_11 
REMARK    6  A    between atoms: O_43  and  C_11 
REMARK    7  A    between atoms: O_44  and  C_13 
REMARK    8  A    between atoms: O_45  and  C_14 
REMARK    9  A    between atoms: O_46  and  C_15 
REMARK   10  A    between atoms: O_52  and  C_16 
REMARK   11  A    between atoms: C_23  and  N_35 
REMARK   12  A    between atoms: C_24  and  N_37 
REMARK   13  A    between atoms: C_25  and  N_39 
REMARK   14  A    between atoms: C_26  and  O_48 
REMARK   15  A    between atoms: C_27  and  O_49 
REMARK   16  A    between atoms: C_28  and  O_50 
REMARK   17  A    between atoms: C_29  and  O_51 
REMARK   18  A    between atoms: C_30  and  O_58 
REMARK   19  A    between atoms: C_31  and  O_57 
REMARK   20  A    between atoms: C_32  and  O_52 
REMARK   21  A    between atoms: C_33  and  O_57 
REMARK   22  A    between atoms: C_34  and  O_58 
ROOT
HETATM    1  C   UNK N   1      24.536  15.956   3.966  0.00  0.00     0.180 C 
HETATM    2  C   UNK N   1      25.618  18.621   4.587  0.00  0.00     0.169 C 
HETATM    3  C   UNK N   1      24.042  18.377   4.567  0.00  0.00     0.177 C 
HETATM    4  C   UNK N   1      23.614  16.897   4.800  0.00  0.00     0.186 C 
HETATM    5  C   UNK N   1      26.395  17.305   4.297  0.00  0.00     0.286 C 
HETATM    6  O   UNK N   1      25.609  16.632   3.399  0.00  0.00    -0.349 OA
ENDROOT
BRANCH   5   7
HETATM    7  O   UNK N   1      27.666  17.529   3.685  0.00  0.00    -0.348 OA
BRANCH   7   8
HETATM    8  C   UNK N   1      28.766  16.870   4.356  0.00  0.00     0.186 C 
HETATM    9  C   UNK N   1      28.300  15.885   5.538  0.00  0.00     0.180 C 
HETATM   10  O   UNK N   1      29.080  14.705   5.643  0.00  0.00    -0.349 OA
HETATM   11  C   UNK N   1      30.440  15.019   5.485  0.00  0.00     0.292 C 
HETATM   12  C   UNK N   1      30.716  15.180   3.971  0.00  0.00     0.170 C 
HETATM   13  C   UNK N   1      29.497  15.950   3.336  0.00  0.00     0.177 C 
BRANCH   9  14
HETATM   14  C   UNK N   1      28.179  16.472   6.960  0.00  0.00     0.198 C 
BRANCH  14  15
HETATM   15  O   UNK N   1      28.628  17.796   7.039  0.00  0.00    -0.398 OA
HETATM   16  H   UNK N   1      28.700  18.744   6.852  0.00  0.00     0.209 HD
ENDBRANCH  14  15
ENDBRANCH   9  14
BRANCH  11  17
HETATM   17  O   UNK N   1      31.226  14.132   6.214  0.00  0.00    -0.318 OA
BRANCH  17  18
HETATM   18  C   UNK N   1      32.166  14.588   7.105  0.00  0.00     0.074 A 
HETATM   19  C   UNK N   1      32.513  13.831   8.237  0.00  0.00     0.038 A 
HETATM   20  C   UNK N   1      33.369  14.318   9.214  0.00  0.00     0.017 A 
HETATM   21  C   UNK N   1      33.909  15.593   9.080  0.00  0.00     0.004 A 
HETATM   22  C   UNK N   1      34.733  16.139  10.071  0.00  0.00    -0.043 A 
HETATM   23  C   UNK N   1      33.612  16.360   7.931  0.00  0.00     0.092 A 
HETATM   24  C   UNK N   1      35.067  15.393  11.323  0.00  0.00     0.049 C 
HETATM   25  C   UNK N   1      35.238  17.424   9.890  0.00  0.00     0.090 A 
HETATM   26  C   UNK N   1      34.912  18.123   8.728  0.00  0.00     0.288 A 
HETATM   27  O   UNK N   1      35.351  19.252   8.564  0.00  0.00    -0.260 OA
HETATM   28  O   UNK N   1      34.124  17.585   7.800  0.00  0.00    -0.275 OA
HETATM   29  C   UNK N   1      32.746  15.854   6.943  0.00  0.00     0.075 A 
ENDBRANCH  17  18
ENDBRANCH  11  17
BRANCH  12  30
HETATM   30  N   UNK N   1      30.859  13.906   3.288  0.00  0.00    -0.363 N 
HETATM   31  C   UNK N   1      31.878  13.586   2.563  0.00  0.00     0.107 C 
HETATM   32  C   UNK N   1      31.931  12.240   1.929  0.00  0.00     0.097 C 
ATOM     33  HN  UNK N   1      30.108  13.222   3.387  1.00  0.00     0.162 HD
BRANCH  31  34
HETATM   34  O   UNK N   1      32.887  14.456   2.354  0.00  0.00    -0.350 OA
HETATM   35  H   UNK N   1      33.039  15.265   1.907  0.00  0.00     0.219 HD
ENDBRANCH  31  34
ENDBRANCH  12  30
BRANCH  13  36
HETATM   36  O   UNK N   1      29.910  16.657   2.205  0.00  0.00    -0.391 OA
HETATM   37  H   UNK N   1      29.660  16.558   1.272  0.00  0.00     0.210 HD
ENDBRANCH  13  36
ENDBRANCH   7   8
ENDBRANCH   5   7
BRANCH   2  38
HETATM   38  N   UNK N   1      26.100  19.224   5.821  0.00  0.00    -0.363 N 
HETATM   39  C   UNK N   1      26.681  20.380   5.852  0.00  0.00     0.107 C 
HETATM   40  C   UNK N   1      27.169  20.931   7.146  0.00  0.00     0.097 C 
ATOM     41  HN  UNK N   1      25.975  18.715   6.695  1.00  0.00     0.162 HD
BRANCH  39  42
HETATM   42  O   UNK N   1      26.833  21.118   4.731  0.00  0.00    -0.350 OA
HETATM   43  H   UNK N   1      27.553  21.280   4.154  0.00  0.00     0.219 HD
ENDBRANCH  39  42
ENDBRANCH   2  38
BRANCH   3  44
HETATM   44  O   UNK N   1      23.385  19.242   5.449  0.00  0.00    -0.391 OA
HETATM   45  H   UNK N   1      23.891  19.897   5.954  0.00  0.00     0.210 HD
ENDBRANCH   3  44
BRANCH   1  46
HETATM   46  C   UNK N   1      24.957  14.670   4.688  0.00  0.00     0.198 C 
BRANCH  46  47
HETATM   47  O   UNK N   1      23.897  14.125   5.410  0.00  0.00    -0.398 OA
HETATM   48  H   UNK N   1      23.132  13.646   5.055  0.00  0.00     0.209 HD
ENDBRANCH  46  47
ENDBRANCH   1  46
BRANCH   4  49
HETATM   49  O   UNK N   1      22.187  16.669   4.638  0.00  0.00    -0.348 OA
BRANCH  49  50
HETATM   50  C   UNK N   1      21.738  16.253   3.329  0.00  0.00     0.286 C 
HETATM   51  C   UNK N   1      20.901  17.348   2.568  0.00  0.00     0.169 C 
HETATM   52  C   UNK N   1      19.634  16.714   1.921  0.00  0.00     0.177 C 
HETATM   53  C   UNK N   1      20.047  15.445   1.171  0.00  0.00     0.180 C 
HETATM   54  C   UNK N   1      20.678  14.462   2.184  0.00  0.00     0.179 C 
HETATM   55  O   UNK N   1      20.928  15.089   3.444  0.00  0.00    -0.349 OA
BRANCH  51  56
HETATM   56  N   UNK N   1      20.488  18.449   3.418  0.00  0.00    -0.363 N 
HETATM   57  C   UNK N   1      20.726  19.692   3.156  0.00  0.00     0.107 C 
HETATM   58  C   UNK N   1      21.447  20.115   1.910  0.00  0.00     0.097 C 
ATOM     59  HN  UNK N   1      19.979  18.229   4.274  1.00  0.00     0.162 HD
BRANCH  57  60
HETATM   60  O   UNK N   1      20.294  20.637   4.008  0.00  0.00    -0.350 OA
HETATM   61  H   UNK N   1      19.838  21.437   3.836  0.00  0.00     0.219 HD
ENDBRANCH  57  60
ENDBRANCH  51  56
BRANCH  52  62
HETATM   62  O   UNK N   1      19.022  17.620   1.052  0.00  0.00    -0.391 OA
HETATM   63  H   UNK N   1      18.143  17.513   0.657  0.00  0.00     0.210 HD
ENDBRANCH  52  62
BRANCH  53  64
HETATM   64  O   UNK N   1      18.946  14.847   0.547  0.00  0.00    -0.390 OA
HETATM   65  H   UNK N   1      18.172  15.375   0.297  0.00  0.00     0.210 HD
ENDBRANCH  53  64
BRANCH  54  66
HETATM   66  C   UNK N   1      21.914  13.749   1.609  0.00  0.00     0.198 C 
BRANCH  66  67
HETATM   67  O   UNK N   1      22.426  14.428   0.503  0.00  0.00    -0.398 OA
HETATM   68  H   UNK N   1      23.027  14.070  -0.169  0.00  0.00     0.209 HD
ENDBRANCH  66  67
ENDBRANCH  54  66
ENDBRANCH  49  50
ENDBRANCH   4  49
TORSDOF 22
ENDMDL
MODEL 8
REMARK VINA RESULT:      -7.4      3.281     10.277
REMARK  22 active torsions:
REMARK  status: ('A' for Active; 'I' for Inactive)
REMARK    1  A    between atoms: C_19  and  C_9 
REMARK    2  A    between atoms: O_41  and  C_9 
REMARK    3  A    between atoms: C_20  and  C_10 
REMARK    4  A    between atoms: O_42  and  C_10 
REMARK    5  A    between atoms: C_21  and  C_11 
REMARK    6  A    between atoms: O_43  and  C_11 
REMARK    7  A    between atoms: O_44  and  C_13 
REMARK    8  A    between atoms: O_45  and  C_14 
REMARK    9  A    between atoms: O_46  and  C_15 
REMARK   10  A    between atoms: O_52  and  C_16 
REMARK   11  A    between atoms: C_23  and  N_35 
REMARK   12  A    between atoms: C_24  and  N_37 
REMARK   13  A    between atoms: C_25  and  N_39 
REMARK   14  A    between atoms: C_26  and  O_48 
REMARK   15  A    between atoms: C_27  and  O_49 
REMARK   16  A    between atoms: C_28  and  O_50 
REMARK   17  A    between atoms: C_29  and  O_51 
REMARK   18  A    between atoms: C_30  and  O_58 
REMARK   19  A    between atoms: C_31  and  O_57 
REMARK   20  A    between atoms: C_32  and  O_52 
REMARK   21  A    between atoms: C_33  and  O_57 
REMARK   22  A    between atoms: C_34  and  O_58 
ROOT
HETATM    1  C   UNK N   1      25.307  19.117   4.484  0.00  0.00     0.180 C 
HETATM    2  C   UNK N   1      26.138  16.311   4.172  0.00  0.00     0.169 C 
HETATM    3  C   UNK N   1      24.817  16.673   4.988  0.00  0.00     0.177 C 
HETATM    4  C   UNK N   1      24.182  18.046   4.615  0.00  0.00     0.186 C 
HETATM    5  C   UNK N   1      26.807  17.589   3.588  0.00  0.00     0.286 C 
HETATM    6  O   UNK N   1      26.579  18.557   4.530  0.00  0.00    -0.349 OA
ENDROOT
BRANCH   5   7
HETATM    7  O   UNK N   1      28.220  17.457   3.428  0.00  0.00    -0.348 OA
BRANCH   7   8
HETATM    8  C   UNK N   1      28.847  16.603   4.415  0.00  0.00     0.186 C 
HETATM    9  C   UNK N   1      29.939  15.601   3.795  0.00  0.00     0.180 C 
HETATM   10  O   UNK N   1      31.067  15.394   4.630  0.00  0.00    -0.349 OA
HETATM   11  C   UNK N   1      30.651  15.243   5.963  0.00  0.00     0.292 C 
HETATM   12  C   UNK N   1      30.368  16.653   6.534  0.00  0.00     0.170 C 
HETATM   13  C   UNK N   1      29.642  17.491   5.414  0.00  0.00     0.177 C 
BRANCH   9  14
HETATM   14  C   UNK N   1      29.461  14.208   3.334  0.00  0.00     0.198 C 
BRANCH  14  15
HETATM   15  O   UNK N   1      28.990  14.207   2.016  0.00  0.00    -0.398 OA
HETATM   16  H   UNK N   1      28.824  13.906   1.109  0.00  0.00     0.209 HD
ENDBRANCH  14  15
ENDBRANCH   9  14
BRANCH  11  17
HETATM   17  O   UNK N   1      31.530  14.411   6.650  0.00  0.00    -0.318 OA
BRANCH  17  18
HETATM   18  C   UNK N   1      32.679  13.951   6.055  0.00  0.00     0.074 A 
HETATM   19  C   UNK N   1      32.711  12.696   5.426  0.00  0.00     0.038 A 
HETATM   20  C   UNK N   1      33.885  12.155   4.922  0.00  0.00     0.017 A 
HETATM   21  C   UNK N   1      35.075  12.869   5.037  0.00  0.00     0.004 A 
HETATM   22  C   UNK N   1      36.288  12.332   4.589  0.00  0.00    -0.043 A 
HETATM   23  C   UNK N   1      35.064  14.153   5.626  0.00  0.00     0.092 A 
HETATM   24  C   UNK N   1      36.374  10.970   3.979  0.00  0.00     0.049 C 
HETATM   25  C   UNK N   1      37.449  13.086   4.737  0.00  0.00     0.090 A 
HETATM   26  C   UNK N   1      37.366  14.351   5.320  0.00  0.00     0.288 A 
HETATM   27  O   UNK N   1      38.382  15.017   5.454  0.00  0.00    -0.260 OA
HETATM   28  O   UNK N   1      36.202  14.839   5.741  0.00  0.00    -0.275 OA
HETATM   29  C   UNK N   1      33.866  14.694   6.130  0.00  0.00     0.075 A 
ENDBRANCH  17  18
ENDBRANCH  11  17
BRANCH  12  30
HETATM   30  N   UNK N   1      31.579  17.356   6.919  0.00  0.00    -0.363 N 
HETATM   31  C   UNK N   1      32.130  17.261   8.082  0.00  0.00     0.107 C 
HETATM   32  C   UNK N   1      33.387  18.008   8.360  0.00  0.00     0.097 C 
ATOM     33  HN  UNK N   1      32.022  17.962   6.228  1.00  0.00     0.162 HD
BRANCH  31  34
HETATM   34  O   UNK N   1      31.576  16.512   9.058  0.00  0.00    -0.350 OA
HETATM   35  H   UNK N   1      31.418  16.560   9.981  0.00  0.00     0.219 HD
ENDBRANCH  31  34
ENDBRANCH  12  30
BRANCH  13  36
HETATM   36  O   UNK N   1      28.832  18.470   5.994  0.00  0.00    -0.391 OA
HETATM   37  H   UNK N   1      27.910  18.716   5.812  0.00  0.00     0.210 HD
ENDBRANCH  13  36
ENDBRANCH   7   8
ENDBRANCH   5   7
BRANCH   2  38
HETATM   38  N   UNK N   1      25.922  15.334   3.115  0.00  0.00    -0.363 N 
HETATM   39  C   UNK N   1      25.904  14.059   3.338  0.00  0.00     0.107 C 
HETATM   40  C   UNK N   1      25.697  13.111   2.208  0.00  0.00     0.097 C 
ATOM     41  HN  UNK N   1      25.780  15.667   2.162  1.00  0.00     0.162 HD
BRANCH  39  42
HETATM   42  O   UNK N   1      26.042  13.564   4.587  0.00  0.00    -0.350 OA
HETATM   43  H   UNK N   1      25.497  13.567   5.349  0.00  0.00     0.219 HD
ENDBRANCH  39  42
ENDBRANCH   2  38
BRANCH   3  44
HETATM   44  O   UNK N   1      23.877  15.640   4.913  0.00  0.00    -0.391 OA
HETATM   45  H   UNK N   1      24.131  14.734   5.144  0.00  0.00     0.210 HD
ENDBRANCH   3  44
BRANCH   1  46
HETATM   46  C   UNK N   1      25.129  20.093   3.316  0.00  0.00     0.198 C 
BRANCH  46  47
HETATM   47  O   UNK N   1      23.961  20.841   3.456  0.00  0.00    -0.398 OA
HETATM   48  H   UNK N   1      23.375  20.872   4.228  0.00  0.00     0.209 HD
ENDBRANCH  46  47
ENDBRANCH   1  46
BRANCH   4  49
HETATM   49  O   UNK N   1      23.064  18.424   5.465  0.00  0.00    -0.348 OA
BRANCH  49  50
HETATM   50  C   UNK N   1      21.795  18.649   4.809  0.00  0.00     0.286 C 
HETATM   51  C   UNK N   1      20.704  17.567   5.150  0.00  0.00     0.169 C 
HETATM   52  C   UNK N   1      19.967  17.109   3.857  0.00  0.00     0.177 C 
HETATM   53  C   UNK N   1      19.554  18.349   3.060  0.00  0.00     0.180 C 
HETATM   54  C   UNK N   1      20.831  19.142   2.695  0.00  0.00     0.179 C 
HETATM   55  O   UNK N   1      21.976  18.654   3.398  0.00  0.00    -0.349 OA
BRANCH  51  56
HETATM   56  N   UNK N   1      21.244  16.397   5.818  0.00  0.00    -0.363 N 
HETATM   57  C   UNK N   1      21.046  16.121   7.065  0.00  0.00     0.107 C 
HETATM   58  C   UNK N   1      20.202  16.995   7.946  0.00  0.00     0.097 C 
ATOM     59  HN  UNK N   1      21.814  15.753   5.270  1.00  0.00     0.162 HD
BRANCH  57  60
HETATM   60  O   UNK N   1      21.586  15.006   7.584  0.00  0.00    -0.350 OA
HETATM   61  H   UNK N   1      21.773  14.788   8.476  0.00  0.00     0.219 HD
ENDBRANCH  57  60
ENDBRANCH  51  56
BRANCH  52  62
HETATM   62  O   UNK N   1      18.847  16.338   4.178  0.00  0.00    -0.391 OA
HETATM   63  H   UNK N   1      18.010  16.333   3.690  0.00  0.00     0.210 HD
ENDBRANCH  52  62
BRANCH  53  64
HETATM   64  O   UNK N   1      18.864  17.994   1.896  0.00  0.00    -0.390 OA
HETATM   65  H   UNK N   1      19.332  17.599   1.144  0.00  0.00     0.210 HD
ENDBRANCH  53  64
BRANCH  54  66
HETATM   66  C   UNK N   1      20.634  20.661   2.843  0.00  0.00     0.198 C 
BRANCH  66  67
HETATM   67  O   UNK N   1      21.482  21.370   1.992  0.00  0.00    -0.398 OA
HETATM   68  H   UNK N   1      21.750  21.112   1.095  0.00  0.00     0.209 HD
ENDBRANCH  66  67
ENDBRANCH  54  66
ENDBRANCH  49  50
ENDBRANCH   4  49
TORSDOF 22
ENDMDL
MODEL 9
REMARK VINA RESULT:      -7.3      6.064     12.377
REMARK  22 active torsions:
REMARK  status: ('A' for Active; 'I' for Inactive)
REMARK    1  A    between atoms: C_19  and  C_9 
REMARK    2  A    between atoms: O_41  and  C_9 
REMARK    3  A    between atoms: C_20  and  C_10 
REMARK    4  A    between atoms: O_42  and  C_10 
REMARK    5  A    between atoms: C_21  and  C_11 
REMARK    6  A    between atoms: O_43  and  C_11 
REMARK    7  A    between atoms: O_44  and  C_13 
REMARK    8  A    between atoms: O_45  and  C_14 
REMARK    9  A    between atoms: O_46  and  C_15 
REMARK   10  A    between atoms: O_52  and  C_16 
REMARK   11  A    between atoms: C_23  and  N_35 
REMARK   12  A    between atoms: C_24  and  N_37 
REMARK   13  A    between atoms: C_25  and  N_39 
REMARK   14  A    between atoms: C_26  and  O_48 
REMARK   15  A    between atoms: C_27  and  O_49 
REMARK   16  A    between atoms: C_28  and  O_50 
REMARK   17  A    between atoms: C_29  and  O_51 
REMARK   18  A    between atoms: C_30  and  O_58 
REMARK   19  A    between atoms: C_31  and  O_57 
REMARK   20  A    between atoms: C_32  and  O_52 
REMARK   21  A    between atoms: C_33  and  O_57 
REMARK   22  A    between atoms: C_34  and  O_58 
ROOT
HETATM    1  C   UNK N   1      33.649  17.013   8.833  0.00  0.00     0.180 C 
HETATM    2  C   UNK N   1      33.992  14.100   8.593  0.00  0.00     0.169 C 
HETATM    3  C   UNK N   1      32.581  14.773   8.279  0.00  0.00     0.177 C 
HETATM    4  C   UNK N   1      32.656  16.278   7.883  0.00  0.00     0.186 C 
HETATM    5  C   UNK N   1      35.057  15.173   8.962  0.00  0.00     0.286 C 
HETATM    6  O   UNK N   1      34.357  16.132   9.643  0.00  0.00    -0.349 OA
ENDROOT
BRANCH   5   7
HETATM    7  O   UNK N   1      36.075  14.673   9.830  0.00  0.00    -0.348 OA
BRANCH   7   8
HETATM    8  C   UNK N   1      35.761  13.394  10.431  0.00  0.00     0.186 C 
HETATM    9  C   UNK N   1      37.032  12.422  10.574  0.00  0.00     0.180 C 
HETATM   10  O   UNK N   1      37.031  11.646  11.760  0.00  0.00    -0.349 OA
HETATM   11  C   UNK N   1      35.738  11.152  12.005  0.00  0.00     0.292 C 
HETATM   12  C   UNK N   1      34.908  12.294  12.638  0.00  0.00     0.170 C 
HETATM   13  C   UNK N   1      35.275  13.632  11.890  0.00  0.00     0.177 C 
BRANCH   9  14
HETATM   14  C   UNK N   1      37.338  11.460   9.407  0.00  0.00     0.198 C 
BRANCH  14  15
HETATM   15  O   UNK N   1      37.411  12.113   8.172  0.00  0.00    -0.398 OA
HETATM   16  H   UNK N   1      37.726  12.710   7.476  0.00  0.00     0.209 HD
ENDBRANCH  14  15
ENDBRANCH   9  14
BRANCH  11  17
HETATM   17  O   UNK N   1      35.807   9.932  12.669  0.00  0.00    -0.318 OA
BRANCH  17  18
HETATM   18  C   UNK N   1      37.012   9.414  13.073  0.00  0.00     0.074 A 
HETATM   19  C   UNK N   1      37.522   9.691  14.352  0.00  0.00     0.038 A 
HETATM   20  C   UNK N   1      38.788   9.281  14.745  0.00  0.00     0.017 A 
HETATM   21  C   UNK N   1      39.588   8.571  13.853  0.00  0.00     0.004 A 
HETATM   22  C   UNK N   1      40.890   8.189  14.193  0.00  0.00    -0.043 A 
HETATM   23  C   UNK N   1      39.084   8.242  12.574  0.00  0.00     0.092 A 
HETATM   24  C   UNK N   1      41.494   8.527  15.518  0.00  0.00     0.049 C 
HETATM   25  C   UNK N   1      41.649   7.489  13.258  0.00  0.00     0.090 A 
HETATM   26  C   UNK N   1      41.087   7.188  12.018  0.00  0.00     0.288 A 
HETATM   27  O   UNK N   1      41.749   6.575  11.193  0.00  0.00    -0.260 OA
HETATM   28  O   UNK N   1      39.847   7.565  11.715  0.00  0.00    -0.275 OA
HETATM   29  C   UNK N   1      37.796   8.658  12.189  0.00  0.00     0.075 A 
ENDBRANCH  17  18
ENDBRANCH  11  17
BRANCH  12  30
HETATM   30  N   UNK N   1      35.183  12.470  14.053  0.00  0.00    -0.363 N 
HETATM   31  C   UNK N   1      34.576  11.825  14.992  0.00  0.00     0.107 C 
HETATM   32  C   UNK N   1      34.958  12.067  16.410  0.00  0.00     0.097 C 
ATOM     33  HN  UNK N   1      35.900  13.145  14.321  1.00  0.00     0.162 HD
BRANCH  31  34
HETATM   34  O   UNK N   1      33.589  10.950  14.713  0.00  0.00    -0.350 OA
HETATM   35  H   UNK N   1      33.487  10.097  14.339  0.00  0.00     0.219 HD
ENDBRANCH  31  34
ENDBRANCH  12  30
BRANCH  13  36
HETATM   36  O   UNK N   1      34.201  14.522  11.939  0.00  0.00    -0.391 OA
HETATM   37  H   UNK N   1      33.959  15.253  11.348  0.00  0.00     0.210 HD
ENDBRANCH  13  36
ENDBRANCH   7   8
ENDBRANCH   5   7
BRANCH   2  38
HETATM   38  N   UNK N   1      34.488  13.254   7.517  0.00  0.00    -0.363 N 
HETATM   39  C   UNK N   1      34.083  12.036   7.346  0.00  0.00     0.107 C 
HETATM   40  C   UNK N   1      34.646  11.217   6.236  0.00  0.00     0.097 C 
ATOM     41  HN  UNK N   1      35.181  13.636   6.874  1.00  0.00     0.162 HD
BRANCH  39  42
HETATM   42  O   UNK N   1      33.135  11.495   8.140  0.00  0.00    -0.350 OA
HETATM   43  H   UNK N   1      32.311  11.081   7.975  0.00  0.00     0.219 HD
ENDBRANCH  39  42
ENDBRANCH   2  38
BRANCH   3  44
HETATM   44  O   UNK N   1      31.867  14.032   7.331  0.00  0.00    -0.391 OA
HETATM   45  H   UNK N   1      30.928  14.218   7.176  0.00  0.00     0.210 HD
ENDBRANCH   3  44
BRANCH   1  46
HETATM   46  C   UNK N   1      34.552  18.042   8.143  0.00  0.00     0.198 C 
BRANCH  46  47
HETATM   47  O   UNK N   1      34.485  17.923   6.756  0.00  0.00    -0.398 OA
HETATM   48  H   UNK N   1      34.725  18.595   6.098  0.00  0.00     0.209 HD
ENDBRANCH  46  47
ENDBRANCH   1  46
BRANCH   4  49
HETATM   49  O   UNK N   1      31.354  16.911   7.738  0.00  0.00    -0.348 OA
BRANCH  49  50
HETATM   50  C   UNK N   1      30.885  17.134   6.390  0.00  0.00     0.286 C 
HETATM   51  C   UNK N   1      29.360  17.515   6.304  0.00  0.00     0.169 C 
HETATM   52  C   UNK N   1      28.660  16.710   5.169  0.00  0.00     0.177 C 
HETATM   53  C   UNK N   1      29.516  16.798   3.903  0.00  0.00     0.180 C 
HETATM   54  C   UNK N   1      30.906  16.192   4.210  0.00  0.00     0.179 C 
HETATM   55  O   UNK N   1      31.085  15.962   5.610  0.00  0.00    -0.349 OA
BRANCH  51  56
HETATM   56  N   UNK N   1      28.641  17.292   7.544  0.00  0.00    -0.363 N 
HETATM   57  C   UNK N   1      28.023  18.218   8.198  0.00  0.00     0.107 C 
HETATM   58  C   UNK N   1      27.975  19.636   7.709  0.00  0.00     0.097 C 
ATOM     59  HN  UNK N   1      28.622  16.344   7.923  1.00  0.00     0.162 HD
BRANCH  57  60
HETATM   60  O   UNK N   1      27.381  17.903   9.336  0.00  0.00    -0.350 OA
HETATM   61  H   UNK N   1      27.699  17.872  10.217  0.00  0.00     0.219 HD
ENDBRANCH  57  60
ENDBRANCH  51  56
BRANCH  52  62
HETATM   62  O   UNK N   1      27.379  17.213   4.930  0.00  0.00    -0.391 OA
HETATM   63  H   UNK N   1      26.637  16.709   4.561  0.00  0.00     0.210 HD
ENDBRANCH  52  62
BRANCH  53  64
HETATM   64  O   UNK N   1      28.919  16.111   2.841  0.00  0.00    -0.390 OA
HETATM   65  H   UNK N   1      28.321  16.568   2.229  0.00  0.00     0.210 HD
ENDBRANCH  53  64
BRANCH  54  66
HETATM   66  C   UNK N   1      32.048  17.008   3.581  0.00  0.00     0.198 C 
BRANCH  66  67
HETATM   67  O   UNK N   1      31.845  17.200   2.214  0.00  0.00    -0.398 OA
HETATM   68  H   UNK N   1      31.374  16.603   1.610  0.00  0.00     0.209 HD
ENDBRANCH  66  67
ENDBRANCH  54  66
ENDBRANCH  49  50
ENDBRANCH   4  49
TORSDOF 22
ENDMDL
