MODEL 1
REMARK VINA RESULT:      -8.0      0.000      0.000
REMARK  14 active torsions:
REMARK  status: ('A' for Active; 'I' for Inactive)
REMARK    1  A    between atoms: C_11  and  C_10 
REMARK    2  A    between atoms: C_29  and  C_10 
REMARK    3  A    between atoms: N_33  and  C_11 
REMARK    4  A    between atoms: C_23  and  C_17 
REMARK    5  A    between atoms: C_28  and  C_17 
REMARK    6  A    between atoms: C_25  and  C_20 
REMARK    7  A    between atoms: C_26  and  C_21 
REMARK    8  A    between atoms: C_27  and  C_22 
REMARK    9  A    between atoms: C_31  and  C_24 
REMARK   10  A    between atoms: C_32  and  C_28 
REMARK   11  A    between atoms: C_28  and  N_37 
REMARK       I    between atoms: N_38  and  C_29 
REMARK   12  A    between atoms: S_44  and  C_30 
REMARK   13  A    between atoms: N_36  and  C_31 
REMARK       I    between atoms: N_39  and  C_32 
REMARK   14  A    between atoms: S_44  and  N_37 
ROOT
HETATM    1  C   UNK N   1      25.721  16.054   4.938  0.00  0.00     0.189 C 
ENDROOT
BRANCH   1   2
HETATM    2  C   UNK N   1      25.945  17.578   5.069  0.00  0.00     0.074 C 
BRANCH   2   3
HETATM    3  C   UNK N   1      25.353  18.584   4.129  0.00  0.00    -0.055 A 
HETATM    4  C   UNK N   1      26.199  19.543   3.559  0.00  0.00     0.007 A 
HETATM    5  C   UNK N   1      25.661  20.610   2.831  0.00  0.00     0.002 A 
HETATM    6  C   UNK N   1      24.274  20.752   2.724  0.00  0.00     0.015 A 
HETATM    7  C   UNK N   1      23.425  19.790   3.288  0.00  0.00     0.007 A 
HETATM    8  C   UNK N   1      23.978  18.701   3.959  0.00  0.00     0.022 A 
BRANCH   7   9
HETATM    9  C   UNK N   1      21.959  19.970   3.291  0.00  0.00     0.102 C 
HETATM   10  N   UNK N   1      21.223  19.241   4.051  0.00  0.00    -0.385 N 
HETATM   11  H   UNK N   1      20.277  19.468   4.202  0.00  0.00     0.157 HD
ATOM     12  HN  UNK N   1      21.623  18.418   4.501  1.00  0.00     0.157 HD
BRANCH   9  13
HETATM   13  N   UNK N   1      21.379  21.057   2.604  0.00  0.00    -0.385 N 
HETATM   14  H   UNK N   1      21.721  21.969   2.745  0.00  0.00     0.157 HD
HETATM   15  H   UNK N   1      20.631  20.904   1.983  0.00  0.00     0.157 HD
ENDBRANCH   9  13
ENDBRANCH   7   9
ENDBRANCH   2   3
ENDBRANCH   1   2
BRANCH   1  16
HETATM   16  C   UNK N   1      24.444  15.457   5.561  0.00  0.00     0.243 C 
HETATM   17  N   UNK N   1      23.363  15.109   4.794  0.00  0.00    -0.347 N 
HETATM   18  C   UNK N   1      23.436  15.109   3.349  0.00  0.00     0.145 C 
HETATM   19  C   UNK N   1      22.112  14.697   5.403  0.00  0.00     0.145 C 
HETATM   20  C   UNK N   1      22.298  15.904   2.747  0.00  0.00     0.145 C 
HETATM   21  N   UNK N   1      21.071  15.442   3.346  0.00  0.00    -0.349 N 
HETATM   22  C   UNK N   1      20.961  15.514   4.792  0.00  0.00     0.145 C 
HETATM   23  C   UNK N   1      20.087  14.873   2.594  0.00  0.00     0.221 C 
HETATM   24  O   UNK N   1      19.058  14.485   3.127  0.00  0.00    -0.273 OA
HETATM   25  O   UNK N   1      24.377  15.287   6.771  0.00  0.00    -0.271 OA
BRANCH  23  26
HETATM   26  C   UNK N   1      20.276  14.685   1.103  0.00  0.00     0.122 C 
BRANCH  26  27
HETATM   27  C   UNK N   1      19.164  15.326   0.283  0.00  0.00     0.120 C 
BRANCH  27  28
HETATM   28  N   UNK N   1      19.053  16.732   0.624  0.00  0.00    -0.430 N 
HETATM   29  H   UNK N   1      18.806  17.414  -0.093  0.00  0.00     0.149 HD
HETATM   30  H   UNK N   1      19.222  17.039   1.583  0.00  0.00     0.149 HD
ENDBRANCH  27  28
ENDBRANCH  26  27
ENDBRANCH  23  26
ENDBRANCH   1  16
BRANCH   1  31
HETATM   31  N   UNK N   1      26.890  15.464   5.586  0.00  0.00    -0.301 N 
HETATM   32  H   UNK N   1      26.839  14.677   6.233  0.00  0.00     0.173 HD
BRANCH  31  33
HETATM   33  S   UNK N   1      28.405  16.261   5.128  0.00  0.00     0.260 S 
HETATM   34  O   UNK N   1      28.734  15.803   3.698  0.00  0.00    -0.200 OA
HETATM   35  O   UNK N   1      28.997  14.909   5.559  0.00  0.00    -0.200 OA
BRANCH  33  36
HETATM   36  C   UNK N   1      29.819  16.798   6.124  0.00  0.00     0.092 A 
HETATM   37  C   UNK N   1      31.127  16.601   5.624  0.00  0.00    -0.030 A 
HETATM   38  C   UNK N   1      32.230  16.880   6.437  0.00  0.00     0.016 A 
HETATM   39  C   UNK N   1      32.061  17.366   7.734  0.00  0.00    -0.054 A 
HETATM   40  C   UNK N   1      30.770  17.657   8.191  0.00  0.00     0.016 A 
HETATM   41  C   UNK N   1      29.647  17.387   7.398  0.00  0.00    -0.030 A 
BRANCH  37  42
HETATM   42  C   UNK N   1      31.352  16.102   4.224  0.00  0.00     0.012 C 
HETATM   43  C   UNK N   1      32.144  14.812   4.193  0.00  0.00     0.015 C 
HETATM   44  C   UNK N   1      32.023  17.160   3.364  0.00  0.00     0.015 C 
ENDBRANCH  37  42
BRANCH  39  45
HETATM   45  C   UNK N   1      33.275  17.535   8.612  0.00  0.00     0.010 C 
HETATM   46  C   UNK N   1      33.873  16.213   9.071  0.00  0.00     0.015 C 
HETATM   47  C   UNK N   1      34.353  18.306   7.866  0.00  0.00     0.015 C 
ENDBRANCH  39  45
BRANCH  41  48
HETATM   48  C   UNK N   1      28.280  17.740   7.908  0.00  0.00     0.012 C 
HETATM   49  C   UNK N   1      27.960  19.195   7.607  0.00  0.00     0.015 C 
HETATM   50  C   UNK N   1      28.142  17.479   9.396  0.00  0.00     0.015 C 
ENDBRANCH  41  48
ENDBRANCH  33  36
ENDBRANCH  31  33
ENDBRANCH   1  31
TORSDOF 14
ENDMDL
MODEL 2
REMARK VINA RESULT:      -7.8      2.980      5.711
REMARK  14 active torsions:
REMARK  status: ('A' for Active; 'I' for Inactive)
REMARK    1  A    between atoms: C_11  and  C_10 
REMARK    2  A    between atoms: C_29  and  C_10 
REMARK    3  A    between atoms: N_33  and  C_11 
REMARK    4  A    between atoms: C_23  and  C_17 
REMARK    5  A    between atoms: C_28  and  C_17 
REMARK    6  A    between atoms: C_25  and  C_20 
REMARK    7  A    between atoms: C_26  and  C_21 
REMARK    8  A    between atoms: C_27  and  C_22 
REMARK    9  A    between atoms: C_31  and  C_24 
REMARK   10  A    between atoms: C_32  and  C_28 
REMARK   11  A    between atoms: C_28  and  N_37 
REMARK       I    between atoms: N_38  and  C_29 
REMARK   12  A    between atoms: S_44  and  C_30 
REMARK   13  A    between atoms: N_36  and  C_31 
REMARK       I    between atoms: N_39  and  C_32 
REMARK   14  A    between atoms: S_44  and  N_37 
ROOT
HETATM    1  C   UNK N   1      24.083  15.052   5.532  0.00  0.00     0.189 C 
ENDROOT
BRANCH   1   2
HETATM    2  C   UNK N   1      24.178  14.005   6.665  0.00  0.00     0.074 C 
BRANCH   2   3
HETATM    3  C   UNK N   1      23.128  13.833   7.721  0.00  0.00    -0.055 A 
HETATM    4  C   UNK N   1      21.988  14.643   7.666  0.00  0.00     0.007 A 
HETATM    5  C   UNK N   1      21.079  14.650   8.730  0.00  0.00     0.002 A 
HETATM    6  C   UNK N   1      21.342  13.892   9.876  0.00  0.00     0.015 A 
HETATM    7  C   UNK N   1      22.480  13.075   9.931  0.00  0.00     0.007 A 
HETATM    8  C   UNK N   1      23.344  13.035   8.839  0.00  0.00     0.022 A 
BRANCH   7   9
HETATM    9  C   UNK N   1      22.846  12.354  11.167  0.00  0.00     0.102 C 
HETATM   10  N   UNK N   1      21.955  11.698  11.817  0.00  0.00    -0.385 N 
HETATM   11  H   UNK N   1      22.212  11.069  12.530  0.00  0.00     0.157 HD
ATOM     12  HN  UNK N   1      20.968  11.832  11.594  1.00  0.00     0.157 HD
BRANCH   9  13
HETATM   13  N   UNK N   1      24.202  12.230  11.537  0.00  0.00    -0.385 N 
HETATM   14  H   UNK N   1      24.457  11.652  12.292  0.00  0.00     0.157 HD
HETATM   15  H   UNK N   1      24.895  12.721  11.039  0.00  0.00     0.157 HD
ENDBRANCH   9  13
ENDBRANCH   7   9
ENDBRANCH   2   3
ENDBRANCH   1   2
BRANCH   1  16
HETATM   16  C   UNK N   1      23.021  14.836   4.437  0.00  0.00     0.243 C 
HETATM   17  N   UNK N   1      22.317  15.880   3.898  0.00  0.00    -0.347 N 
HETATM   18  C   UNK N   1      22.667  17.254   4.195  0.00  0.00     0.145 C 
HETATM   19  C   UNK N   1      21.212  15.651   2.987  0.00  0.00     0.145 C 
HETATM   20  C   UNK N   1      21.457  18.033   4.663  0.00  0.00     0.145 C 
HETATM   21  N   UNK N   1      20.394  17.812   3.714  0.00  0.00    -0.349 N 
HETATM   22  C   UNK N   1      19.985  16.441   3.471  0.00  0.00     0.145 C 
HETATM   23  C   UNK N   1      19.857  18.843   3.001  0.00  0.00     0.221 C 
HETATM   24  O   UNK N   1      18.960  18.629   2.200  0.00  0.00    -0.273 OA
HETATM   25  O   UNK N   1      22.786  13.705   4.029  0.00  0.00    -0.271 OA
BRANCH  23  26
HETATM   26  C   UNK N   1      20.390  20.250   3.172  0.00  0.00     0.122 C 
BRANCH  26  27
HETATM   27  C   UNK N   1      21.219  20.715   1.982  0.00  0.00     0.120 C 
BRANCH  27  28
HETATM   28  N   UNK N   1      20.349  20.960   0.846  0.00  0.00    -0.430 N 
HETATM   29  H   UNK N   1      20.736  20.995  -0.096  0.00  0.00     0.149 HD
HETATM   30  H   UNK N   1      19.348  21.099   0.992  0.00  0.00     0.149 HD
ENDBRANCH  27  28
ENDBRANCH  26  27
ENDBRANCH  23  26
ENDBRANCH   1  16
BRANCH   1  31
HETATM   31  N   UNK N   1      25.410  15.039   4.921  0.00  0.00    -0.301 N 
HETATM   32  H   UNK N   1      25.670  14.423   4.151  0.00  0.00     0.173 HD
BRANCH  31  33
HETATM   33  S   UNK N   1      26.520  16.205   5.662  0.00  0.00     0.260 S 
HETATM   34  O   UNK N   1      25.842  17.582   5.572  0.00  0.00    -0.200 OA
HETATM   35  O   UNK N   1      26.909  16.443   4.193  0.00  0.00    -0.200 OA
BRANCH  33  36
HETATM   36  C   UNK N   1      28.327  16.227   5.777  0.00  0.00     0.092 A 
HETATM   37  C   UNK N   1      28.947  17.075   6.723  0.00  0.00    -0.030 A 
HETATM   38  C   UNK N   1      30.338  17.209   6.730  0.00  0.00     0.016 A 
HETATM   39  C   UNK N   1      31.131  16.504   5.823  0.00  0.00    -0.054 A 
HETATM   40  C   UNK N   1      30.525  15.588   4.954  0.00  0.00     0.016 A 
HETATM   41  C   UNK N   1      29.132  15.435   4.926  0.00  0.00    -0.030 A 
BRANCH  37  42
HETATM   42  C   UNK N   1      28.129  17.831   7.733  0.00  0.00     0.012 C 
HETATM   43  C   UNK N   1      28.129  19.323   7.471  0.00  0.00     0.015 C 
HETATM   44  C   UNK N   1      28.597  17.540   9.150  0.00  0.00     0.015 C 
ENDBRANCH  37  42
BRANCH  39  45
HETATM   45  C   UNK N   1      32.614  16.775   5.788  0.00  0.00     0.010 C 
HETATM   46  C   UNK N   1      33.055  17.550   4.555  0.00  0.00     0.015 C 
HETATM   47  C   UNK N   1      33.025  17.572   7.017  0.00  0.00     0.015 C 
ENDBRANCH  39  45
BRANCH  41  48
HETATM   48  C   UNK N   1      28.520  14.421   4.004  0.00  0.00     0.012 C 
HETATM   49  C   UNK N   1      28.597  13.032   4.614  0.00  0.00     0.015 C 
HETATM   50  C   UNK N   1      29.178  14.423   2.637  0.00  0.00     0.015 C 
ENDBRANCH  41  48
ENDBRANCH  33  36
ENDBRANCH  31  33
ENDBRANCH   1  31
TORSDOF 14
ENDMDL
MODEL 3
REMARK VINA RESULT:      -7.8      3.989      9.881
REMARK  14 active torsions:
REMARK  status: ('A' for Active; 'I' for Inactive)
REMARK    1  A    between atoms: C_11  and  C_10 
REMARK    2  A    between atoms: C_29  and  C_10 
REMARK    3  A    between atoms: N_33  and  C_11 
REMARK    4  A    between atoms: C_23  and  C_17 
REMARK    5  A    between atoms: C_28  and  C_17 
REMARK    6  A    between atoms: C_25  and  C_20 
REMARK    7  A    between atoms: C_26  and  C_21 
REMARK    8  A    between atoms: C_27  and  C_22 
REMARK    9  A    between atoms: C_31  and  C_24 
REMARK   10  A    between atoms: C_32  and  C_28 
REMARK   11  A    between atoms: C_28  and  N_37 
REMARK       I    between atoms: N_38  and  C_29 
REMARK   12  A    between atoms: S_44  and  C_30 
REMARK   13  A    between atoms: N_36  and  C_31 
REMARK       I    between atoms: N_39  and  C_32 
REMARK   14  A    between atoms: S_44  and  N_37 
ROOT
HETATM    1  C   UNK N   1      30.522  15.679   5.159  0.00  0.00     0.189 C 
ENDROOT
BRANCH   1   2
HETATM    2  C   UNK N   1      29.310  15.903   6.092  0.00  0.00     0.074 C 
BRANCH   2   3
HETATM    3  C   UNK N   1      28.946  17.239   6.666  0.00  0.00    -0.055 A 
HETATM    4  C   UNK N   1      28.982  17.400   8.057  0.00  0.00     0.007 A 
HETATM    5  C   UNK N   1      28.470  18.563   8.643  0.00  0.00     0.002 A 
HETATM    6  C   UNK N   1      27.866  19.538   7.844  0.00  0.00     0.015 A 
HETATM    7  C   UNK N   1      27.833  19.382   6.451  0.00  0.00     0.007 A 
HETATM    8  C   UNK N   1      28.401  18.246   5.878  0.00  0.00     0.022 A 
BRANCH   7   9
HETATM    9  C   UNK N   1      27.104  20.335   5.591  0.00  0.00     0.102 C 
HETATM   10  N   UNK N   1      26.534  21.363   6.108  0.00  0.00    -0.385 N 
HETATM   11  H   UNK N   1      26.205  22.097   5.539  0.00  0.00     0.157 HD
ATOM     12  HN  UNK N   1      26.419  21.420   7.120  1.00  0.00     0.157 HD
BRANCH   9  13
HETATM   13  N   UNK N   1      27.182  20.223   4.186  0.00  0.00    -0.385 N 
HETATM   14  H   UNK N   1      27.673  19.474   3.777  0.00  0.00     0.157 HD
HETATM   15  H   UNK N   1      26.746  20.895   3.614  0.00  0.00     0.157 HD
ENDBRANCH   9  13
ENDBRANCH   7   9
ENDBRANCH   2   3
ENDBRANCH   1   2
BRANCH   1  16
HETATM   16  C   UNK N   1      31.706  16.660   5.266  0.00  0.00     0.243 C 
HETATM   17  N   UNK N   1      32.594  16.609   6.308  0.00  0.00    -0.347 N 
HETATM   18  C   UNK N   1      32.575  15.515   7.257  0.00  0.00     0.145 C 
HETATM   19  C   UNK N   1      33.607  17.632   6.483  0.00  0.00     0.145 C 
HETATM   20  C   UNK N   1      32.529  16.031   8.679  0.00  0.00     0.145 C 
HETATM   21  N   UNK N   1      33.572  17.016   8.825  0.00  0.00    -0.349 N 
HETATM   22  C   UNK N   1      33.551  18.156   7.928  0.00  0.00     0.145 C 
HETATM   23  C   UNK N   1      34.594  16.837   9.711  0.00  0.00     0.221 C 
HETATM   24  O   UNK N   1      35.468  17.685   9.813  0.00  0.00    -0.273 OA
HETATM   25  O   UNK N   1      31.867  17.517   4.406  0.00  0.00    -0.271 OA
BRANCH  23  26
HETATM   26  C   UNK N   1      34.671  15.576  10.545  0.00  0.00     0.122 C 
BRANCH  26  27
HETATM   27  C   UNK N   1      35.843  14.684  10.158  0.00  0.00     0.120 C 
BRANCH  27  28
HETATM   28  N   UNK N   1      37.075  15.238  10.691  0.00  0.00    -0.430 N 
HETATM   29  H   UNK N   1      37.052  15.829  11.522  0.00  0.00     0.149 HD
HETATM   30  H   UNK N   1      37.965  15.035  10.234  0.00  0.00     0.149 HD
ENDBRANCH  27  28
ENDBRANCH  26  27
ENDBRANCH  23  26
ENDBRANCH   1  16
BRANCH   1  31
HETATM   31  N   UNK N   1      29.957  15.756   3.814  0.00  0.00    -0.301 N 
HETATM   32  H   UNK N   1      29.892  16.621   3.278  0.00  0.00     0.173 HD
BRANCH  31  33
HETATM   33  S   UNK N   1      29.395  14.185   3.214  0.00  0.00     0.260 S 
HETATM   34  O   UNK N   1      30.569  13.558   2.446  0.00  0.00    -0.200 OA
HETATM   35  O   UNK N   1      29.160  15.001   1.932  0.00  0.00    -0.200 OA
BRANCH  33  36
HETATM   36  C   UNK N   1      27.747  13.612   2.732  0.00  0.00     0.092 A 
HETATM   37  C   UNK N   1      27.622  12.400   2.015  0.00  0.00    -0.030 A 
HETATM   38  C   UNK N   1      26.375  12.015   1.514  0.00  0.00     0.016 A 
HETATM   39  C   UNK N   1      25.243  12.803   1.723  0.00  0.00    -0.054 A 
HETATM   40  C   UNK N   1      25.348  13.951   2.518  0.00  0.00     0.016 A 
HETATM   41  C   UNK N   1      26.586  14.361   3.032  0.00  0.00    -0.030 A 
BRANCH  37  42
HETATM   42  C   UNK N   1      28.812  11.510   1.790  0.00  0.00     0.012 C 
HETATM   43  C   UNK N   1      28.986  11.139   0.332  0.00  0.00     0.015 C 
HETATM   44  C   UNK N   1      28.736  10.260   2.652  0.00  0.00     0.015 C 
ENDBRANCH  37  42
BRANCH  39  45
HETATM   45  C   UNK N   1      23.948  12.409   1.059  0.00  0.00     0.010 C 
HETATM   46  C   UNK N   1      23.327  13.530   0.238  0.00  0.00     0.015 C 
HETATM   47  C   UNK N   1      24.177  11.222   0.137  0.00  0.00     0.015 C 
ENDBRANCH  39  45
BRANCH  41  48
HETATM   48  C   UNK N   1      26.655  15.579   3.907  0.00  0.00     0.012 C 
HETATM   49  C   UNK N   1      25.793  15.395   5.144  0.00  0.00     0.015 C 
HETATM   50  C   UNK N   1      26.237  16.836   3.168  0.00  0.00     0.015 C 
ENDBRANCH  41  48
ENDBRANCH  33  36
ENDBRANCH  31  33
ENDBRANCH   1  31
TORSDOF 14
ENDMDL
MODEL 4
REMARK VINA RESULT:      -7.8      2.282      3.870
REMARK  14 active torsions:
REMARK  status: ('A' for Active; 'I' for Inactive)
REMARK    1  A    between atoms: C_11  and  C_10 
REMARK    2  A    between atoms: C_29  and  C_10 
REMARK    3  A    between atoms: N_33  and  C_11 
REMARK    4  A    between atoms: C_23  and  C_17 
REMARK    5  A    between atoms: C_28  and  C_17 
REMARK    6  A    between atoms: C_25  and  C_20 
REMARK    7  A    between atoms: C_26  and  C_21 
REMARK    8  A    between atoms: C_27  and  C_22 
REMARK    9  A    between atoms: C_31  and  C_24 
REMARK   10  A    between atoms: C_32  and  C_28 
REMARK   11  A    between atoms: C_28  and  N_37 
REMARK       I    between atoms: N_38  and  C_29 
REMARK   12  A    between atoms: S_44  and  C_30 
REMARK   13  A    between atoms: N_36  and  C_31 
REMARK       I    between atoms: N_39  and  C_32 
REMARK   14  A    between atoms: S_44  and  N_37 
ROOT
HETATM    1  C   UNK N   1      26.169  16.164   4.452  0.00  0.00     0.189 C 
ENDROOT
BRANCH   1   2
HETATM    2  C   UNK N   1      25.483  17.456   4.953  0.00  0.00     0.074 C 
BRANCH   2   3
HETATM    3  C   UNK N   1      24.918  18.499   4.038  0.00  0.00    -0.055 A 
HETATM    4  C   UNK N   1      25.788  19.452   3.494  0.00  0.00     0.007 A 
HETATM    5  C   UNK N   1      25.278  20.550   2.793  0.00  0.00     0.002 A 
HETATM    6  C   UNK N   1      23.895  20.729   2.688  0.00  0.00     0.015 A 
HETATM    7  C   UNK N   1      23.021  19.774   3.227  0.00  0.00     0.007 A 
HETATM    8  C   UNK N   1      23.546  18.656   3.870  0.00  0.00     0.022 A 
BRANCH   7   9
HETATM    9  C   UNK N   1      21.561  19.990   3.234  0.00  0.00     0.102 C 
HETATM   10  N   UNK N   1      20.795  19.193   3.888  0.00  0.00    -0.385 N 
HETATM   11  H   UNK N   1      19.852  19.423   4.054  0.00  0.00     0.157 HD
ATOM     12  HN  UNK N   1      21.168  18.310   4.237  1.00  0.00     0.157 HD
BRANCH   9  13
HETATM   13  N   UNK N   1      21.018  21.170   2.680  0.00  0.00    -0.385 N 
HETATM   14  H   UNK N   1      21.111  22.027   3.155  0.00  0.00     0.157 HD
HETATM   15  H   UNK N   1      20.545  21.135   1.818  0.00  0.00     0.157 HD
ENDBRANCH   9  13
ENDBRANCH   7   9
ENDBRANCH   2   3
ENDBRANCH   1   2
BRANCH   1  16
HETATM   16  C   UNK N   1      25.285  14.925   4.211  0.00  0.00     0.243 C 
HETATM   17  N   UNK N   1      24.673  14.263   5.243  0.00  0.00    -0.347 N 
HETATM   18  C   UNK N   1      24.673  14.805   6.586  0.00  0.00     0.145 C 
HETATM   19  C   UNK N   1      23.976  13.011   5.024  0.00  0.00     0.145 C 
HETATM   20  C   UNK N   1      25.157  13.777   7.586  0.00  0.00     0.145 C 
HETATM   21  N   UNK N   1      24.417  12.560   7.363  0.00  0.00    -0.349 N 
HETATM   22  C   UNK N   1      24.478  11.969   6.038  0.00  0.00     0.145 C 
HETATM   23  C   UNK N   1      23.615  12.034   8.331  0.00  0.00     0.221 C 
HETATM   24  O   UNK N   1      22.994  11.003   8.116  0.00  0.00    -0.273 OA
HETATM   25  O   UNK N   1      25.119  14.506   3.072  0.00  0.00    -0.271 OA
BRANCH  23  26
HETATM   26  C   UNK N   1      23.460  12.738   9.662  0.00  0.00     0.122 C 
BRANCH  26  27
HETATM   27  C   UNK N   1      24.365  12.160  10.743  0.00  0.00     0.120 C 
BRANCH  27  28
HETATM   28  N   UNK N   1      25.463  13.073  11.001  0.00  0.00    -0.430 N 
HETATM   29  H   UNK N   1      26.028  12.968  11.844  0.00  0.00     0.149 HD
HETATM   30  H   UNK N   1      25.670  13.822  10.339  0.00  0.00     0.149 HD
ENDBRANCH  27  28
ENDBRANCH  26  27
ENDBRANCH  23  26
ENDBRANCH   1  16
BRANCH   1  31
HETATM   31  N   UNK N   1      27.152  15.856   5.488  0.00  0.00    -0.301 N 
HETATM   32  H   UNK N   1      26.929  15.352   6.346  0.00  0.00     0.173 HD
BRANCH  31  33
HETATM   33  S   UNK N   1      28.774  16.455   5.095  0.00  0.00     0.260 S 
HETATM   34  O   UNK N   1      29.167  15.821   3.751  0.00  0.00    -0.200 OA
HETATM   35  O   UNK N   1      29.185  15.104   5.705  0.00  0.00    -0.200 OA
BRANCH  33  36
HETATM   36  C   UNK N   1      30.151  16.955   6.159  0.00  0.00     0.092 A 
HETATM   37  C   UNK N   1      31.476  16.790   5.693  0.00  0.00    -0.030 A 
HETATM   38  C   UNK N   1      32.550  17.040   6.552  0.00  0.00     0.016 A 
HETATM   39  C   UNK N   1      32.336  17.465   7.864  0.00  0.00    -0.054 A 
HETATM   40  C   UNK N   1      31.029  17.725   8.293  0.00  0.00     0.016 A 
HETATM   41  C   UNK N   1      29.933  17.483   7.452  0.00  0.00    -0.030 A 
BRANCH  37  42
HETATM   42  C   UNK N   1      31.749  16.359   4.279  0.00  0.00     0.012 C 
HETATM   43  C   UNK N   1      32.579  15.094   4.215  0.00  0.00     0.015 C 
HETATM   44  C   UNK N   1      32.409  17.471   3.481  0.00  0.00     0.015 C 
ENDBRANCH  37  42
BRANCH  39  45
HETATM   45  C   UNK N   1      33.520  17.601   8.787  0.00  0.00     0.010 C 
HETATM   46  C   UNK N   1      34.152  16.267   9.156  0.00  0.00     0.015 C 
HETATM   47  C   UNK N   1      34.589  18.465   8.137  0.00  0.00     0.015 C 
ENDBRANCH  39  45
BRANCH  41  48
HETATM   48  C   UNK N   1      28.548  17.803   7.934  0.00  0.00     0.012 C 
HETATM   49  C   UNK N   1      28.151  19.209   7.515  0.00  0.00     0.015 C 
HETATM   50  C   UNK N   1      28.420  17.658   9.439  0.00  0.00     0.015 C 
ENDBRANCH  41  48
ENDBRANCH  33  36
ENDBRANCH  31  33
ENDBRANCH   1  31
TORSDOF 14
ENDMDL
MODEL 5
REMARK VINA RESULT:      -7.7      3.088      5.683
REMARK  14 active torsions:
REMARK  status: ('A' for Active; 'I' for Inactive)
REMARK    1  A    between atoms: C_11  and  C_10 
REMARK    2  A    between atoms: C_29  and  C_10 
REMARK    3  A    between atoms: N_33  and  C_11 
REMARK    4  A    between atoms: C_23  and  C_17 
REMARK    5  A    between atoms: C_28  and  C_17 
REMARK    6  A    between atoms: C_25  and  C_20 
REMARK    7  A    between atoms: C_26  and  C_21 
REMARK    8  A    between atoms: C_27  and  C_22 
REMARK    9  A    between atoms: C_31  and  C_24 
REMARK   10  A    between atoms: C_32  and  C_28 
REMARK   11  A    between atoms: C_28  and  N_37 
REMARK       I    between atoms: N_38  and  C_29 
REMARK   12  A    between atoms: S_44  and  C_30 
REMARK   13  A    between atoms: N_36  and  C_31 
REMARK       I    between atoms: N_39  and  C_32 
REMARK   14  A    between atoms: S_44  and  N_37 
ROOT
HETATM    1  C   UNK N   1      22.203  17.465   5.084  0.00  0.00     0.189 C 
ENDROOT
BRANCH   1   2
HETATM    2  C   UNK N   1      21.512  18.148   3.882  0.00  0.00     0.074 C 
BRANCH   2   3
HETATM    3  C   UNK N   1      21.093  17.415   2.644  0.00  0.00    -0.055 A 
HETATM    4  C   UNK N   1      20.331  18.098   1.689  0.00  0.00     0.007 A 
HETATM    5  C   UNK N   1      19.761  17.403   0.617  0.00  0.00     0.002 A 
HETATM    6  C   UNK N   1      19.901  16.014   0.533  0.00  0.00     0.015 A 
HETATM    7  C   UNK N   1      20.669  15.328   1.484  0.00  0.00     0.007 A 
HETATM    8  C   UNK N   1      21.279  16.043   2.512  0.00  0.00     0.022 A 
BRANCH   7   9
HETATM    9  C   UNK N   1      20.742  13.853   1.490  0.00  0.00     0.102 C 
HETATM   10  N   UNK N   1      21.581  13.253   2.255  0.00  0.00    -0.385 N 
HETATM   11  H   UNK N   1      21.519  12.282   2.407  0.00  0.00     0.157 HD
ATOM     12  HN  UNK N   1      22.321  13.788   2.709  1.00  0.00     0.157 HD
BRANCH   9  13
HETATM   13  N   UNK N   1      19.774  13.095   0.797  0.00  0.00    -0.385 N 
HETATM   14  H   UNK N   1      19.608  13.260  -0.158  0.00  0.00     0.157 HD
HETATM   15  H   UNK N   1      19.264  12.399   1.271  0.00  0.00     0.157 HD
ENDBRANCH   9  13
ENDBRANCH   7   9
ENDBRANCH   2   3
ENDBRANCH   1   2
BRANCH   1  16
HETATM   16  C   UNK N   1      21.513  17.555   6.460  0.00  0.00     0.243 C 
HETATM   17  N   UNK N   1      21.506  16.500   7.334  0.00  0.00    -0.347 N 
HETATM   18  C   UNK N   1      22.305  15.317   7.089  0.00  0.00     0.145 C 
HETATM   19  C   UNK N   1      20.723  16.539   8.553  0.00  0.00     0.145 C 
HETATM   20  C   UNK N   1      21.464  14.063   7.187  0.00  0.00     0.145 C 
HETATM   21  N   UNK N   1      20.729  14.120   8.427  0.00  0.00    -0.349 N 
HETATM   22  C   UNK N   1      19.865  15.266   8.644  0.00  0.00     0.145 C 
HETATM   23  C   UNK N   1      20.911  13.182   9.399  0.00  0.00     0.221 C 
HETATM   24  O   UNK N   1      20.279  13.255  10.443  0.00  0.00    -0.273 OA
HETATM   25  O   UNK N   1      20.948  18.589   6.792  0.00  0.00    -0.271 OA
BRANCH  23  26
HETATM   26  C   UNK N   1      21.917  12.067   9.208  0.00  0.00     0.122 C 
BRANCH  26  27
HETATM   27  C   UNK N   1      23.022  12.085  10.255  0.00  0.00     0.120 C 
BRANCH  27  28
HETATM   28  N   UNK N   1      22.522  11.540  11.504  0.00  0.00    -0.430 N 
HETATM   29  H   UNK N   1      23.173  11.248  12.232  0.00  0.00     0.149 HD
HETATM   30  H   UNK N   1      21.516  11.451  11.654  0.00  0.00     0.149 HD
ENDBRANCH  27  28
ENDBRANCH  26  27
ENDBRANCH  23  26
ENDBRANCH   1  16
BRANCH   1  31
HETATM   31  N   UNK N   1      23.510  18.114   5.162  0.00  0.00    -0.301 N 
HETATM   32  H   UNK N   1      23.678  18.986   5.663  0.00  0.00     0.173 HD
BRANCH  31  33
HETATM   33  S   UNK N   1      24.771  17.225   4.289  0.00  0.00     0.260 S 
HETATM   34  O   UNK N   1      24.257  15.788   4.108  0.00  0.00    -0.200 OA
HETATM   35  O   UNK N   1      25.139  16.777   5.714  0.00  0.00    -0.200 OA
BRANCH  33  36
HETATM   36  C   UNK N   1      26.571  17.423   4.265  0.00  0.00     0.092 A 
HETATM   37  C   UNK N   1      27.383  16.303   3.972  0.00  0.00    -0.030 A 
HETATM   38  C   UNK N   1      28.772  16.403   4.087  0.00  0.00     0.016 A 
HETATM   39  C   UNK N   1      29.376  17.600   4.473  0.00  0.00    -0.054 A 
HETATM   40  C   UNK N   1      28.580  18.736   4.664  0.00  0.00     0.016 A 
HETATM   41  C   UNK N   1      27.184  18.663   4.557  0.00  0.00    -0.030 A 
BRANCH  37  42
HETATM   42  C   UNK N   1      26.772  15.002   3.529  0.00  0.00     0.012 C 
HETATM   43  C   UNK N   1      27.249  13.831   4.361  0.00  0.00     0.015 C 
HETATM   44  C   UNK N   1      27.031  14.748   2.053  0.00  0.00     0.015 C 
ENDBRANCH  37  42
BRANCH  39  45
HETATM   45  C   UNK N   1      30.866  17.624   4.701  0.00  0.00     0.010 C 
HETATM   46  C   UNK N   1      31.281  17.013   6.032  0.00  0.00     0.015 C 
HETATM   47  C   UNK N   1      31.574  16.862   3.592  0.00  0.00     0.015 C 
ENDBRANCH  39  45
BRANCH  41  48
HETATM   48  C   UNK N   1      26.364  19.908   4.737  0.00  0.00     0.012 C 
HETATM   49  C   UNK N   1      26.116  20.581   3.397  0.00  0.00     0.015 C 
HETATM   50  C   UNK N   1      27.017  20.887   5.694  0.00  0.00     0.015 C 
ENDBRANCH  41  48
ENDBRANCH  33  36
ENDBRANCH  31  33
ENDBRANCH   1  31
TORSDOF 14
ENDMDL
MODEL 6
REMARK VINA RESULT:      -7.7      2.808      4.930
REMARK  14 active torsions:
REMARK  status: ('A' for Active; 'I' for Inactive)
REMARK    1  A    between atoms: C_11  and  C_10 
REMARK    2  A    between atoms: C_29  and  C_10 
REMARK    3  A    between atoms: N_33  and  C_11 
REMARK    4  A    between atoms: C_23  and  C_17 
REMARK    5  A    between atoms: C_28  and  C_17 
REMARK    6  A    between atoms: C_25  and  C_20 
REMARK    7  A    between atoms: C_26  and  C_21 
REMARK    8  A    between atoms: C_27  and  C_22 
REMARK    9  A    between atoms: C_31  and  C_24 
REMARK   10  A    between atoms: C_32  and  C_28 
REMARK   11  A    between atoms: C_28  and  N_37 
REMARK       I    between atoms: N_38  and  C_29 
REMARK   12  A    between atoms: S_44  and  C_30 
REMARK   13  A    between atoms: N_36  and  C_31 
REMARK       I    between atoms: N_39  and  C_32 
REMARK   14  A    between atoms: S_44  and  N_37 
ROOT
HETATM    1  C   UNK N   1      24.054  15.825   5.132  0.00  0.00     0.189 C 
ENDROOT
BRANCH   1   2
HETATM    2  C   UNK N   1      23.841  16.202   3.648  0.00  0.00     0.074 C 
BRANCH   2   3
HETATM    3  C   UNK N   1      22.729  15.651   2.808  0.00  0.00    -0.055 A 
HETATM    4  C   UNK N   1      22.928  14.428   2.155  0.00  0.00     0.007 A 
HETATM    5  C   UNK N   1      21.997  13.973   1.215  0.00  0.00     0.002 A 
HETATM    6  C   UNK N   1      20.897  14.770   0.881  0.00  0.00     0.015 A 
HETATM    7  C   UNK N   1      20.692  15.992   1.537  0.00  0.00     0.007 A 
HETATM    8  C   UNK N   1      21.596  16.403   2.514  0.00  0.00     0.022 A 
BRANCH   7   9
HETATM    9  C   UNK N   1      19.608  16.908   1.129  0.00  0.00     0.102 C 
HETATM   10  N   UNK N   1      18.932  16.670   0.063  0.00  0.00    -0.385 N 
HETATM   11  H   UNK N   1      18.098  17.159  -0.124  0.00  0.00     0.157 HD
ATOM     12  HN  UNK N   1      19.264  15.968  -0.598  1.00  0.00     0.157 HD
BRANCH   9  13
HETATM   13  N   UNK N   1      19.189  17.939   1.997  0.00  0.00    -0.385 N 
HETATM   14  H   UNK N   1      18.275  17.937   2.362  0.00  0.00     0.157 HD
HETATM   15  H   UNK N   1      19.812  18.662   2.237  0.00  0.00     0.157 HD
ENDBRANCH   9  13
ENDBRANCH   7   9
ENDBRANCH   2   3
ENDBRANCH   1   2
BRANCH   1  16
HETATM   16  C   UNK N   1      22.904  16.103   6.119  0.00  0.00     0.243 C 
HETATM   17  N   UNK N   1      22.661  15.287   7.192  0.00  0.00    -0.347 N 
HETATM   18  C   UNK N   1      23.584  14.233   7.558  0.00  0.00     0.145 C 
HETATM   19  C   UNK N   1      21.484  15.465   8.021  0.00  0.00     0.145 C 
HETATM   20  C   UNK N   1      22.867  12.909   7.706  0.00  0.00     0.145 C 
HETATM   21  N   UNK N   1      21.728  13.118   8.565  0.00  0.00    -0.349 N 
HETATM   22  C   UNK N   1      20.756  14.118   8.163  0.00  0.00     0.145 C 
HETATM   23  C   UNK N   1      21.614  12.467   9.758  0.00  0.00     0.221 C 
HETATM   24  O   UNK N   1      20.640  12.665  10.470  0.00  0.00    -0.273 OA
HETATM   25  O   UNK N   1      22.176  17.074   5.951  0.00  0.00    -0.271 OA
BRANCH  23  26
HETATM   26  C   UNK N   1      22.704  11.526  10.223  0.00  0.00     0.122 C 
BRANCH  26  27
HETATM   27  C   UNK N   1      23.415  12.020  11.476  0.00  0.00     0.120 C 
BRANCH  27  28
HETATM   28  N   UNK N   1      24.797  12.334  11.163  0.00  0.00    -0.430 N 
HETATM   29  H   UNK N   1      25.121  13.301  11.191  0.00  0.00     0.149 HD
HETATM   30  H   UNK N   1      25.446  11.586  10.914  0.00  0.00     0.149 HD
ENDBRANCH  27  28
ENDBRANCH  26  27
ENDBRANCH  23  26
ENDBRANCH   1  16
BRANCH   1  31
HETATM   31  N   UNK N   1      25.226  16.600   5.533  0.00  0.00    -0.301 N 
HETATM   32  H   UNK N   1      25.173  17.480   6.046  0.00  0.00     0.173 HD
BRANCH  31  33
HETATM   33  S   UNK N   1      26.751  15.849   5.030  0.00  0.00     0.260 S 
HETATM   34  O   UNK N   1      26.451  14.364   4.773  0.00  0.00    -0.200 OA
HETATM   35  O   UNK N   1      26.794  15.450   6.515  0.00  0.00    -0.200 OA
BRANCH  33  36
HETATM   36  C   UNK N   1      28.469  16.240   5.448  0.00  0.00     0.092 A 
HETATM   37  C   UNK N   1      29.492  15.340   5.069  0.00  0.00    -0.030 A 
HETATM   38  C   UNK N   1      30.802  15.556   5.504  0.00  0.00     0.016 A 
HETATM   39  C   UNK N   1      31.123  16.658   6.299  0.00  0.00    -0.054 A 
HETATM   40  C   UNK N   1      30.131  17.602   6.588  0.00  0.00     0.016 A 
HETATM   41  C   UNK N   1      28.808  17.411   6.165  0.00  0.00    -0.030 A 
BRANCH  37  42
HETATM   42  C   UNK N   1      29.192  14.156   4.194  0.00  0.00     0.012 C 
HETATM   43  C   UNK N   1      29.971  12.925   4.607  0.00  0.00     0.015 C 
HETATM   44  C   UNK N   1      29.439  14.476   2.729  0.00  0.00     0.015 C 
ENDBRANCH  37  42
BRANCH  39  45
HETATM   45  C   UNK N   1      32.524  16.780   6.844  0.00  0.00     0.010 C 
HETATM   46  C   UNK N   1      33.505  17.385   5.851  0.00  0.00     0.015 C 
HETATM   47  C   UNK N   1      32.521  17.648   8.092  0.00  0.00     0.015 C 
ENDBRANCH  39  45
BRANCH  41  48
HETATM   48  C   UNK N   1      27.777  18.459   6.467  0.00  0.00     0.012 C 
HETATM   49  C   UNK N   1      27.759  19.517   5.376  0.00  0.00     0.015 C 
HETATM   50  C   UNK N   1      28.007  19.113   7.816  0.00  0.00     0.015 C 
ENDBRANCH  41  48
ENDBRANCH  33  36
ENDBRANCH  31  33
ENDBRANCH   1  31
TORSDOF 14
ENDMDL
MODEL 7
REMARK VINA RESULT:      -7.7      3.095      5.943
REMARK  14 active torsions:
REMARK  status: ('A' for Active; 'I' for Inactive)
REMARK    1  A    between atoms: C_11  and  C_10 
REMARK    2  A    between atoms: C_29  and  C_10 
REMARK    3  A    between atoms: N_33  and  C_11 
REMARK    4  A    between atoms: C_23  and  C_17 
REMARK    5  A    between atoms: C_28  and  C_17 
REMARK    6  A    between atoms: C_25  and  C_20 
REMARK    7  A    between atoms: C_26  and  C_21 
REMARK    8  A    between atoms: C_27  and  C_22 
REMARK    9  A    between atoms: C_31  and  C_24 
REMARK   10  A    between atoms: C_32  and  C_28 
REMARK   11  A    between atoms: C_28  and  N_37 
REMARK       I    between atoms: N_38  and  C_29 
REMARK   12  A    between atoms: S_44  and  C_30 
REMARK   13  A    between atoms: N_36  and  C_31 
REMARK       I    between atoms: N_39  and  C_32 
REMARK   14  A    between atoms: S_44  and  N_37 
ROOT
HETATM    1  C   UNK N   1      24.912  14.905   5.180  0.00  0.00     0.189 C 
ENDROOT
BRANCH   1   2
HETATM    2  C   UNK N   1      25.172  13.382   5.223  0.00  0.00     0.074 C 
BRANCH   2   3
HETATM    3  C   UNK N   1      24.762  12.505   6.368  0.00  0.00    -0.055 A 
HETATM    4  C   UNK N   1      24.010  11.357   6.093  0.00  0.00     0.007 A 
HETATM    5  C   UNK N   1      23.447  10.618   7.140  0.00  0.00     0.002 A 
HETATM    6  C   UNK N   1      23.584  11.062   8.459  0.00  0.00     0.015 A 
HETATM    7  C   UNK N   1      24.342  12.209   8.737  0.00  0.00     0.007 A 
HETATM    8  C   UNK N   1      24.945  12.900   7.689  0.00  0.00     0.022 A 
BRANCH   7   9
HETATM    9  C   UNK N   1      24.410  12.768  10.102  0.00  0.00     0.102 C 
HETATM   10  N   UNK N   1      25.458  13.404  10.485  0.00  0.00    -0.385 N 
HETATM   11  H   UNK N   1      25.450  13.935  11.315  0.00  0.00     0.157 HD
ATOM     12  HN  UNK N   1      26.309  13.358   9.925  1.00  0.00     0.157 HD
BRANCH   9  13
HETATM   13  N   UNK N   1      23.264  12.767  10.925  0.00  0.00    -0.385 N 
HETATM   14  H   UNK N   1      22.887  11.917  11.247  0.00  0.00     0.157 HD
HETATM   15  H   UNK N   1      22.840  13.619  11.178  0.00  0.00     0.157 HD
ENDBRANCH   9  13
ENDBRANCH   7   9
ENDBRANCH   2   3
ENDBRANCH   1   2
BRANCH   1  16
HETATM   16  C   UNK N   1      23.624  15.397   4.491  0.00  0.00     0.243 C 
HETATM   17  N   UNK N   1      22.514  15.758   5.209  0.00  0.00    -0.347 N 
HETATM   18  C   UNK N   1      22.559  15.873   6.652  0.00  0.00     0.145 C 
HETATM   19  C   UNK N   1      21.261  16.067   4.550  0.00  0.00     0.145 C 
HETATM   20  C   UNK N   1      21.442  15.080   7.295  0.00  0.00     0.145 C 
HETATM   21  N   UNK N   1      20.209  15.441   6.640  0.00  0.00    -0.349 N 
HETATM   22  C   UNK N   1      20.131  15.253   5.203  0.00  0.00     0.145 C 
HETATM   23  C   UNK N   1      19.188  16.025   7.329  0.00  0.00     0.221 C 
HETATM   24  O   UNK N   1      18.155  16.326   6.750  0.00  0.00    -0.273 OA
HETATM   25  O   UNK N   1      23.575  15.470   3.270  0.00  0.00    -0.271 OA
BRANCH  23  26
HETATM   26  C   UNK N   1      19.339  16.336   8.803  0.00  0.00     0.122 C 
BRANCH  26  27
HETATM   27  C   UNK N   1      19.074  17.800   9.127  0.00  0.00     0.120 C 
BRANCH  27  28
HETATM   28  N   UNK N   1      17.647  18.015   9.283  0.00  0.00    -0.430 N 
HETATM   29  H   UNK N   1      17.285  18.455  10.129  0.00  0.00     0.149 HD
HETATM   30  H   UNK N   1      17.004  17.725   8.545  0.00  0.00     0.149 HD
ENDBRANCH  27  28
ENDBRANCH  26  27
ENDBRANCH  23  26
ENDBRANCH   1  16
BRANCH   1  31
HETATM   31  N   UNK N   1      26.070  15.446   4.472  0.00  0.00    -0.301 N 
HETATM   32  H   UNK N   1      26.310  15.200   3.512  0.00  0.00     0.173 HD
BRANCH  31  33
HETATM   33  S   UNK N   1      27.014  16.573   5.462  0.00  0.00     0.260 S 
HETATM   34  O   UNK N   1      26.414  17.970   5.238  0.00  0.00    -0.200 OA
HETATM   35  O   UNK N   1      27.733  16.809   4.123  0.00  0.00    -0.200 OA
BRANCH  33  36
HETATM   36  C   UNK N   1      28.748  16.539   5.984  0.00  0.00     0.092 A 
HETATM   37  C   UNK N   1      29.147  17.318   7.095  0.00  0.00    -0.030 A 
HETATM   38  C   UNK N   1      30.503  17.413   7.424  0.00  0.00     0.016 A 
HETATM   39  C   UNK N   1      31.471  16.738   6.681  0.00  0.00    -0.054 A 
HETATM   40  C   UNK N   1      31.066  15.887   5.645  0.00  0.00     0.016 A 
HETATM   41  C   UNK N   1      29.714  15.773   5.292  0.00  0.00    -0.030 A 
BRANCH  37  42
HETATM   42  C   UNK N   1      28.132  18.040   7.936  0.00  0.00     0.012 C 
HETATM   43  C   UNK N   1      28.105  19.528   7.652  0.00  0.00     0.015 C 
HETATM   44  C   UNK N   1      28.362  17.785   9.416  0.00  0.00     0.015 C 
ENDBRANCH  37  42
BRANCH  39  45
HETATM   45  C   UNK N   1      32.927  16.970   6.999  0.00  0.00     0.010 C 
HETATM   46  C   UNK N   1      33.765  17.304   5.774  0.00  0.00     0.015 C 
HETATM   47  C   UNK N   1      33.065  18.114   7.991  0.00  0.00     0.015 C 
ENDBRANCH  39  45
BRANCH  41  48
HETATM   48  C   UNK N   1      29.313  14.828   4.197  0.00  0.00     0.012 C 
HETATM   49  C   UNK N   1      29.037  13.445   4.763  0.00  0.00     0.015 C 
HETATM   50  C   UNK N   1      30.365  14.740   3.108  0.00  0.00     0.015 C 
ENDBRANCH  41  48
ENDBRANCH  33  36
ENDBRANCH  31  33
ENDBRANCH   1  31
TORSDOF 14
ENDMDL
MODEL 8
REMARK VINA RESULT:      -7.6      3.131      5.557
REMARK  14 active torsions:
REMARK  status: ('A' for Active; 'I' for Inactive)
REMARK    1  A    between atoms: C_11  and  C_10 
REMARK    2  A    between atoms: C_29  and  C_10 
REMARK    3  A    between atoms: N_33  and  C_11 
REMARK    4  A    between atoms: C_23  and  C_17 
REMARK    5  A    between atoms: C_28  and  C_17 
REMARK    6  A    between atoms: C_25  and  C_20 
REMARK    7  A    between atoms: C_26  and  C_21 
REMARK    8  A    between atoms: C_27  and  C_22 
REMARK    9  A    between atoms: C_31  and  C_24 
REMARK   10  A    between atoms: C_32  and  C_28 
REMARK   11  A    between atoms: C_28  and  N_37 
REMARK       I    between atoms: N_38  and  C_29 
REMARK   12  A    between atoms: S_44  and  C_30 
REMARK   13  A    between atoms: N_36  and  C_31 
REMARK       I    between atoms: N_39  and  C_32 
REMARK   14  A    between atoms: S_44  and  N_37 
ROOT
HETATM    1  C   UNK N   1      23.836  14.852   5.413  0.00  0.00     0.189 C 
ENDROOT
BRANCH   1   2
HETATM    2  C   UNK N   1      23.988  13.782   6.518  0.00  0.00     0.074 C 
BRANCH   2   3
HETATM    3  C   UNK N   1      23.039  13.644   7.670  0.00  0.00    -0.055 A 
HETATM    4  C   UNK N   1      21.906  14.465   7.704  0.00  0.00     0.007 A 
HETATM    5  C   UNK N   1      21.100  14.505   8.847  0.00  0.00     0.002 A 
HETATM    6  C   UNK N   1      21.461  13.769   9.980  0.00  0.00     0.015 A 
HETATM    7  C   UNK N   1      22.592  12.942   9.947  0.00  0.00     0.007 A 
HETATM    8  C   UNK N   1      23.351  12.868   8.781  0.00  0.00     0.022 A 
BRANCH   7   9
HETATM    9  C   UNK N   1      23.065  12.243  11.159  0.00  0.00     0.102 C 
HETATM   10  N   UNK N   1      24.303  12.303  11.495  0.00  0.00    -0.385 N 
HETATM   11  H   UNK N   1      24.598  12.002  12.385  0.00  0.00     0.157 HD
ATOM     12  HN  UNK N   1      24.988  12.664  10.832  1.00  0.00     0.157 HD
BRANCH   9  13
HETATM   13  N   UNK N   1      22.135  11.664  12.049  0.00  0.00    -0.385 N 
HETATM   14  H   UNK N   1      21.402  12.206  12.420  0.00  0.00     0.157 HD
HETATM   15  H   UNK N   1      22.220  10.716  12.300  0.00  0.00     0.157 HD
ENDBRANCH   9  13
ENDBRANCH   7   9
ENDBRANCH   2   3
ENDBRANCH   1   2
BRANCH   1  16
HETATM   16  C   UNK N   1      22.668  14.703   4.419  0.00  0.00     0.243 C 
HETATM   17  N   UNK N   1      22.032  15.791   3.885  0.00  0.00    -0.347 N 
HETATM   18  C   UNK N   1      22.544  17.131   4.080  0.00  0.00     0.145 C 
HETATM   19  C   UNK N   1      20.836  15.642   3.077  0.00  0.00     0.145 C 
HETATM   20  C   UNK N   1      21.465  18.055   4.601  0.00  0.00     0.145 C 
HETATM   21  N   UNK N   1      20.309  17.907   3.753  0.00  0.00    -0.349 N 
HETATM   22  C   UNK N   1      19.742  16.578   3.616  0.00  0.00     0.145 C 
HETATM   23  C   UNK N   1      19.822  18.957   3.032  0.00  0.00     0.221 C 
HETATM   24  O   UNK N   1      18.843  18.804   2.317  0.00  0.00    -0.273 OA
HETATM   25  O   UNK N   1      22.285  13.586   4.092  0.00  0.00    -0.271 OA
BRANCH  23  26
HETATM   26  C   UNK N   1      20.508  20.305   3.086  0.00  0.00     0.122 C 
BRANCH  26  27
HETATM   27  C   UNK N   1      21.271  20.629   1.807  0.00  0.00     0.120 C 
BRANCH  27  28
HETATM   28  N   UNK N   1      20.334  20.963   0.751  0.00  0.00    -0.430 N 
HETATM   29  H   UNK N   1      20.551  20.731  -0.218  0.00  0.00     0.149 HD
HETATM   30  H   UNK N   1      19.455  21.431   0.978  0.00  0.00     0.149 HD
ENDBRANCH  27  28
ENDBRANCH  26  27
ENDBRANCH  23  26
ENDBRANCH   1  16
BRANCH   1  31
HETATM   31  N   UNK N   1      25.099  14.791   4.680  0.00  0.00    -0.301 N 
HETATM   32  H   UNK N   1      25.279  14.135   3.921  0.00  0.00     0.173 HD
BRANCH  31  33
HETATM   33  S   UNK N   1      26.284  15.978   5.253  0.00  0.00     0.260 S 
HETATM   34  O   UNK N   1      25.505  17.261   5.582  0.00  0.00    -0.200 OA
HETATM   35  O   UNK N   1      26.195  16.452   3.793  0.00  0.00    -0.200 OA
BRANCH  33  36
HETATM   36  C   UNK N   1      28.035  16.206   4.851  0.00  0.00     0.092 A 
HETATM   37  C   UNK N   1      28.739  15.154   4.220  0.00  0.00    -0.030 A 
HETATM   38  C   UNK N   1      30.120  15.259   4.030  0.00  0.00     0.016 A 
HETATM   39  C   UNK N   1      30.817  16.395   4.442  0.00  0.00    -0.054 A 
HETATM   40  C   UNK N   1      30.105  17.478   4.974  0.00  0.00     0.016 A 
HETATM   41  C   UNK N   1      28.720  17.399   5.176  0.00  0.00    -0.030 A 
BRANCH  37  42
HETATM   42  C   UNK N   1      28.020  13.924   3.740  0.00  0.00     0.012 C 
HETATM   43  C   UNK N   1      28.352  12.703   4.573  0.00  0.00     0.015 C 
HETATM   44  C   UNK N   1      28.304  13.659   2.270  0.00  0.00     0.015 C 
ENDBRANCH  37  42
BRANCH  39  45
HETATM   45  C   UNK N   1      32.320  16.409   4.327  0.00  0.00     0.010 C 
HETATM   46  C   UNK N   1      32.813  16.535   2.893  0.00  0.00     0.015 C 
HETATM   47  C   UNK N   1      32.892  17.570   5.125  0.00  0.00     0.015 C 
ENDBRANCH  39  45
BRANCH  41  48
HETATM   48  C   UNK N   1      27.985  18.590   5.719  0.00  0.00     0.012 C 
HETATM   49  C   UNK N   1      28.195  19.799   4.823  0.00  0.00     0.015 C 
HETATM   50  C   UNK N   1      28.406  18.920   7.139  0.00  0.00     0.015 C 
ENDBRANCH  41  48
ENDBRANCH  33  36
ENDBRANCH  31  33
ENDBRANCH   1  31
TORSDOF 14
ENDMDL
MODEL 9
REMARK VINA RESULT:      -7.4      5.062      8.155
REMARK  14 active torsions:
REMARK  status: ('A' for Active; 'I' for Inactive)
REMARK    1  A    between atoms: C_11  and  C_10 
REMARK    2  A    between atoms: C_29  and  C_10 
REMARK    3  A    between atoms: N_33  and  C_11 
REMARK    4  A    between atoms: C_23  and  C_17 
REMARK    5  A    between atoms: C_28  and  C_17 
REMARK    6  A    between atoms: C_25  and  C_20 
REMARK    7  A    between atoms: C_26  and  C_21 
REMARK    8  A    between atoms: C_27  and  C_22 
REMARK    9  A    between atoms: C_31  and  C_24 
REMARK   10  A    between atoms: C_32  and  C_28 
REMARK   11  A    between atoms: C_28  and  N_37 
REMARK       I    between atoms: N_38  and  C_29 
REMARK   12  A    between atoms: S_44  and  C_30 
REMARK   13  A    between atoms: N_36  and  C_31 
REMARK       I    between atoms: N_39  and  C_32 
REMARK   14  A    between atoms: S_44  and  N_37 
ROOT
HETATM    1  C   UNK N   1      20.524  16.216   3.254  0.00  0.00     0.189 C 
ENDROOT
BRANCH   1   2
HETATM    2  C   UNK N   1      20.355  17.727   2.975  0.00  0.00     0.074 C 
BRANCH   2   3
HETATM    3  C   UNK N   1      21.454  18.729   3.161  0.00  0.00    -0.055 A 
HETATM    4  C   UNK N   1      21.343  19.969   2.521  0.00  0.00     0.007 A 
HETATM    5  C   UNK N   1      22.425  20.856   2.512  0.00  0.00     0.002 A 
HETATM    6  C   UNK N   1      23.641  20.477   3.089  0.00  0.00     0.015 A 
HETATM    7  C   UNK N   1      23.755  19.238   3.736  0.00  0.00     0.007 A 
HETATM    8  C   UNK N   1      22.649  18.392   3.788  0.00  0.00     0.022 A 
BRANCH   7   9
HETATM    9  C   UNK N   1      25.052  18.760   4.254  0.00  0.00     0.102 C 
HETATM   10  N   UNK N   1      25.439  19.097   5.431  0.00  0.00    -0.385 N 
HETATM   11  H   UNK N   1      26.203  18.647   5.859  0.00  0.00     0.157 HD
ATOM     12  HN  UNK N   1      24.950  19.842   5.928  1.00  0.00     0.157 HD
BRANCH   9  13
HETATM   13  N   UNK N   1      25.785  17.790   3.538  0.00  0.00    -0.385 N 
HETATM   14  H   UNK N   1      25.757  17.776   2.554  0.00  0.00     0.157 HD
HETATM   15  H   UNK N   1      26.326  17.126   4.023  0.00  0.00     0.157 HD
ENDBRANCH   9  13
ENDBRANCH   7   9
ENDBRANCH   2   3
ENDBRANCH   1   2
BRANCH   1  16
HETATM   16  C   UNK N   1      20.737  15.280   2.049  0.00  0.00     0.243 C 
HETATM   17  N   UNK N   1      21.778  14.391   2.001  0.00  0.00    -0.347 N 
HETATM   18  C   UNK N   1      22.617  14.155   3.157  0.00  0.00     0.145 C 
HETATM   19  C   UNK N   1      22.062  13.629   0.800  0.00  0.00     0.145 C 
HETATM   20  C   UNK N   1      24.082  14.298   2.804  0.00  0.00     0.145 C 
HETATM   21  N   UNK N   1      24.333  13.499   1.631  0.00  0.00    -0.349 N 
HETATM   22  C   UNK N   1      23.549  13.784   0.443  0.00  0.00     0.145 C 
HETATM   23  C   UNK N   1      25.208  12.454   1.662  0.00  0.00     0.221 C 
HETATM   24  O   UNK N   1      25.401  11.789   0.655  0.00  0.00    -0.273 OA
HETATM   25  O   UNK N   1      19.965  15.323   1.099  0.00  0.00    -0.271 OA
BRANCH  23  26
HETATM   26  C   UNK N   1      25.918  12.089   2.948  0.00  0.00     0.122 C 
BRANCH  26  27
HETATM   27  C   UNK N   1      27.418  11.900   2.761  0.00  0.00     0.120 C 
BRANCH  27  28
HETATM   28  N   UNK N   1      27.944  12.965   1.927  0.00  0.00    -0.430 N 
HETATM   29  H   UNK N   1      27.682  13.934   2.108  0.00  0.00     0.149 HD
HETATM   30  H   UNK N   1      28.576  12.744   1.157  0.00  0.00     0.149 HD
ENDBRANCH  27  28
ENDBRANCH  26  27
ENDBRANCH  23  26
ENDBRANCH   1  16
BRANCH   1  31
HETATM   31  N   UNK N   1      19.290  15.839   3.941  0.00  0.00    -0.301 N 
HETATM   32  H   UNK N   1      18.430  16.385   3.894  0.00  0.00     0.173 HD
BRANCH  31  33
HETATM   33  S   UNK N   1      19.450  14.336   4.865  0.00  0.00     0.260 S 
HETATM   34  O   UNK N   1      18.158  13.535   4.636  0.00  0.00    -0.200 OA
HETATM   35  O   UNK N   1      18.623  15.130   5.889  0.00  0.00    -0.200 OA
BRANCH  33  36
HETATM   36  C   UNK N   1      20.341  13.966   6.397  0.00  0.00     0.092 A 
HETATM   37  C   UNK N   1      20.933  12.692   6.559  0.00  0.00    -0.030 A 
HETATM   38  C   UNK N   1      21.502  12.341   7.786  0.00  0.00     0.016 A 
HETATM   39  C   UNK N   1      21.508  13.237   8.856  0.00  0.00    -0.054 A 
HETATM   40  C   UNK N   1      21.013  14.533   8.665  0.00  0.00     0.016 A 
HETATM   41  C   UNK N   1      20.437  14.911   7.444  0.00  0.00    -0.030 A 
BRANCH  37  42
HETATM   42  C   UNK N   1      20.969  11.708   5.422  0.00  0.00     0.012 C 
HETATM   43  C   UNK N   1      19.941  10.607   5.583  0.00  0.00     0.015 C 
HETATM   44  C   UNK N   1      22.359  11.118   5.249  0.00  0.00     0.015 C 
ENDBRANCH  37  42
BRANCH  39  45
HETATM   45  C   UNK N   1      22.022  12.769  10.195  0.00  0.00     0.010 C 
HETATM   46  C   UNK N   1      20.917  12.318  11.139  0.00  0.00     0.015 C 
HETATM   47  C   UNK N   1      22.982  11.606  10.005  0.00  0.00     0.015 C 
ENDBRANCH  39  45
BRANCH  41  48
HETATM   48  C   UNK N   1      19.945  16.317   7.264  0.00  0.00     0.012 C 
HETATM   49  C   UNK N   1      21.084  17.229   6.839  0.00  0.00     0.015 C 
HETATM   50  C   UNK N   1      19.293  16.859   8.523  0.00  0.00     0.015 C 
ENDBRANCH  41  48
ENDBRANCH  33  36
ENDBRANCH  31  33
ENDBRANCH   1  31
TORSDOF 14
ENDMDL
