REMARK  6 active torsions:
REMARK  status: ('A' for Active; 'I' for Inactive)
REMARK    1  A    between atoms: C_2  and  N_1 
REMARK    2  A    between atoms: C_2  and  C_3 
REMARK    3  A    between atoms: C_2  and  C_19 
REMARK       I    between atoms: C_3  and  N_5 
REMARK    4  A    between atoms: C_6  and  N_5 
REMARK    5  A    between atoms: C_12  and  C_16 
REMARK    6  A    between atoms: C_16  and  O_17 
ROOT
HETATM    1  C   UNK N   1      -0.162  -0.544   0.201  0.00  0.00     0.200 A 
HETATM    2  C   UNK N   1       1.371  -0.397   0.741  0.00  0.00     0.125 A 
HETATM    3  C   UNK N   1       2.379   0.392  -0.078  0.00  0.00     0.034 C 
HETATM    4  C   UNK N   1       3.781  -0.147   0.272  0.00  0.00     0.056 C 
HETATM    5  C   UNK N   1       3.900  -1.665   0.161  0.00  0.00     0.045 C 
HETATM    6 Cl   UNK N   1       5.526  -2.306  -0.077  0.00  0.00    -0.086 Cl
HETATM    7  C   UNK N   1       2.779  -2.447   0.204  0.00  0.00     0.129 C 
HETATM    8  N   UNK N   1       1.546  -1.757   0.384  0.00  0.00    -0.302 N 
HETATM    9  C   UNK N   1       0.321  -1.941  -0.007  0.00  0.00     0.250 A 
HETATM   10  O   UNK N   1      -0.149  -2.893  -0.604  0.00  0.00    -0.271 OA
ENDROOT
BRANCH   1  11
HETATM   11  N   UNK N   1      -0.309   0.078  -1.097  0.00  0.00    -0.344 N 
HETATM   12  C   UNK N   1      -0.797   1.328  -1.326  0.00  0.00     0.245 C 
HETATM   13  O   UNK N   1      -0.781   1.753  -2.470  0.00  0.00    -0.271 OA
HETATM   14  H   UNK N   1      -0.033  -0.448  -1.882  0.00  0.00     0.163 HD
BRANCH  12  15
HETATM   15  C   UNK N   1      -1.338   2.242  -0.236  0.00  0.00     0.201 C 
BRANCH  15  16
HETATM   16  N   UNK N   1      -1.656   1.564   1.009  0.00  0.00    -0.415 N 
HETATM   17  H   UNK N   1      -2.179   1.519   1.883  0.00  0.00     0.151 HD
HETATM   18  H   UNK N   1      -1.072   0.727   1.009  0.00  0.00     0.151 HD
ENDBRANCH  15  16
BRANCH  15  19
HETATM   19  C   UNK N   1      -0.423   3.398   0.026  0.00  0.00    -0.027 A 
HETATM   20  C   UNK N   1      -0.894   4.705  -0.132  0.00  0.00     0.010 A 
HETATM   21  C   UNK N   1      -0.057   5.791   0.145  0.00  0.00     0.001 A 
HETATM   22  C   UNK N   1       1.256   5.572   0.575  0.00  0.00     0.000 A 
HETATM   23  C   UNK N   1       1.732   4.267   0.730  0.00  0.00     0.001 A 
HETATM   24  C   UNK N   1       0.893   3.183   0.463  0.00  0.00     0.010 A 
ENDBRANCH  15  19
ENDBRANCH  12  15
ENDBRANCH   1  11
BRANCH   7  25
HETATM   25  C   UNK N   1       2.800  -3.933   0.020  0.00  0.00     0.195 C 
HETATM   26  O   UNK N   1       3.837  -4.522  -0.239  0.00  0.00    -0.645 OA
BRANCH  25  27
HETATM   27  O   UNK N   1       1.668  -4.647   0.157  0.00  0.00    -0.772 OA
HETATM   28  H   UNK N   1       0.843  -4.213   0.252  0.00  0.00     0.167 HD
ENDBRANCH  25  27
ENDBRANCH   7  25
TORSDOF 6
