MODEL 1
REMARK VINA RESULT:      -4.4      0.000      0.000
REMARK  6 active torsions:
REMARK  status: ('A' for Active; 'I' for Inactive)
REMARK    1  A    between atoms: C_2  and  N_1 
REMARK    2  A    between atoms: C_2  and  C_3 
REMARK    3  A    between atoms: C_2  and  C_6 
REMARK    4  A    between atoms: C_3  and  C_4 
REMARK    5  A    between atoms: C_4  and  O_5 
REMARK    6  A    between atoms: C_6  and  O_7 
ROOT
HETATM    1  C   UNK N   1      34.309  17.161   9.146  0.00  0.00     0.175 C 
ENDROOT
BRANCH   1   2
HETATM    2  N   UNK N   1      34.980  17.198  10.432  0.00  0.00    -0.417 N 
HETATM    3  H   UNK N   1      35.719  16.527  10.641  0.00  0.00     0.150 HD
HETATM    4  H   UNK N   1      34.712  17.895  11.127  0.00  0.00     0.150 HD
ENDBRANCH   1   2
BRANCH   1   5
HETATM    5  C   UNK N   1      33.302  16.023   8.967  0.00  0.00     0.061 C 
BRANCH   5   6
HETATM    6  C   UNK N   1      33.589  14.788   9.794  0.00  0.00     0.166 C 
BRANCH   6   7
HETATM    7  O   UNK N   1      33.109  14.986  11.089  0.00  0.00    -0.401 OA
HETATM    8  H   UNK N   1      33.403  15.756  11.601  0.00  0.00     0.209 HD
ENDBRANCH   6   7
ENDBRANCH   5   6
ENDBRANCH   1   5
BRANCH   1   9
HETATM    9  C   UNK N   1      34.689  18.239   8.163  0.00  0.00     0.163 C 
HETATM   10  O   UNK N   1      34.406  18.140   6.981  0.00  0.00    -0.648 OA
BRANCH   9  11
HETATM   11  O   UNK N   1      35.352  19.329   8.597  0.00  0.00    -0.775 OA
HETATM   12  H   UNK N   1      35.172  20.168   8.219  0.00  0.00     0.167 HD
ENDBRANCH   9  11
ENDBRANCH   1   9
TORSDOF 6
ENDMDL
MODEL 2
REMARK VINA RESULT:      -4.3      1.934      2.065
REMARK  6 active torsions:
REMARK  status: ('A' for Active; 'I' for Inactive)
REMARK    1  A    between atoms: C_2  and  N_1 
REMARK    2  A    between atoms: C_2  and  C_3 
REMARK    3  A    between atoms: C_2  and  C_6 
REMARK    4  A    between atoms: C_3  and  C_4 
REMARK    5  A    between atoms: C_4  and  O_5 
REMARK    6  A    between atoms: C_6  and  O_7 
ROOT
HETATM    1  C   UNK N   1      34.046  17.154   8.939  0.00  0.00     0.175 C 
ENDROOT
BRANCH   1   2
HETATM    2  N   UNK N   1      32.607  17.143   9.130  0.00  0.00    -0.417 N 
HETATM    3  H   UNK N   1      31.989  17.397   8.360  0.00  0.00     0.150 HD
HETATM    4  H   UNK N   1      32.214  16.882  10.034  0.00  0.00     0.150 HD
ENDBRANCH   1   2
BRANCH   1   5
HETATM    5  C   UNK N   1      34.812  16.066   9.694  0.00  0.00     0.061 C 
BRANCH   5   6
HETATM    6  C   UNK N   1      35.544  16.548  10.929  0.00  0.00     0.166 C 
BRANCH   6   7
HETATM    7  O   UNK N   1      36.876  16.140  10.856  0.00  0.00    -0.401 OA
HETATM    8  H   UNK N   1      37.275  15.656  11.595  0.00  0.00     0.209 HD
ENDBRANCH   6   7
ENDBRANCH   5   6
ENDBRANCH   1   5
BRANCH   1   9
HETATM    9  C   UNK N   1      34.592  18.226   8.030  0.00  0.00     0.163 C 
HETATM   10  O   UNK N   1      34.404  18.184   6.826  0.00  0.00    -0.648 OA
BRANCH   9  11
HETATM   11  O   UNK N   1      35.298  19.246   8.557  0.00  0.00    -0.775 OA
HETATM   12  H   UNK N   1      35.008  19.656   9.348  0.00  0.00     0.167 HD
ENDBRANCH   9  11
ENDBRANCH   1   9
TORSDOF 6
ENDMDL
MODEL 3
REMARK VINA RESULT:      -4.2     15.420     15.897
REMARK  6 active torsions:
REMARK  status: ('A' for Active; 'I' for Inactive)
REMARK    1  A    between atoms: C_2  and  N_1 
REMARK    2  A    between atoms: C_2  and  C_3 
REMARK    3  A    between atoms: C_2  and  C_6 
REMARK    4  A    between atoms: C_3  and  C_4 
REMARK    5  A    between atoms: C_4  and  O_5 
REMARK    6  A    between atoms: C_6  and  O_7 
ROOT
HETATM    1  C   UNK N   1      20.678  19.978   1.669  0.00  0.00     0.175 C 
ENDROOT
BRANCH   1   2
HETATM    2  N   UNK N   1      20.424  20.669   0.419  0.00  0.00    -0.417 N 
HETATM    3  H   UNK N   1      20.215  21.667   0.422  0.00  0.00     0.150 HD
HETATM    4  H   UNK N   1      20.454  20.156  -0.463  0.00  0.00     0.150 HD
ENDBRANCH   1   2
BRANCH   1   5
HETATM    5  C   UNK N   1      20.588  18.452   1.602  0.00  0.00     0.061 C 
BRANCH   5   6
HETATM    6  C   UNK N   1      19.429  17.852   2.369  0.00  0.00     0.166 C 
BRANCH   6   7
HETATM    7  O   UNK N   1      18.374  18.764   2.388  0.00  0.00    -0.401 OA
HETATM    8  H   UNK N   1      18.513  19.657   2.741  0.00  0.00     0.209 HD
ENDBRANCH   6   7
ENDBRANCH   5   6
ENDBRANCH   1   5
BRANCH   1   9
HETATM    9  C   UNK N   1      20.995  20.846   2.861  0.00  0.00     0.163 C 
HETATM   10  O   UNK N   1      20.335  20.776   3.883  0.00  0.00    -0.648 OA
BRANCH   9  11
HETATM   11  O   UNK N   1      22.024  21.714   2.794  0.00  0.00    -0.775 OA
HETATM   12  H   UNK N   1      22.890  21.401   2.621  0.00  0.00     0.167 HD
ENDBRANCH   9  11
ENDBRANCH   1   9
TORSDOF 6
ENDMDL
MODEL 4
REMARK VINA RESULT:      -4.0      1.405      1.938
REMARK  6 active torsions:
REMARK  status: ('A' for Active; 'I' for Inactive)
REMARK    1  A    between atoms: C_2  and  N_1 
REMARK    2  A    between atoms: C_2  and  C_3 
REMARK    3  A    between atoms: C_2  and  C_6 
REMARK    4  A    between atoms: C_3  and  C_4 
REMARK    5  A    between atoms: C_4  and  O_5 
REMARK    6  A    between atoms: C_6  and  O_7 
ROOT
HETATM    1  C   UNK N   1      34.123  17.089   8.923  0.00  0.00     0.175 C 
ENDROOT
BRANCH   1   2
HETATM    2  N   UNK N   1      34.612  17.079  10.290  0.00  0.00    -0.417 N 
HETATM    3  H   UNK N   1      34.234  16.411  10.961  0.00  0.00     0.150 HD
HETATM    4  H   UNK N   1      35.333  17.740  10.578  0.00  0.00     0.150 HD
ENDBRANCH   1   2
BRANCH   1   5
HETATM    5  C   UNK N   1      33.163  15.953   8.565  0.00  0.00     0.061 C 
BRANCH   5   6
HETATM    6  C   UNK N   1      31.700  16.343   8.545  0.00  0.00     0.166 C 
BRANCH   6   7
HETATM    7  O   UNK N   1      31.531  17.514   9.282  0.00  0.00    -0.401 OA
HETATM    8  H   UNK N   1      31.169  17.473  10.181  0.00  0.00     0.209 HD
ENDBRANCH   6   7
ENDBRANCH   5   6
ENDBRANCH   1   5
BRANCH   1   9
HETATM    9  C   UNK N   1      34.621  18.208   8.044  0.00  0.00     0.163 C 
HETATM   10  O   UNK N   1      35.238  19.149   8.513  0.00  0.00    -0.648 OA
BRANCH   9  11
HETATM   11  O   UNK N   1      34.380  18.167   6.718  0.00  0.00    -0.775 OA
HETATM   12  H   UNK N   1      35.095  18.109   6.114  0.00  0.00     0.167 HD
ENDBRANCH   9  11
ENDBRANCH   1   9
TORSDOF 6
ENDMDL
MODEL 5
REMARK VINA RESULT:      -3.9     15.346     15.737
REMARK  6 active torsions:
REMARK  status: ('A' for Active; 'I' for Inactive)
REMARK    1  A    between atoms: C_2  and  N_1 
REMARK    2  A    between atoms: C_2  and  C_3 
REMARK    3  A    between atoms: C_2  and  C_6 
REMARK    4  A    between atoms: C_3  and  C_4 
REMARK    5  A    between atoms: C_4  and  O_5 
REMARK    6  A    between atoms: C_6  and  O_7 
ROOT
HETATM    1  C   UNK N   1      20.531  19.115   1.879  0.00  0.00     0.175 C 
ENDROOT
BRANCH   1   2
HETATM    2  N   UNK N   1      20.032  18.067   1.007  0.00  0.00    -0.417 N 
HETATM    3  H   UNK N   1      20.379  17.991   0.052  0.00  0.00     0.150 HD
HETATM    4  H   UNK N   1      19.334  17.407   1.351  0.00  0.00     0.150 HD
ENDBRANCH   1   2
BRANCH   1   5
HETATM    5  C   UNK N   1      20.616  18.746   3.361  0.00  0.00     0.061 C 
BRANCH   5   6
HETATM    6  C   UNK N   1      20.319  17.294   3.671  0.00  0.00     0.166 C 
BRANCH   6   7
HETATM    7  O   UNK N   1      18.938  17.106   3.686  0.00  0.00    -0.401 OA
HETATM    8  H   UNK N   1      18.419  17.258   2.880  0.00  0.00     0.209 HD
ENDBRANCH   6   7
ENDBRANCH   5   6
ENDBRANCH   1   5
BRANCH   1   9
HETATM    9  C   UNK N   1      20.897  20.418   1.215  0.00  0.00     0.163 C 
HETATM   10  O   UNK N   1      21.437  21.313   1.843  0.00  0.00    -0.648 OA
BRANCH   9  11
HETATM   11  O   UNK N   1      20.625  20.597  -0.092  0.00  0.00    -0.775 OA
HETATM   12  H   UNK N   1      19.805  20.969  -0.353  0.00  0.00     0.167 HD
ENDBRANCH   9  11
ENDBRANCH   1   9
TORSDOF 6
ENDMDL
MODEL 6
REMARK VINA RESULT:      -3.9     15.886     16.558
REMARK  6 active torsions:
REMARK  status: ('A' for Active; 'I' for Inactive)
REMARK    1  A    between atoms: C_2  and  N_1 
REMARK    2  A    between atoms: C_2  and  C_3 
REMARK    3  A    between atoms: C_2  and  C_6 
REMARK    4  A    between atoms: C_3  and  C_4 
REMARK    5  A    between atoms: C_4  and  O_5 
REMARK    6  A    between atoms: C_6  and  O_7 
ROOT
HETATM    1  C   UNK N   1      19.946  18.549   1.844  0.00  0.00     0.175 C 
ENDROOT
BRANCH   1   2
HETATM    2  N   UNK N   1      18.593  18.755   2.325  0.00  0.00    -0.417 N 
HETATM    3  H   UNK N   1      18.162  18.069   2.945  0.00  0.00     0.150 HD
HETATM    4  H   UNK N   1      18.072  19.586   2.043  0.00  0.00     0.150 HD
ENDBRANCH   1   2
BRANCH   1   5
HETATM    5  C   UNK N   1      20.943  19.652   2.205  0.00  0.00     0.061 C 
BRANCH   5   6
HETATM    6  C   UNK N   1      20.931  20.846   1.274  0.00  0.00     0.166 C 
BRANCH   6   7
HETATM    7  O   UNK N   1      20.507  20.433   0.011  0.00  0.00    -0.401 OA
HETATM    8  H   UNK N   1      19.801  19.774  -0.071  0.00  0.00     0.209 HD
ENDBRANCH   6   7
ENDBRANCH   5   6
ENDBRANCH   1   5
BRANCH   1   9
HETATM    9  C   UNK N   1      20.191  17.285   1.059  0.00  0.00     0.163 C 
HETATM   10  O   UNK N   1      20.319  16.211   1.621  0.00  0.00    -0.648 OA
BRANCH   9  11
HETATM   11  O   UNK N   1      20.271  17.344  -0.285  0.00  0.00    -0.775 OA
HETATM   12  H   UNK N   1      21.084  17.561  -0.697  0.00  0.00     0.167 HD
ENDBRANCH   9  11
ENDBRANCH   1   9
TORSDOF 6
ENDMDL
MODEL 7
REMARK VINA RESULT:      -3.9     15.424     15.886
REMARK  6 active torsions:
REMARK  status: ('A' for Active; 'I' for Inactive)
REMARK    1  A    between atoms: C_2  and  N_1 
REMARK    2  A    between atoms: C_2  and  C_3 
REMARK    3  A    between atoms: C_2  and  C_6 
REMARK    4  A    between atoms: C_3  and  C_4 
REMARK    5  A    between atoms: C_4  and  O_5 
REMARK    6  A    between atoms: C_6  and  O_7 
ROOT
HETATM    1  C   UNK N   1      20.290  19.218   2.109  0.00  0.00     0.175 C 
ENDROOT
BRANCH   1   2
HETATM    2  N   UNK N   1      18.893  19.424   2.448  0.00  0.00    -0.417 N 
HETATM    3  H   UNK N   1      18.180  19.379   1.720  0.00  0.00     0.150 HD
HETATM    4  H   UNK N   1      18.625  19.615   3.414  0.00  0.00     0.150 HD
ENDBRANCH   1   2
BRANCH   1   5
HETATM    5  C   UNK N   1      20.784  17.775   2.228  0.00  0.00     0.061 C 
BRANCH   5   6
HETATM    6  C   UNK N   1      20.398  16.876   1.072  0.00  0.00     0.166 C 
BRANCH   6   7
HETATM    7  O   UNK N   1      20.244  17.653  -0.076  0.00  0.00    -0.401 OA
HETATM    8  H   UNK N   1      19.884  17.255  -0.884  0.00  0.00     0.209 HD
ENDBRANCH   6   7
ENDBRANCH   5   6
ENDBRANCH   1   5
BRANCH   1   9
HETATM    9  C   UNK N   1      21.063  20.442   1.689  0.00  0.00     0.163 C 
HETATM   10  O   UNK N   1      21.367  20.623   0.522  0.00  0.00    -0.648 OA
BRANCH   9  11
HETATM   11  O   UNK N   1      21.423  21.350   2.617  0.00  0.00    -0.775 OA
HETATM   12  H   UNK N   1      21.838  22.149   2.355  0.00  0.00     0.167 HD
ENDBRANCH   9  11
ENDBRANCH   1   9
TORSDOF 6
ENDMDL
MODEL 8
REMARK VINA RESULT:      -3.8      3.300      3.804
REMARK  6 active torsions:
REMARK  status: ('A' for Active; 'I' for Inactive)
REMARK    1  A    between atoms: C_2  and  N_1 
REMARK    2  A    between atoms: C_2  and  C_3 
REMARK    3  A    between atoms: C_2  and  C_6 
REMARK    4  A    between atoms: C_3  and  C_4 
REMARK    5  A    between atoms: C_4  and  O_5 
REMARK    6  A    between atoms: C_6  and  O_7 
ROOT
HETATM    1  C   UNK N   1      34.812  15.095  11.347  0.00  0.00     0.175 C 
ENDROOT
BRANCH   1   2
HETATM    2  N   UNK N   1      33.463  15.013  10.818  0.00  0.00    -0.417 N 
HETATM    3  H   UNK N   1      33.083  15.783  10.268  0.00  0.00     0.150 HD
HETATM    4  H   UNK N   1      32.895  14.185  10.997  0.00  0.00     0.150 HD
ENDBRANCH   1   2
BRANCH   1   5
HETATM    5  C   UNK N   1      35.203  13.978  12.317  0.00  0.00     0.061 C 
BRANCH   5   6
HETATM    6  C   UNK N   1      36.196  12.979  11.764  0.00  0.00     0.166 C 
BRANCH   6   7
HETATM    7  O   UNK N   1      37.489  13.440  12.010  0.00  0.00    -0.401 OA
HETATM    8  H   UNK N   1      37.889  13.314  12.885  0.00  0.00     0.209 HD
ENDBRANCH   6   7
ENDBRANCH   5   6
ENDBRANCH   1   5
BRANCH   1   9
HETATM    9  C   UNK N   1      35.644  16.261  10.876  0.00  0.00     0.163 C 
HETATM   10  O   UNK N   1      35.121  17.303  10.521  0.00  0.00    -0.648 OA
BRANCH   9  11
HETATM   11  O   UNK N   1      36.987  16.148  10.846  0.00  0.00    -0.775 OA
HETATM   12  H   UNK N   1      37.477  16.174  11.645  0.00  0.00     0.167 HD
ENDBRANCH   9  11
ENDBRANCH   1   9
TORSDOF 6
ENDMDL
MODEL 9
REMARK VINA RESULT:      -3.8     12.037     12.730
REMARK  6 active torsions:
REMARK  status: ('A' for Active; 'I' for Inactive)
REMARK    1  A    between atoms: C_2  and  N_1 
REMARK    2  A    between atoms: C_2  and  C_3 
REMARK    3  A    between atoms: C_2  and  C_6 
REMARK    4  A    between atoms: C_3  and  C_4 
REMARK    5  A    between atoms: C_4  and  O_5 
REMARK    6  A    between atoms: C_6  and  O_7 
ROOT
HETATM    1  C   UNK N   1      43.552  22.539   3.459  0.00  0.00     0.175 C 
ENDROOT
BRANCH   1   2
HETATM    2  N   UNK N   1      43.550  23.908   3.940  0.00  0.00    -0.417 N 
HETATM    3  H   UNK N   1      43.477  24.680   3.278  0.00  0.00     0.150 HD
HETATM    4  H   UNK N   1      43.621  24.098   4.940  0.00  0.00     0.150 HD
ENDBRANCH   1   2
BRANCH   1   5
HETATM    5  C   UNK N   1      42.298  22.114   2.692  0.00  0.00     0.061 C 
BRANCH   5   6
HETATM    6  C   UNK N   1      41.918  23.026   1.545  0.00  0.00     0.166 C 
BRANCH   6   7
HETATM    7  O   UNK N   1      41.170  24.093   2.041  0.00  0.00    -0.401 OA
HETATM    8  H   UNK N   1      40.478  23.933   2.702  0.00  0.00     0.209 HD
ENDBRANCH   6   7
ENDBRANCH   5   6
ENDBRANCH   1   5
BRANCH   1   9
HETATM    9  C   UNK N   1      44.778  21.721   3.777  0.00  0.00     0.163 C 
HETATM   10  O   UNK N   1      44.792  20.515   3.599  0.00  0.00    -0.648 OA
BRANCH   9  11
HETATM   11  O   UNK N   1      45.876  22.332   4.264  0.00  0.00    -0.775 OA
HETATM   12  H   UNK N   1      46.669  22.340   3.764  0.00  0.00     0.167 HD
ENDBRANCH   9  11
ENDBRANCH   1   9
TORSDOF 6
ENDMDL
