MODEL 1
REMARK VINA RESULT:      -5.2      0.000      0.000
REMARK  5 active torsions:
REMARK  status: ('A' for Active; 'I' for Inactive)
REMARK    1  A    between atoms: C_6  and  C_7 
REMARK    2  A    between atoms: C_7  and  C_8 
REMARK    3  A    between atoms: C_8  and  N_9 
REMARK    4  A    between atoms: C_8  and  C_10 
REMARK    5  A    between atoms: C_10  and  O_11 
ROOT
HETATM    1  C   UNK N   1      32.753  16.429   8.580  0.00  0.00     0.094 C 
ENDROOT
BRANCH   1   2
HETATM    2  C   UNK N   1      31.442  17.147   8.446  0.00  0.00     0.028 A 
HETATM    3  N   UNK N   1      30.874  17.950   9.370  0.00  0.00    -0.354 N 
HETATM    4  C   UNK N   1      29.717  18.364   8.811  0.00  0.00     0.182 A 
ATOM      5  HN  UNK N   1      31.240  18.191  10.291  1.00  0.00     0.166 HD
HETATM    6  N   UNK N   1      29.565  17.841   7.582  0.00  0.00    -0.355 N 
HETATM    7  C   UNK N   1      28.448  18.062   6.684  0.00  0.00     0.156 C 
HETATM    8  C   UNK N   1      30.636  17.075   7.334  0.00  0.00     0.116 A 
ENDBRANCH   1   2
BRANCH   1   9
HETATM    9  C   UNK N   1      33.989  17.243   8.978  0.00  0.00     0.178 C 
BRANCH   9  10
HETATM   10  N   UNK N   1      34.631  17.060  10.271  0.00  0.00    -0.417 N 
HETATM   11  H   UNK N   1      35.575  16.674  10.321  0.00  0.00     0.150 HD
HETATM   12  H   UNK N   1      34.139  17.318  11.126  0.00  0.00     0.150 HD
ENDBRANCH   9  10
BRANCH   9  13
HETATM   13  C   UNK N   1      34.574  18.254   8.043  0.00  0.00     0.163 C 
HETATM   14  O   UNK N   1      35.234  19.184   8.482  0.00  0.00    -0.648 OA
BRANCH  13  15
HETATM   15  O   UNK N   1      34.377  18.146   6.715  0.00  0.00    -0.775 OA
HETATM   16  H   UNK N   1      33.997  18.856   6.238  0.00  0.00     0.167 HD
ENDBRANCH  13  15
ENDBRANCH   9  13
ENDBRANCH   1   9
TORSDOF 5
ENDMDL
MODEL 2
REMARK VINA RESULT:      -5.2      5.453      7.649
REMARK  5 active torsions:
REMARK  status: ('A' for Active; 'I' for Inactive)
REMARK    1  A    between atoms: C_6  and  C_7 
REMARK    2  A    between atoms: C_7  and  C_8 
REMARK    3  A    between atoms: C_8  and  N_9 
REMARK    4  A    between atoms: C_8  and  C_10 
REMARK    5  A    between atoms: C_10  and  O_11 
ROOT
HETATM    1  C   UNK N   1      35.411  13.744  11.860  0.00  0.00     0.094 C 
ENDROOT
BRANCH   1   2
HETATM    2  C   UNK N   1      35.792  13.799  13.310  0.00  0.00     0.028 A 
HETATM    3  N   UNK N   1      36.795  14.526  13.845  0.00  0.00    -0.354 N 
HETATM    4  C   UNK N   1      36.756  14.259  15.167  0.00  0.00     0.182 A 
ATOM      5  HN  UNK N   1      37.442  15.145  13.355  1.00  0.00     0.166 HD
HETATM    6  N   UNK N   1      35.766  13.394  15.451  0.00  0.00    -0.355 N 
HETATM    7  C   UNK N   1      35.424  12.879  16.763  0.00  0.00     0.156 C 
HETATM    8  C   UNK N   1      35.149  13.093  14.301  0.00  0.00     0.116 A 
ENDBRANCH   1   2
BRANCH   1   9
HETATM    9  C   UNK N   1      34.817  15.004  11.217  0.00  0.00     0.178 C 
BRANCH   9  10
HETATM   10  N   UNK N   1      33.404  15.088  10.884  0.00  0.00    -0.417 N 
HETATM   11  H   UNK N   1      32.962  14.345  10.342  0.00  0.00     0.150 HD
HETATM   12  H   UNK N   1      32.854  15.891  11.191  0.00  0.00     0.150 HD
ENDBRANCH   9  10
BRANCH   9  13
HETATM   13  C   UNK N   1      35.681  16.188  10.914  0.00  0.00     0.163 C 
HETATM   14  O   UNK N   1      35.170  17.267  10.656  0.00  0.00    -0.648 OA
BRANCH  13  15
HETATM   15  O   UNK N   1      37.022  16.071  10.923  0.00  0.00    -0.775 OA
HETATM   16  H   UNK N   1      37.559  16.836  10.863  0.00  0.00     0.167 HD
ENDBRANCH  13  15
ENDBRANCH   9  13
ENDBRANCH   1   9
TORSDOF 5
ENDMDL
MODEL 3
REMARK VINA RESULT:      -4.7      1.534      2.136
REMARK  5 active torsions:
REMARK  status: ('A' for Active; 'I' for Inactive)
REMARK    1  A    between atoms: C_6  and  C_7 
REMARK    2  A    between atoms: C_7  and  C_8 
REMARK    3  A    between atoms: C_8  and  N_9 
REMARK    4  A    between atoms: C_8  and  C_10 
REMARK    5  A    between atoms: C_10  and  O_11 
ROOT
HETATM    1  C   UNK N   1      31.922  17.649   8.613  0.00  0.00     0.094 C 
ENDROOT
BRANCH   1   2
HETATM    2  C   UNK N   1      31.249  16.888   7.509  0.00  0.00     0.028 A 
HETATM    3  N   UNK N   1      31.812  15.935   6.738  0.00  0.00    -0.354 N 
HETATM    4  C   UNK N   1      30.834  15.543   5.895  0.00  0.00     0.182 A 
ATOM      5  HN  UNK N   1      32.770  15.587   6.782  1.00  0.00     0.166 HD
HETATM    6  N   UNK N   1      29.698  16.224   6.129  0.00  0.00    -0.355 N 
HETATM    7  C   UNK N   1      28.442  16.071   5.421  0.00  0.00     0.156 C 
HETATM    8  C   UNK N   1      29.937  17.072   7.137  0.00  0.00     0.116 A 
ENDBRANCH   1   2
BRANCH   1   9
HETATM    9  C   UNK N   1      33.435  17.479   8.794  0.00  0.00     0.178 C 
BRANCH   9  10
HETATM   10  N   UNK N   1      33.981  16.591   9.809  0.00  0.00    -0.417 N 
HETATM   11  H   UNK N   1      33.560  15.675   9.965  0.00  0.00     0.150 HD
HETATM   12  H   UNK N   1      34.784  16.885  10.366  0.00  0.00     0.150 HD
ENDBRANCH   9  10
BRANCH   9  13
HETATM   13  C   UNK N   1      34.399  18.226   7.926  0.00  0.00     0.163 C 
HETATM   14  O   UNK N   1      34.446  17.997   6.727  0.00  0.00    -0.648 OA
BRANCH  13  15
HETATM   15  O   UNK N   1      35.217  19.152   8.460  0.00  0.00    -0.775 OA
HETATM   16  H   UNK N   1      35.652  19.768   7.905  0.00  0.00     0.167 HD
ENDBRANCH  13  15
ENDBRANCH   9  13
ENDBRANCH   1   9
TORSDOF 5
ENDMDL
MODEL 4
REMARK VINA RESULT:      -4.6      2.409      4.996
REMARK  5 active torsions:
REMARK  status: ('A' for Active; 'I' for Inactive)
REMARK    1  A    between atoms: C_6  and  C_7 
REMARK    2  A    between atoms: C_7  and  C_8 
REMARK    3  A    between atoms: C_8  and  N_9 
REMARK    4  A    between atoms: C_8  and  C_10 
REMARK    5  A    between atoms: C_10  and  O_11 
ROOT
HETATM    1  C   UNK N   1      33.215  15.782   8.453  0.00  0.00     0.094 C 
ENDROOT
BRANCH   1   2
HETATM    2  C   UNK N   1      34.018  15.208   9.582  0.00  0.00     0.028 A 
HETATM    3  N   UNK N   1      33.606  15.054  10.858  0.00  0.00    -0.354 N 
HETATM    4  C   UNK N   1      34.656  14.504  11.503  0.00  0.00     0.182 A 
ATOM      5  HN  UNK N   1      32.697  15.300  11.250  1.00  0.00     0.166 HD
HETATM    6  N   UNK N   1      35.690  14.319  10.662  0.00  0.00    -0.355 N 
HETATM    7  C   UNK N   1      36.982  13.752  10.999  0.00  0.00     0.156 C 
HETATM    8  C   UNK N   1      35.310  14.754   9.453  0.00  0.00     0.116 A 
ENDBRANCH   1   2
BRANCH   1   9
HETATM    9  C   UNK N   1      33.110  17.308   8.340  0.00  0.00     0.178 C 
BRANCH   9  10
HETATM   10  N   UNK N   1      31.963  18.029   8.870  0.00  0.00    -0.417 N 
HETATM   11  H   UNK N   1      31.891  18.205   9.872  0.00  0.00     0.150 HD
HETATM   12  H   UNK N   1      31.231  18.358   8.240  0.00  0.00     0.150 HD
ENDBRANCH   9  10
BRANCH   9  13
HETATM   13  C   UNK N   1      34.191  18.102   7.676  0.00  0.00     0.163 C 
HETATM   14  O   UNK N   1      34.439  17.927   6.493  0.00  0.00    -0.648 OA
BRANCH  13  15
HETATM   15  O   UNK N   1      34.894  19.011   8.377  0.00  0.00    -0.775 OA
HETATM   16  H   UNK N   1      34.531  19.386   9.155  0.00  0.00     0.167 HD
ENDBRANCH  13  15
ENDBRANCH   9  13
ENDBRANCH   1   9
TORSDOF 5
ENDMDL
MODEL 5
REMARK VINA RESULT:      -4.2     12.377     12.884
REMARK  5 active torsions:
REMARK  status: ('A' for Active; 'I' for Inactive)
REMARK    1  A    between atoms: C_6  and  C_7 
REMARK    2  A    between atoms: C_7  and  C_8 
REMARK    3  A    between atoms: C_8  and  N_9 
REMARK    4  A    between atoms: C_8  and  C_10 
REMARK    5  A    between atoms: C_10  and  O_11 
ROOT
HETATM    1  C   UNK N   1      42.297  21.092   3.255  0.00  0.00     0.094 C 
ENDROOT
BRANCH   1   2
HETATM    2  C   UNK N   1      41.742  22.066   2.258  0.00  0.00     0.028 A 
HETATM    3  N   UNK N   1      41.874  23.409   2.296  0.00  0.00    -0.354 N 
HETATM    4  C   UNK N   1      41.217  23.857   1.206  0.00  0.00     0.182 A 
ATOM      5  HN  UNK N   1      42.364  23.964   2.997  1.00  0.00     0.166 HD
HETATM    6  N   UNK N   1      40.692  22.833   0.509  0.00  0.00    -0.355 N 
HETATM    7  C   UNK N   1      39.921  22.931  -0.716  0.00  0.00     0.156 C 
HETATM    8  C   UNK N   1      41.010  21.702   1.152  0.00  0.00     0.116 A 
ENDBRANCH   1   2
BRANCH   1   9
HETATM    9  C   UNK N   1      43.817  21.038   3.449  0.00  0.00     0.178 C 
BRANCH   9  10
HETATM   10  N   UNK N   1      44.629  20.031   2.783  0.00  0.00    -0.417 N 
HETATM   11  H   UNK N   1      44.210  19.147   2.493  0.00  0.00     0.150 HD
HETATM   12  H   UNK N   1      45.618  20.209   2.606  0.00  0.00     0.150 HD
ENDBRANCH   9  10
BRANCH   9  13
HETATM   13  C   UNK N   1      44.511  22.025   4.334  0.00  0.00     0.163 C 
HETATM   14  O   UNK N   1      43.881  22.627   5.189  0.00  0.00    -0.648 OA
BRANCH  13  15
HETATM   15  O   UNK N   1      45.831  22.254   4.192  0.00  0.00    -0.775 OA
HETATM   16  H   UNK N   1      46.372  21.623   3.762  0.00  0.00     0.167 HD
ENDBRANCH  13  15
ENDBRANCH   9  13
ENDBRANCH   1   9
TORSDOF 5
ENDMDL
MODEL 6
REMARK VINA RESULT:      -4.2      3.716      4.811
REMARK  5 active torsions:
REMARK  status: ('A' for Active; 'I' for Inactive)
REMARK    1  A    between atoms: C_6  and  C_7 
REMARK    2  A    between atoms: C_7  and  C_8 
REMARK    3  A    between atoms: C_8  and  N_9 
REMARK    4  A    between atoms: C_8  and  C_10 
REMARK    5  A    between atoms: C_10  and  O_11 
ROOT
HETATM    1  C   UNK N   1      29.303  17.339   7.186  0.00  0.00     0.094 C 
ENDROOT
BRANCH   1   2
HETATM    2  C   UNK N   1      28.432  18.392   6.567  0.00  0.00     0.028 A 
HETATM    3  N   UNK N   1      27.671  19.288   7.229  0.00  0.00    -0.354 N 
HETATM    4  C   UNK N   1      27.073  20.021   6.266  0.00  0.00     0.182 A 
ATOM      5  HN  UNK N   1      27.569  19.390   8.239  1.00  0.00     0.166 HD
HETATM    6  N   UNK N   1      27.446  19.600   5.044  0.00  0.00    -0.355 N 
HETATM    7  C   UNK N   1      27.008  20.147   3.775  0.00  0.00     0.156 C 
HETATM    8  C   UNK N   1      28.297  18.579   5.211  0.00  0.00     0.116 A 
ENDBRANCH   1   2
BRANCH   1   9
HETATM    9  C   UNK N   1      29.790  17.552   8.624  0.00  0.00     0.178 C 
BRANCH   9  10
HETATM   10  N   UNK N   1      31.089  18.144   8.904  0.00  0.00    -0.417 N 
HETATM   11  H   UNK N   1      31.796  17.607   9.406  0.00  0.00     0.150 HD
HETATM   12  H   UNK N   1      31.293  19.095   8.598  0.00  0.00     0.150 HD
ENDBRANCH   9  10
BRANCH   9  13
HETATM   13  C   UNK N   1      28.936  17.155   9.788  0.00  0.00     0.163 C 
HETATM   14  O   UNK N   1      27.719  17.206   9.699  0.00  0.00    -0.648 OA
BRANCH  13  15
HETATM   15  O   UNK N   1      29.504  16.741  10.937  0.00  0.00    -0.775 OA
HETATM   16  H   UNK N   1      29.345  15.874  11.251  0.00  0.00     0.167 HD
ENDBRANCH  13  15
ENDBRANCH   9  13
ENDBRANCH   1   9
TORSDOF 5
ENDMDL
MODEL 7
REMARK VINA RESULT:      -4.1     12.317     13.146
REMARK  5 active torsions:
REMARK  status: ('A' for Active; 'I' for Inactive)
REMARK    1  A    between atoms: C_6  and  C_7 
REMARK    2  A    between atoms: C_7  and  C_8 
REMARK    3  A    between atoms: C_8  and  N_9 
REMARK    4  A    between atoms: C_8  and  C_10 
REMARK    5  A    between atoms: C_10  and  O_11 
ROOT
HETATM    1  C   UNK N   1      43.254  21.700   4.062  0.00  0.00     0.094 C 
ENDROOT
BRANCH   1   2
HETATM    2  C   UNK N   1      42.437  22.211   2.913  0.00  0.00     0.028 A 
HETATM    3  N   UNK N   1      42.401  23.483   2.462  0.00  0.00    -0.354 N 
HETATM    4  C   UNK N   1      41.537  23.464   1.426  0.00  0.00     0.182 A 
ATOM      5  HN  UNK N   1      42.916  24.284   2.827  1.00  0.00     0.166 HD
HETATM    6  N   UNK N   1      41.048  22.226   1.233  0.00  0.00    -0.355 N 
HETATM    7  C   UNK N   1      40.097  21.826   0.214  0.00  0.00     0.156 C 
HETATM    8  C   UNK N   1      41.600  21.426   2.154  0.00  0.00     0.116 A 
ENDBRANCH   1   2
BRANCH   1   9
HETATM    9  C   UNK N   1      44.724  21.345   3.807  0.00  0.00     0.178 C 
BRANCH   9  10
HETATM   10  N   UNK N   1      45.795  22.269   4.145  0.00  0.00    -0.417 N 
HETATM   11  H   UNK N   1      46.574  21.957   4.725  0.00  0.00     0.150 HD
HETATM   12  H   UNK N   1      45.767  23.230   3.802  0.00  0.00     0.150 HD
ENDBRANCH   9  10
BRANCH   9  13
HETATM   13  C   UNK N   1      45.100  20.030   3.199  0.00  0.00     0.163 C 
HETATM   14  O   UNK N   1      44.299  19.107   3.195  0.00  0.00    -0.648 OA
BRANCH  13  15
HETATM   15  O   UNK N   1      46.319  19.856   2.655  0.00  0.00    -0.775 OA
HETATM   16  H   UNK N   1      46.469  20.085   1.760  0.00  0.00     0.167 HD
ENDBRANCH  13  15
ENDBRANCH   9  13
ENDBRANCH   1   9
TORSDOF 5
ENDMDL
MODEL 8
REMARK VINA RESULT:      -4.1      2.353      2.728
REMARK  5 active torsions:
REMARK  status: ('A' for Active; 'I' for Inactive)
REMARK    1  A    between atoms: C_6  and  C_7 
REMARK    2  A    between atoms: C_7  and  C_8 
REMARK    3  A    between atoms: C_8  and  N_9 
REMARK    4  A    between atoms: C_8  and  C_10 
REMARK    5  A    between atoms: C_10  and  O_11 
ROOT
HETATM    1  C   UNK N   1      33.496  14.939   9.500  0.00  0.00     0.094 C 
ENDROOT
BRANCH   1   2
HETATM    2  C   UNK N   1      32.580  15.891   8.790  0.00  0.00     0.028 A 
HETATM    3  N   UNK N   1      32.357  17.181   9.120  0.00  0.00    -0.354 N 
HETATM    4  C   UNK N   1      31.470  17.629   8.207  0.00  0.00     0.182 A 
ATOM      5  HN  UNK N   1      32.769  17.703   9.893  1.00  0.00     0.166 HD
HETATM    6  N   UNK N   1      31.148  16.656   7.335  0.00  0.00    -0.355 N 
HETATM    7  C   UNK N   1      30.228  16.770   6.220  0.00  0.00     0.156 C 
HETATM    8  C   UNK N   1      31.833  15.559   7.683  0.00  0.00     0.116 A 
ENDBRANCH   1   2
BRANCH   1   9
HETATM    9  C   UNK N   1      35.005  15.210   9.450  0.00  0.00     0.178 C 
BRANCH   9  10
HETATM   10  N   UNK N   1      35.865  14.526   8.498  0.00  0.00    -0.417 N 
HETATM   11  H   UNK N   1      35.713  14.645   7.496  0.00  0.00     0.150 HD
HETATM   12  H   UNK N   1      36.621  13.927   8.831  0.00  0.00     0.150 HD
ENDBRANCH   9  10
BRANCH   9  13
HETATM   13  C   UNK N   1      35.638  16.191  10.387  0.00  0.00     0.163 C 
HETATM   14  O   UNK N   1      36.806  16.055  10.716  0.00  0.00    -0.648 OA
BRANCH  13  15
HETATM   15  O   UNK N   1      34.925  17.226  10.869  0.00  0.00    -0.775 OA
HETATM   16  H   UNK N   1      34.186  17.549  10.393  0.00  0.00     0.167 HD
ENDBRANCH  13  15
ENDBRANCH   9  13
ENDBRANCH   1   9
TORSDOF 5
ENDMDL
MODEL 9
REMARK VINA RESULT:      -4.0      3.896      5.891
REMARK  5 active torsions:
REMARK  status: ('A' for Active; 'I' for Inactive)
REMARK    1  A    between atoms: C_6  and  C_7 
REMARK    2  A    between atoms: C_7  and  C_8 
REMARK    3  A    between atoms: C_8  and  N_9 
REMARK    4  A    between atoms: C_8  and  C_10 
REMARK    5  A    between atoms: C_10  and  O_11 
ROOT
HETATM    1  C   UNK N   1      27.933  18.218   6.400  0.00  0.00     0.094 C 
ENDROOT
BRANCH   1   2
HETATM    2  C   UNK N   1      29.038  18.036   7.397  0.00  0.00     0.028 A 
HETATM    3  N   UNK N   1      29.146  18.655   8.591  0.00  0.00    -0.354 N 
HETATM    4  C   UNK N   1      30.289  18.182   9.130  0.00  0.00     0.182 A 
ATOM      5  HN  UNK N   1      28.503  19.334   8.998  1.00  0.00     0.166 HD
HETATM    6  N   UNK N   1      30.878  17.298   8.305  0.00  0.00    -0.355 N 
HETATM    7  C   UNK N   1      32.118  16.587   8.548  0.00  0.00     0.156 C 
HETATM    8  C   UNK N   1      30.109  17.193   7.212  0.00  0.00     0.116 A 
ENDBRANCH   1   2
BRANCH   1   9
HETATM    9  C   UNK N   1      27.724  19.610   5.792  0.00  0.00     0.178 C 
BRANCH   9  10
HETATM   10  N   UNK N   1      28.144  19.913   4.433  0.00  0.00    -0.417 N 
HETATM   11  H   UNK N   1      27.942  20.828   4.028  0.00  0.00     0.150 HD
HETATM   12  H   UNK N   1      28.639  19.211   3.883  0.00  0.00     0.150 HD
ENDBRANCH   9  10
BRANCH   9  13
HETATM   13  C   UNK N   1      27.079  20.703   6.586  0.00  0.00     0.163 C 
HETATM   14  O   UNK N   1      27.032  21.838   6.137  0.00  0.00    -0.648 OA
BRANCH  13  15
HETATM   15  O   UNK N   1      26.549  20.442   7.796  0.00  0.00    -0.775 OA
HETATM   16  H   UNK N   1      26.809  19.675   8.266  0.00  0.00     0.167 HD
ENDBRANCH  13  15
ENDBRANCH   9  13
ENDBRANCH   1   9
TORSDOF 5
ENDMDL
