MODEL 1
REMARK VINA RESULT:      -6.5      0.000      0.000
REMARK  8 active torsions:
REMARK  status: ('A' for Active; 'I' for Inactive)
REMARK       I    between atoms: N_1  and  C_2 
REMARK    1  A    between atoms: C_9  and  C_10 
REMARK    2  A    between atoms: C_10  and  O_11 
REMARK    3  A    between atoms: P_12  and  O_11 
REMARK    4  A    between atoms: P_12  and  O_13 
REMARK    5  A    between atoms: P_12  and  O_15 
REMARK    6  A    between atoms: O_15  and  P_16 
REMARK    7  A    between atoms: P_16  and  O_17 
REMARK    8  A    between atoms: P_16  and  O_18 
ROOT
HETATM    1  N   UNK N   1      20.651  20.877   0.385  0.00  0.00    -0.234 N 
HETATM    2  C   UNK N   1      20.579  19.935   1.430  0.00  0.00     0.680 A 
HETATM    3  N   UNK N   1      20.240  18.645   1.159  0.00  0.00    -0.174 N 
ATOM      4  HN  UNK N   1      20.049  18.364   0.198  1.00  0.00     0.186 HD
HETATM    5  C   UNK N   1      20.151  17.726   2.158  0.00  0.00     0.153 A 
HETATM    6  N   UNK N   1      19.804  16.440   1.885  0.00  0.00    -0.348 N 
ATOM      7  HN  UNK N   1      19.624  16.160   0.920  1.00  0.00     0.167 HD
HETATM    8  C   UNK N   1      19.695  15.521   2.885  0.00  0.00     0.117 A 
HETATM    9  C   UNK N   1      19.946  15.904   4.209  0.00  0.00     0.050 A 
HETATM   10  N   UNK N   1      20.301  17.188   4.480  0.00  0.00    -0.349 N 
ATOM     11  HN  UNK N   1      20.488  17.466   5.443  1.00  0.00     0.166 HD
HETATM   12  C   UNK N   1      20.410  18.105   3.484  0.00  0.00     0.147 A 
HETATM   13  C   UNK N   1      20.767  19.429   3.745  0.00  0.00     0.290 A 
HETATM   14  O   UNK N   1      21.005  19.796   4.881  0.00  0.00    -0.265 OA
HETATM   15  N   UNK N   1      20.844  20.322   2.708  0.00  0.00    -0.154 N 
HETATM   16  H   UNK N   1      20.502  20.607  -0.550  0.00  0.00     0.174 HD
HETATM   17  H   UNK N   1      20.854  21.818   0.592  0.00  0.00     0.174 HD
HETATM   18  H   UNK N   1      21.093  21.257   2.890  0.00  0.00     0.187 HD
ENDROOT
BRANCH   9  19
HETATM   19  C   UNK N   1      19.791  14.936   5.333  0.00  0.00     0.239 C 
BRANCH  19  20
HETATM   20  O   UNK N   1      19.240  15.566   6.452  0.00  0.00    -0.291 OA
BRANCH  20  21
HETATM   21  P   UNK N   1      20.354  15.239   7.747  0.00  0.00     0.402 P 
HETATM   22  O   UNK N   1      19.093  15.786   8.470  0.00  0.00    -0.631 OA
BRANCH  21  23
HETATM   23  O   UNK N   1      19.993  13.770   6.890  0.00  0.00    -0.307 OA
HETATM   24  H   UNK N   1      19.294  13.517   6.268  0.00  0.00     0.222 HD
ENDBRANCH  21  23
BRANCH  21  25
HETATM   25  O   UNK N   1      19.990  13.966   8.884  0.00  0.00    -0.195 OA
BRANCH  25  26
HETATM   26  P   UNK N   1      21.477  13.666   9.742  0.00  0.00     0.399 P 
HETATM   27  O   UNK N   1      21.247  12.331   8.984  0.00  0.00    -0.631 OA
BRANCH  26  28
HETATM   28  O   UNK N   1      22.957  13.436   8.864  0.00  0.00    -0.307 OA
HETATM   29  H   UNK N   1      23.738  12.982   9.215  0.00  0.00     0.222 HD
ENDBRANCH  26  28
BRANCH  26  30
HETATM   30  O   UNK N   1      21.717  14.961   8.610  0.00  0.00    -0.307 OA
HETATM   31  H   UNK N   1      22.357  14.999   7.884  0.00  0.00     0.222 HD
ENDBRANCH  26  30
ENDBRANCH  25  26
ENDBRANCH  21  25
ENDBRANCH  20  21
ENDBRANCH  19  20
ENDBRANCH   9  19
TORSDOF 8
ENDMDL
MODEL 2
REMARK VINA RESULT:      -6.2     16.310     18.079
REMARK  8 active torsions:
REMARK  status: ('A' for Active; 'I' for Inactive)
REMARK       I    between atoms: N_1  and  C_2 
REMARK    1  A    between atoms: C_9  and  C_10 
REMARK    2  A    between atoms: C_10  and  O_11 
REMARK    3  A    between atoms: P_12  and  O_11 
REMARK    4  A    between atoms: P_12  and  O_13 
REMARK    5  A    between atoms: P_12  and  O_15 
REMARK    6  A    between atoms: O_15  and  P_16 
REMARK    7  A    between atoms: P_16  and  O_17 
REMARK    8  A    between atoms: P_16  and  O_18 
ROOT
HETATM    1  N   UNK N   1      34.960  12.112  17.771  0.00  0.00    -0.234 N 
HETATM    2  C   UNK N   1      35.371  12.747  16.583  0.00  0.00     0.680 A 
HETATM    3  N   UNK N   1      34.848  12.356  15.388  0.00  0.00    -0.174 N 
ATOM      4  HN  UNK N   1      34.152  11.611  15.362  1.00  0.00     0.186 HD
HETATM    5  C   UNK N   1      35.244  12.947  14.230  0.00  0.00     0.153 A 
HETATM    6  N   UNK N   1      34.725  12.548  13.037  0.00  0.00    -0.348 N 
ATOM      7  HN  UNK N   1      34.022  11.809  13.015  1.00  0.00     0.167 HD
HETATM    8  C   UNK N   1      35.134  13.125  11.873  0.00  0.00     0.117 A 
HETATM    9  C   UNK N   1      36.097  14.142  11.903  0.00  0.00     0.050 A 
HETATM   10  N   UNK N   1      36.609  14.546  13.096  0.00  0.00    -0.349 N 
ATOM     11  HN  UNK N   1      37.307  15.289  13.118  1.00  0.00     0.166 HD
HETATM   12  C   UNK N   1      36.202  13.971  14.258  0.00  0.00     0.147 A 
HETATM   13  C   UNK N   1      36.722  14.369  15.491  0.00  0.00     0.290 A 
HETATM   14  O   UNK N   1      37.551  15.259  15.558  0.00  0.00    -0.265 OA
HETATM   15  N   UNK N   1      36.294  13.745  16.634  0.00  0.00    -0.154 N 
HETATM   16  H   UNK N   1      34.265  11.416  17.758  0.00  0.00     0.174 HD
HETATM   17  H   UNK N   1      35.374  12.369  18.627  0.00  0.00     0.174 HD
HETATM   18  H   UNK N   1      36.662  14.023  17.505  0.00  0.00     0.187 HD
ENDROOT
BRANCH   9  19
HETATM   19  C   UNK N   1      36.601  14.762  10.644  0.00  0.00     0.239 C 
BRANCH  19  20
HETATM   20  O   UNK N   1      36.358  16.139  10.642  0.00  0.00    -0.291 OA
BRANCH  20  21
HETATM   21  P   UNK N   1      34.867  16.332   9.768  0.00  0.00     0.402 P 
HETATM   22  O   UNK N   1      35.436  17.774   9.857  0.00  0.00    -0.631 OA
BRANCH  21  23
HETATM   23  O   UNK N   1      35.942  15.291   8.883  0.00  0.00    -0.307 OA
HETATM   24  H   UNK N   1      36.885  15.082   8.967  0.00  0.00     0.222 HD
ENDBRANCH  21  23
BRANCH  21  25
HETATM   25  O   UNK N   1      34.917  16.820   8.094  0.00  0.00    -0.195 OA
BRANCH  25  26
HETATM   26  P   UNK N   1      33.619  17.967   7.902  0.00  0.00     0.399 P 
HETATM   27  O   UNK N   1      34.199  17.867   6.465  0.00  0.00    -0.631 OA
BRANCH  26  28
HETATM   28  O   UNK N   1      32.237  17.562   6.933  0.00  0.00    -0.307 OA
HETATM   29  H   UNK N   1      31.493  18.160   6.760  0.00  0.00     0.222 HD
ENDBRANCH  26  28
BRANCH  26  30
HETATM   30  O   UNK N   1      32.965  16.434   8.390  0.00  0.00    -0.307 OA
HETATM   31  H   UNK N   1      32.049  16.232   8.631  0.00  0.00     0.222 HD
ENDBRANCH  26  30
ENDBRANCH  25  26
ENDBRANCH  21  25
ENDBRANCH  20  21
ENDBRANCH  19  20
ENDBRANCH   9  19
TORSDOF 8
ENDMDL
MODEL 3
REMARK VINA RESULT:      -6.2      5.144      8.446
REMARK  8 active torsions:
REMARK  status: ('A' for Active; 'I' for Inactive)
REMARK       I    between atoms: N_1  and  C_2 
REMARK    1  A    between atoms: C_9  and  C_10 
REMARK    2  A    between atoms: C_10  and  O_11 
REMARK    3  A    between atoms: P_12  and  O_11 
REMARK    4  A    between atoms: P_12  and  O_13 
REMARK    5  A    between atoms: P_12  and  O_15 
REMARK    6  A    between atoms: O_15  and  P_16 
REMARK    7  A    between atoms: P_16  and  O_17 
REMARK    8  A    between atoms: P_16  and  O_18 
ROOT
HETATM    1  N   UNK N   1      22.836  11.381  12.739  0.00  0.00    -0.234 N 
HETATM    2  C   UNK N   1      22.852  12.141  11.553  0.00  0.00     0.680 A 
HETATM    3  N   UNK N   1      21.691  12.661  11.065  0.00  0.00    -0.174 N 
ATOM      4  HN  UNK N   1      20.818  12.505  11.567  1.00  0.00     0.186 HD
HETATM    5  C   UNK N   1      21.686  13.385   9.914  0.00  0.00     0.153 A 
HETATM    6  N   UNK N   1      20.525  13.897   9.425  0.00  0.00    -0.348 N 
ATOM      7  HN  UNK N   1      19.653  13.747   9.935  1.00  0.00     0.167 HD
HETATM    8  C   UNK N   1      20.512  14.606   8.262  0.00  0.00     0.117 A 
HETATM    9  C   UNK N   1      21.709  14.814   7.563  0.00  0.00     0.050 A 
HETATM   10  N   UNK N   1      22.870  14.310   8.058  0.00  0.00    -0.349 N 
ATOM     11  HN  UNK N   1      23.741  14.465   7.551  1.00  0.00     0.166 HD
HETATM   12  C   UNK N   1      22.884  13.602   9.217  0.00  0.00     0.147 A 
HETATM   13  C   UNK N   1      24.066  13.072   9.735  0.00  0.00     0.290 A 
HETATM   14  O   UNK N   1      25.128  13.243   9.163  0.00  0.00    -0.265 OA
HETATM   15  N   UNK N   1      24.026  12.348  10.898  0.00  0.00    -0.154 N 
HETATM   16  H   UNK N   1      22.002  11.254  13.247  0.00  0.00     0.174 HD
HETATM   17  H   UNK N   1      23.669  10.970  13.064  0.00  0.00     0.174 HD
HETATM   18  H   UNK N   1      24.859  11.970  11.264  0.00  0.00     0.187 HD
ENDROOT
BRANCH   9  19
HETATM   19  C   UNK N   1      21.723  15.546   6.264  0.00  0.00     0.239 C 
BRANCH  19  20
HETATM   20  O   UNK N   1      20.924  16.690   6.334  0.00  0.00    -0.291 OA
BRANCH  20  21
HETATM   21  P   UNK N   1      21.700  17.847   5.293  0.00  0.00     0.402 P 
HETATM   22  O   UNK N   1      20.423  17.438   4.509  0.00  0.00    -0.631 OA
BRANCH  21  23
HETATM   23  O   UNK N   1      21.290  18.594   6.807  0.00  0.00    -0.307 OA
HETATM   24  H   UNK N   1      21.606  19.389   7.264  0.00  0.00     0.222 HD
ENDBRANCH  21  23
BRANCH  21  25
HETATM   25  O   UNK N   1      20.929  19.384   5.002  0.00  0.00    -0.195 OA
BRANCH  25  26
HETATM   26  P   UNK N   1      21.101  19.679   3.293  0.00  0.00     0.399 P 
HETATM   27  O   UNK N   1      20.346  20.945   3.781  0.00  0.00    -0.631 OA
BRANCH  26  28
HETATM   28  O   UNK N   1      22.094  20.987   2.732  0.00  0.00    -0.307 OA
HETATM   29  H   UNK N   1      22.892  21.304   3.184  0.00  0.00     0.222 HD
ENDBRANCH  26  28
BRANCH  26  30
HETATM   30  O   UNK N   1      22.674  19.603   4.025  0.00  0.00    -0.307 OA
HETATM   31  H   UNK N   1      22.883  19.495   4.965  0.00  0.00     0.222 HD
ENDBRANCH  26  30
ENDBRANCH  25  26
ENDBRANCH  21  25
ENDBRANCH  20  21
ENDBRANCH  19  20
ENDBRANCH   9  19
TORSDOF 8
ENDMDL
MODEL 4
REMARK VINA RESULT:      -6.1      1.865      2.889
REMARK  8 active torsions:
REMARK  status: ('A' for Active; 'I' for Inactive)
REMARK       I    between atoms: N_1  and  C_2 
REMARK    1  A    between atoms: C_9  and  C_10 
REMARK    2  A    between atoms: C_10  and  O_11 
REMARK    3  A    between atoms: P_12  and  O_11 
REMARK    4  A    between atoms: P_12  and  O_13 
REMARK    5  A    between atoms: P_12  and  O_15 
REMARK    6  A    between atoms: O_15  and  P_16 
REMARK    7  A    between atoms: P_16  and  O_17 
REMARK    8  A    between atoms: P_16  and  O_18 
ROOT
HETATM    1  N   UNK N   1      20.301  21.212   0.479  0.00  0.00    -0.234 N 
HETATM    2  C   UNK N   1      20.745  20.263   1.420  0.00  0.00     0.680 A 
HETATM    3  N   UNK N   1      20.090  19.076   1.547  0.00  0.00    -0.174 N 
ATOM      4  HN  UNK N   1      19.287  18.876   0.952  1.00  0.00     0.186 HD
HETATM    5  C   UNK N   1      20.495  18.154   2.461  0.00  0.00     0.153 A 
HETATM    6  N   UNK N   1      19.834  16.973   2.591  0.00  0.00    -0.348 N 
ATOM      7  HN  UNK N   1      19.037  16.772   1.986  1.00  0.00     0.167 HD
HETATM    8  C   UNK N   1      20.225  16.055   3.518  0.00  0.00     0.117 A 
HETATM    9  C   UNK N   1      21.322  16.329   4.345  0.00  0.00     0.050 A 
HETATM   10  N   UNK N   1      21.988  17.506   4.209  0.00  0.00    -0.349 N 
ATOM     11  HN  UNK N   1      22.789  17.703   4.808  1.00  0.00     0.166 HD
HETATM   12  C   UNK N   1      21.599  18.422   3.285  0.00  0.00     0.147 A 
HETATM   13  C   UNK N   1      22.266  19.639   3.136  0.00  0.00     0.290 A 
HETATM   14  O   UNK N   1      23.232  19.907   3.828  0.00  0.00    -0.265 OA
HETATM   15  N   UNK N   1      21.823  20.540   2.203  0.00  0.00    -0.154 N 
HETATM   16  H   UNK N   1      19.548  21.014  -0.123  0.00  0.00     0.174 HD
HETATM   17  H   UNK N   1      20.751  22.086   0.421  0.00  0.00     0.174 HD
HETATM   18  H   UNK N   1      22.291  21.400   2.098  0.00  0.00     0.187 HD
ENDROOT
BRANCH   9  19
HETATM   19  C   UNK N   1      21.748  15.366   5.402  0.00  0.00     0.239 C 
BRANCH  19  20
HETATM   20  O   UNK N   1      22.009  16.036   6.601  0.00  0.00    -0.291 OA
BRANCH  20  21
HETATM   21  P   UNK N   1      20.488  16.059   7.444  0.00  0.00     0.402 P 
HETATM   22  O   UNK N   1      21.420  15.244   8.381  0.00  0.00    -0.631 OA
BRANCH  21  23
HETATM   23  O   UNK N   1      21.077  17.682   7.238  0.00  0.00    -0.307 OA
HETATM   24  H   UNK N   1      20.919  18.367   6.570  0.00  0.00     0.222 HD
ENDBRANCH  21  23
BRANCH  21  25
HETATM   25  O   UNK N   1      20.362  16.929   8.951  0.00  0.00    -0.195 OA
BRANCH  25  26
HETATM   26  P   UNK N   1      18.862  17.811   8.859  0.00  0.00     0.399 P 
HETATM   27  O   UNK N   1      18.474  16.569   9.707  0.00  0.00    -0.631 OA
BRANCH  26  28
HETATM   28  O   UNK N   1      18.167  18.498  10.294  0.00  0.00    -0.307 OA
HETATM   29  H   UNK N   1      17.299  18.256  10.654  0.00  0.00     0.222 HD
ENDBRANCH  26  28
BRANCH  26  30
HETATM   30  O   UNK N   1      20.040  18.767   9.705  0.00  0.00    -0.307 OA
HETATM   31  H   UNK N   1      20.800  18.450  10.215  0.00  0.00     0.222 HD
ENDBRANCH  26  30
ENDBRANCH  25  26
ENDBRANCH  21  25
ENDBRANCH  20  21
ENDBRANCH  19  20
ENDBRANCH   9  19
TORSDOF 8
ENDMDL
MODEL 5
REMARK VINA RESULT:      -6.0     13.235     14.509
REMARK  8 active torsions:
REMARK  status: ('A' for Active; 'I' for Inactive)
REMARK       I    between atoms: N_1  and  C_2 
REMARK    1  A    between atoms: C_9  and  C_10 
REMARK    2  A    between atoms: C_10  and  O_11 
REMARK    3  A    between atoms: P_12  and  O_11 
REMARK    4  A    between atoms: P_12  and  O_13 
REMARK    5  A    between atoms: P_12  and  O_15 
REMARK    6  A    between atoms: O_15  and  P_16 
REMARK    7  A    between atoms: P_16  and  O_17 
REMARK    8  A    between atoms: P_16  and  O_18 
ROOT
HETATM    1  N   UNK N   1      36.898  13.964  13.516  0.00  0.00    -0.234 N 
HETATM    2  C   UNK N   1      36.186  14.422  12.390  0.00  0.00     0.680 A 
HETATM    3  N   UNK N   1      35.347  13.577  11.728  0.00  0.00    -0.174 N 
ATOM      4  HN  UNK N   1      35.232  12.619  12.058  1.00  0.00     0.186 HD
HETATM    5  C   UNK N   1      34.664  13.997  10.630  0.00  0.00     0.153 A 
HETATM    6  N   UNK N   1      33.833  13.148   9.967  0.00  0.00    -0.348 N 
ATOM      7  HN  UNK N   1      33.712  12.193  10.306  1.00  0.00     0.167 HD
HETATM    8  C   UNK N   1      33.162  13.559   8.856  0.00  0.00     0.117 A 
HETATM    9  C   UNK N   1      33.325  14.871   8.392  0.00  0.00     0.050 A 
HETATM   10  N   UNK N   1      34.149  15.721   9.060  0.00  0.00    -0.349 N 
ATOM     11  HN  UNK N   1      34.265  16.677   8.725  1.00  0.00     0.166 HD
HETATM   12  C   UNK N   1      34.820  15.312  10.169  0.00  0.00     0.147 A 
HETATM   13  C   UNK N   1      35.674  16.169  10.863  0.00  0.00     0.290 A 
HETATM   14  O   UNK N   1      35.832  17.321  10.498  0.00  0.00    -0.265 OA
HETATM   15  N   UNK N   1      36.344  15.704  11.965  0.00  0.00    -0.154 N 
HETATM   16  H   UNK N   1      36.766  13.052  13.861  0.00  0.00     0.174 HD
HETATM   17  H   UNK N   1      37.536  14.565  13.964  0.00  0.00     0.174 HD
HETATM   18  H   UNK N   1      36.950  16.307  12.455  0.00  0.00     0.187 HD
ENDROOT
BRANCH   9  19
HETATM   19  C   UNK N   1      32.642  15.340   7.152  0.00  0.00     0.239 C 
BRANCH  19  20
HETATM   20  O   UNK N   1      31.263  15.441   7.358  0.00  0.00    -0.291 OA
BRANCH  20  21
HETATM   21  P   UNK N   1      30.868  17.089   6.965  0.00  0.00     0.402 P 
HETATM   22  O   UNK N   1      30.173  16.263   5.849  0.00  0.00    -0.631 OA
BRANCH  21  23
HETATM   23  O   UNK N   1      30.229  16.683   8.530  0.00  0.00    -0.307 OA
HETATM   24  H   UNK N   1      29.457  16.986   9.033  0.00  0.00     0.222 HD
ENDBRANCH  21  23
BRANCH  21  25
HETATM   25  O   UNK N   1      29.210  17.619   7.081  0.00  0.00    -0.195 OA
BRANCH  25  26
HETATM   26  P   UNK N   1      28.844  17.641   8.785  0.00  0.00     0.399 P 
HETATM   27  O   UNK N   1      29.042  19.147   8.461  0.00  0.00    -0.631 OA
BRANCH  26  28
HETATM   28  O   UNK N   1      27.376  18.375   9.349  0.00  0.00    -0.307 OA
HETATM   29  H   UNK N   1      26.882  19.056   8.867  0.00  0.00     0.222 HD
ENDBRANCH  26  28
BRANCH  26  30
HETATM   30  O   UNK N   1      27.479  17.017   7.911  0.00  0.00    -0.307 OA
HETATM   31  H   UNK N   1      27.266  16.088   7.734  0.00  0.00     0.222 HD
ENDBRANCH  26  30
ENDBRANCH  25  26
ENDBRANCH  21  25
ENDBRANCH  20  21
ENDBRANCH  19  20
ENDBRANCH   9  19
TORSDOF 8
ENDMDL
MODEL 6
REMARK VINA RESULT:      -5.9     16.174     18.123
REMARK  8 active torsions:
REMARK  status: ('A' for Active; 'I' for Inactive)
REMARK       I    between atoms: N_1  and  C_2 
REMARK    1  A    between atoms: C_9  and  C_10 
REMARK    2  A    between atoms: C_10  and  O_11 
REMARK    3  A    between atoms: P_12  and  O_11 
REMARK    4  A    between atoms: P_12  and  O_13 
REMARK    5  A    between atoms: P_12  and  O_15 
REMARK    6  A    between atoms: O_15  and  P_16 
REMARK    7  A    between atoms: P_16  and  O_17 
REMARK    8  A    between atoms: P_16  and  O_18 
ROOT
HETATM    1  N   UNK N   1      36.452  10.214  17.361  0.00  0.00    -0.234 N 
HETATM    2  C   UNK N   1      35.976  10.783  16.164  0.00  0.00     0.680 A 
HETATM    3  N   UNK N   1      36.762  11.646  15.463  0.00  0.00    -0.174 N 
ATOM      4  HN  UNK N   1      37.697  11.868  15.804  1.00  0.00     0.186 HD
HETATM    5  C   UNK N   1      36.313  12.217  14.314  0.00  0.00     0.153 A 
HETATM    6  N   UNK N   1      37.098  13.085  13.620  0.00  0.00    -0.348 N 
ATOM      7  HN  UNK N   1      38.037  13.296  13.959  1.00  0.00     0.167 HD
HETATM    8  C   UNK N   1      36.645  13.673  12.478  0.00  0.00     0.117 A 
HETATM    9  C   UNK N   1      35.356  13.380  12.011  0.00  0.00     0.050 A 
HETATM   10  N   UNK N   1      34.576  12.506  12.700  0.00  0.00    -0.349 N 
ATOM     11  HN  UNK N   1      33.640  12.289  12.358  1.00  0.00     0.166 HD
HETATM   12  C   UNK N   1      35.027  11.918  13.839  0.00  0.00     0.147 A 
HETATM   13  C   UNK N   1      34.237  11.024  14.562  0.00  0.00     0.290 A 
HETATM   14  O   UNK N   1      33.117  10.735  14.181  0.00  0.00    -0.265 OA
HETATM   15  N   UNK N   1      34.729  10.473  15.717  0.00  0.00    -0.154 N 
HETATM   16  H   UNK N   1      37.365  10.396  17.679  0.00  0.00     0.174 HD
HETATM   17  H   UNK N   1      35.863   9.626  17.887  0.00  0.00     0.174 HD
HETATM   18  H   UNK N   1      34.172   9.844  16.230  0.00  0.00     0.187 HD
ENDROOT
BRANCH   9  19
HETATM   19  C   UNK N   1      34.811  14.042  10.791  0.00  0.00     0.239 C 
BRANCH  19  20
HETATM   20  O   UNK N   1      35.647  15.085  10.382  0.00  0.00    -0.291 OA
BRANCH  20  21
HETATM   21  P   UNK N   1      34.573  16.311   9.775  0.00  0.00     0.402 P 
HETATM   22  O   UNK N   1      35.597  17.104  10.632  0.00  0.00    -0.631 OA
BRANCH  21  23
HETATM   23  O   UNK N   1      35.359  15.503   8.452  0.00  0.00    -0.307 OA
HETATM   24  H   UNK N   1      35.506  15.737   7.523  0.00  0.00     0.222 HD
ENDBRANCH  21  23
BRANCH  21  25
HETATM   25  O   UNK N   1      35.179  17.490   8.641  0.00  0.00    -0.195 OA
BRANCH  25  26
HETATM   26  P   UNK N   1      33.768  18.279   7.988  0.00  0.00     0.399 P 
HETATM   27  O   UNK N   1      34.393  17.608   6.735  0.00  0.00    -0.631 OA
BRANCH  26  28
HETATM   28  O   UNK N   1      32.465  17.334   7.340  0.00  0.00    -0.307 OA
HETATM   29  H   UNK N   1      31.678  17.705   6.910  0.00  0.00     0.222 HD
ENDBRANCH  26  28
BRANCH  26  30
HETATM   30  O   UNK N   1      33.273  17.067   9.129  0.00  0.00    -0.307 OA
HETATM   31  H   UNK N   1      33.373  16.107   9.051  0.00  0.00     0.222 HD
ENDBRANCH  26  30
ENDBRANCH  25  26
ENDBRANCH  21  25
ENDBRANCH  20  21
ENDBRANCH  19  20
ENDBRANCH   9  19
TORSDOF 8
ENDMDL
MODEL 7
REMARK VINA RESULT:      -5.9     14.057     15.335
REMARK  8 active torsions:
REMARK  status: ('A' for Active; 'I' for Inactive)
REMARK       I    between atoms: N_1  and  C_2 
REMARK    1  A    between atoms: C_9  and  C_10 
REMARK    2  A    between atoms: C_10  and  O_11 
REMARK    3  A    between atoms: P_12  and  O_11 
REMARK    4  A    between atoms: P_12  and  O_13 
REMARK    5  A    between atoms: P_12  and  O_15 
REMARK    6  A    between atoms: O_15  and  P_16 
REMARK    7  A    between atoms: P_16  and  O_17 
REMARK    8  A    between atoms: P_16  and  O_18 
ROOT
HETATM    1  N   UNK N   1      37.168  13.463  12.341  0.00  0.00    -0.234 N 
HETATM    2  C   UNK N   1      36.273  14.264  11.605  0.00  0.00     0.680 A 
HETATM    3  N   UNK N   1      35.144  13.713  11.078  0.00  0.00    -0.174 N 
ATOM      4  HN  UNK N   1      34.948  12.724  11.229  1.00  0.00     0.186 HD
HETATM    5  C   UNK N   1      34.278  14.468  10.352  0.00  0.00     0.153 A 
HETATM    6  N   UNK N   1      33.155  13.913   9.821  0.00  0.00    -0.348 N 
ATOM      7  HN  UNK N   1      32.956  12.924   9.983  1.00  0.00     0.167 HD
HETATM    8  C   UNK N   1      32.294  14.661   9.077  0.00  0.00     0.117 A 
HETATM    9  C   UNK N   1      32.565  16.018   8.859  0.00  0.00     0.050 A 
HETATM   10  N   UNK N   1      33.682  16.574   9.397  0.00  0.00    -0.349 N 
ATOM     11  HN  UNK N   1      33.877  17.563   9.242  1.00  0.00     0.166 HD
HETATM   12  C   UNK N   1      34.542  15.829  10.139  0.00  0.00     0.147 A 
HETATM   13  C   UNK N   1      35.697  16.382  10.694  0.00  0.00     0.290 A 
HETATM   14  O   UNK N   1      35.959  17.561  10.536  0.00  0.00    -0.265 OA
HETATM   15  N   UNK N   1      36.544  15.584  11.418  0.00  0.00    -0.154 N 
HETATM   16  H   UNK N   1      36.969  12.516  12.520  0.00  0.00     0.174 HD
HETATM   17  H   UNK N   1      38.004  13.856  12.682  0.00  0.00     0.174 HD
HETATM   18  H   UNK N   1      37.361  15.972  11.809  0.00  0.00     0.187 HD
ENDROOT
BRANCH   9  19
HETATM   19  C   UNK N   1      31.668  16.855   8.011  0.00  0.00     0.239 C 
BRANCH  19  20
HETATM   20  O   UNK N   1      32.403  17.526   7.030  0.00  0.00    -0.291 OA
BRANCH  20  21
HETATM   21  P   UNK N   1      32.742  16.325   5.819  0.00  0.00     0.402 P 
HETATM   22  O   UNK N   1      31.298  16.791   5.487  0.00  0.00    -0.631 OA
BRANCH  21  23
HETATM   23  O   UNK N   1      33.869  17.641   5.680  0.00  0.00    -0.307 OA
HETATM   24  H   UNK N   1      33.984  18.354   5.033  0.00  0.00     0.222 HD
ENDBRANCH  21  23
BRANCH  21  25
HETATM   25  O   UNK N   1      32.878  16.813   4.149  0.00  0.00    -0.195 OA
BRANCH  25  26
HETATM   26  P   UNK N   1      32.576  15.372   3.215  0.00  0.00     0.399 P 
HETATM   27  O   UNK N   1      33.644  16.111   2.364  0.00  0.00    -0.631 OA
BRANCH  26  28
HETATM   28  O   UNK N   1      33.829  14.187   3.015  0.00  0.00    -0.307 OA
HETATM   29  H   UNK N   1      33.700  13.315   2.611  0.00  0.00     0.222 HD
ENDBRANCH  26  28
BRANCH  26  30
HETATM   30  O   UNK N   1      33.244  14.930   4.756  0.00  0.00    -0.307 OA
HETATM   31  H   UNK N   1      34.113  14.541   4.934  0.00  0.00     0.222 HD
ENDBRANCH  26  30
ENDBRANCH  25  26
ENDBRANCH  21  25
ENDBRANCH  20  21
ENDBRANCH  19  20
ENDBRANCH   9  19
TORSDOF 8
ENDMDL
MODEL 8
REMARK VINA RESULT:      -5.9     16.013     17.666
REMARK  8 active torsions:
REMARK  status: ('A' for Active; 'I' for Inactive)
REMARK       I    between atoms: N_1  and  C_2 
REMARK    1  A    between atoms: C_9  and  C_10 
REMARK    2  A    between atoms: C_10  and  O_11 
REMARK    3  A    between atoms: P_12  and  O_11 
REMARK    4  A    between atoms: P_12  and  O_13 
REMARK    5  A    between atoms: P_12  and  O_15 
REMARK    6  A    between atoms: O_15  and  P_16 
REMARK    7  A    between atoms: P_16  and  O_17 
REMARK    8  A    between atoms: P_16  and  O_18 
ROOT
HETATM    1  N   UNK N   1      38.227  10.387  14.296  0.00  0.00    -0.234 N 
HETATM    2  C   UNK N   1      37.444  11.429  13.763  0.00  0.00     0.680 A 
HETATM    3  N   UNK N   1      37.852  12.075  12.635  0.00  0.00    -0.174 N 
ATOM      4  HN  UNK N   1      38.718  11.794  12.177  1.00  0.00     0.186 HD
HETATM    5  C   UNK N   1      37.116  13.093  12.115  0.00  0.00     0.153 A 
HETATM    6  N   UNK N   1      37.529  13.742  10.993  0.00  0.00    -0.348 N 
ATOM      7  HN  UNK N   1      38.392  13.450  10.531  1.00  0.00     0.167 HD
HETATM    8  C   UNK N   1      36.805  14.774  10.479  0.00  0.00     0.117 A 
HETATM    9  C   UNK N   1      35.619  15.172  11.110  0.00  0.00     0.050 A 
HETATM   10  N   UNK N   1      35.202  14.517  12.226  0.00  0.00    -0.349 N 
ATOM     11  HN  UNK N   1      34.337  14.804  12.684  1.00  0.00     0.166 HD
HETATM   12  C   UNK N   1      35.924  13.487  12.740  0.00  0.00     0.147 A 
HETATM   13  C   UNK N   1      35.513  12.809  13.888  0.00  0.00     0.290 A 
HETATM   14  O   UNK N   1      34.482  13.117  14.458  0.00  0.00    -0.265 OA
HETATM   15  N   UNK N   1      36.286  11.789  14.380  0.00  0.00    -0.154 N 
HETATM   16  H   UNK N   1      39.047  10.087  13.842  0.00  0.00     0.174 HD
HETATM   17  H   UNK N   1      37.951   9.953  15.136  0.00  0.00     0.174 HD
HETATM   18  H   UNK N   1      36.000  11.311  15.192  0.00  0.00     0.187 HD
ENDROOT
BRANCH   9  19
HETATM   19  C   UNK N   1      34.827  16.328  10.602  0.00  0.00     0.239 C 
BRANCH  19  20
HETATM   20  O   UNK N   1      35.448  16.899   9.488  0.00  0.00    -0.291 OA
BRANCH  20  21
HETATM   21  P   UNK N   1      34.157  17.235   8.373  0.00  0.00     0.402 P 
HETATM   22  O   UNK N   1      34.861  18.608   8.552  0.00  0.00    -0.631 OA
BRANCH  21  23
HETATM   23  O   UNK N   1      35.241  16.062   7.688  0.00  0.00    -0.307 OA
HETATM   24  H   UNK N   1      35.126  15.343   7.047  0.00  0.00     0.222 HD
ENDBRANCH  21  23
BRANCH  21  25
HETATM   25  O   UNK N   1      34.542  17.677   6.730  0.00  0.00    -0.195 OA
BRANCH  25  26
HETATM   26  P   UNK N   1      33.088  17.387   5.814  0.00  0.00     0.399 P 
HETATM   27  O   UNK N   1      34.057  16.304   5.265  0.00  0.00    -0.631 OA
BRANCH  26  28
HETATM   28  O   UNK N   1      32.207  15.906   6.028  0.00  0.00    -0.307 OA
HETATM   29  H   UNK N   1      31.645  15.707   6.793  0.00  0.00     0.222 HD
ENDBRANCH  26  28
BRANCH  26  30
HETATM   30  O   UNK N   1      32.772  17.107   7.499  0.00  0.00    -0.307 OA
HETATM   31  H   UNK N   1      31.995  17.380   8.007  0.00  0.00     0.222 HD
ENDBRANCH  26  30
ENDBRANCH  25  26
ENDBRANCH  21  25
ENDBRANCH  20  21
ENDBRANCH  19  20
ENDBRANCH   9  19
TORSDOF 8
ENDMDL
MODEL 9
REMARK VINA RESULT:      -5.8     14.531     16.251
REMARK  8 active torsions:
REMARK  status: ('A' for Active; 'I' for Inactive)
REMARK       I    between atoms: N_1  and  C_2 
REMARK    1  A    between atoms: C_9  and  C_10 
REMARK    2  A    between atoms: C_10  and  O_11 
REMARK    3  A    between atoms: P_12  and  O_11 
REMARK    4  A    between atoms: P_12  and  O_13 
REMARK    5  A    between atoms: P_12  and  O_15 
REMARK    6  A    between atoms: O_15  and  P_16 
REMARK    7  A    between atoms: P_16  and  O_17 
REMARK    8  A    between atoms: P_16  and  O_18 
ROOT
HETATM    1  N   UNK N   1      32.215  19.811  -4.494  0.00  0.00    -0.234 N 
HETATM    2  C   UNK N   1      31.349  20.870  -4.158  0.00  0.00     0.680 A 
HETATM    3  N   UNK N   1      30.474  21.351  -5.084  0.00  0.00    -0.174 N 
ATOM      4  HN  UNK N   1      30.442  20.933  -6.013  1.00  0.00     0.186 HD
HETATM    5  C   UNK N   1      29.642  22.382  -4.782  0.00  0.00     0.153 A 
HETATM    6  N   UNK N   1      28.774  22.866  -5.711  0.00  0.00    -0.348 N 
ATOM      7  HN  UNK N   1      28.738  22.439  -6.637  1.00  0.00     0.167 HD
HETATM    8  C   UNK N   1      27.952  23.912  -5.418  0.00  0.00     0.117 A 
HETATM    9  C   UNK N   1      27.998  24.495  -4.145  0.00  0.00     0.050 A 
HETATM   10  N   UNK N   1      28.860  24.006  -3.214  0.00  0.00    -0.349 N 
ATOM     11  HN  UNK N   1      28.891  24.428  -2.286  1.00  0.00     0.166 HD
HETATM   12  C   UNK N   1      29.680  22.963  -3.505  0.00  0.00     0.147 A 
HETATM   13  C   UNK N   1      30.575  22.453  -2.564  0.00  0.00     0.290 A 
HETATM   14  O   UNK N   1      30.635  22.926  -1.443  0.00  0.00    -0.265 OA
HETATM   15  N   UNK N   1      31.397  21.412  -2.911  0.00  0.00    -0.154 N 
HETATM   16  H   UNK N   1      32.167  19.380  -5.378  0.00  0.00     0.174 HD
HETATM   17  H   UNK N   1      32.876  19.496  -3.836  0.00  0.00     0.174 HD
HETATM   18  H   UNK N   1      32.031  21.052  -2.249  0.00  0.00     0.187 HD
ENDROOT
BRANCH   9  19
HETATM   19  C   UNK N   1      27.146  25.671  -3.806  0.00  0.00     0.239 C 
BRANCH  19  20
HETATM   20  O   UNK N   1      27.244  26.652  -4.797  0.00  0.00    -0.291 OA
BRANCH  20  21
HETATM   21  P   UNK N   1      25.842  27.656  -4.578  0.00  0.00     0.402 P 
HETATM   22  O   UNK N   1      25.918  26.832  -3.264  0.00  0.00    -0.631 OA
BRANCH  21  23
HETATM   23  O   UNK N   1      27.256  28.648  -4.774  0.00  0.00    -0.307 OA
HETATM   24  H   UNK N   1      28.200  28.449  -4.868  0.00  0.00     0.222 HD
ENDBRANCH  21  23
BRANCH  21  25
HETATM   25  O   UNK N   1      25.866  28.899  -3.354  0.00  0.00    -0.195 OA
BRANCH  25  26
HETATM   26  P   UNK N   1      27.353  29.773  -3.603  0.00  0.00     0.399 P 
HETATM   27  O   UNK N   1      26.287  30.901  -3.641  0.00  0.00    -0.631 OA
BRANCH  26  28
HETATM   28  O   UNK N   1      27.911  30.900  -2.407  0.00  0.00    -0.307 OA
HETATM   29  H   UNK N   1      27.795  30.788  -1.450  0.00  0.00     0.222 HD
ENDBRANCH  26  28
BRANCH  26  30
HETATM   30  O   UNK N   1      27.380  29.028  -2.034  0.00  0.00    -0.307 OA
HETATM   31  H   UNK N   1      27.402  29.469  -1.172  0.00  0.00     0.222 HD
ENDBRANCH  26  30
ENDBRANCH  25  26
ENDBRANCH  21  25
ENDBRANCH  20  21
ENDBRANCH  19  20
ENDBRANCH   9  19
TORSDOF 8
ENDMDL
