MODEL 1
REMARK VINA RESULT:      -3.9      0.000      0.000
REMARK  6 active torsions:
REMARK  status: ('A' for Active; 'I' for Inactive)
REMARK    1  A    between atoms: C_2  and  C_3 
REMARK    2  A    between atoms: C_3  and  C_4 
REMARK    3  A    between atoms: C_4  and  S_6 
REMARK    4  A    between atoms: S_6  and  C_7 
REMARK    5  A    between atoms: C_7  and  C_8 
REMARK    6  A    between atoms: C_8  and  N_9 
ROOT
HETATM    1  S   UNK N   1      32.842  16.494   8.175  0.00  0.00    -0.091 SA
ENDROOT
BRANCH   1   2
HETATM    2  C   UNK N   1      33.791  17.240   6.837  0.00  0.00     0.186 C 
HETATM    3  O   UNK N   1      34.568  18.161   7.052  0.00  0.00    -0.286 OA
BRANCH   2   4
HETATM    4  C   UNK N   1      33.602  16.694   5.450  0.00  0.00     0.090 C 
BRANCH   4   5
HETATM    5  C   UNK N   1      32.936  17.671   4.496  0.00  0.00     0.004 C 
HETATM    6  C   UNK N   1      31.438  17.444   4.523  0.00  0.00     0.005 C 
ENDBRANCH   4   5
ENDBRANCH   2   4
ENDBRANCH   1   2
BRANCH   1   7
HETATM    7  C   UNK N   1      31.627  17.829   8.392  0.00  0.00     0.110 C 
BRANCH   7   8
HETATM    8  C   UNK N   1      30.236  17.253   8.123  0.00  0.00     0.246 C 
BRANCH   8   9
HETATM    9  N   UNK N   1      29.148  18.023   8.731  0.00  0.00    -0.078 N 
HETATM   10  C   UNK N   1      28.125  17.151   9.289  0.00  0.00     0.271 C 
HETATM   11  C   UNK N   1      29.709  18.812   9.813  0.00  0.00     0.271 C 
HETATM   12  C   UNK N   1      28.550  18.932   7.767  0.00  0.00     0.271 C 
ENDBRANCH   8   9
ENDBRANCH   7   8
ENDBRANCH   1   7
TORSDOF 6
ENDMDL
MODEL 2
REMARK VINA RESULT:      -3.9      5.199      6.305
REMARK  6 active torsions:
REMARK  status: ('A' for Active; 'I' for Inactive)
REMARK    1  A    between atoms: C_2  and  C_3 
REMARK    2  A    between atoms: C_3  and  C_4 
REMARK    3  A    between atoms: C_4  and  S_6 
REMARK    4  A    between atoms: S_6  and  C_7 
REMARK    5  A    between atoms: C_7  and  C_8 
REMARK    6  A    between atoms: C_8  and  N_9 
ROOT
HETATM    1  S   UNK N   1      33.918  15.558   9.330  0.00  0.00    -0.091 SA
ENDROOT
BRANCH   1   2
HETATM    2  C   UNK N   1      34.747  17.158   9.337  0.00  0.00     0.186 C 
HETATM    3  O   UNK N   1      35.515  17.465  10.239  0.00  0.00    -0.286 OA
BRANCH   2   4
HETATM    4  C   UNK N   1      34.467  18.100   8.201  0.00  0.00     0.090 C 
BRANCH   4   5
HETATM    5  C   UNK N   1      33.220  17.747   7.408  0.00  0.00     0.004 C 
HETATM    6  C   UNK N   1      33.608  17.492   5.966  0.00  0.00     0.005 C 
ENDBRANCH   4   5
ENDBRANCH   2   4
ENDBRANCH   1   2
BRANCH   1   7
HETATM    7  C   UNK N   1      34.335  15.054  11.027  0.00  0.00     0.110 C 
BRANCH   7   8
HETATM    8  C   UNK N   1      35.114  13.739  10.954  0.00  0.00     0.246 C 
BRANCH   8   9
HETATM    9  N   UNK N   1      35.838  13.411  12.184  0.00  0.00    -0.078 N 
HETATM   10  C   UNK N   1      37.127  12.799  11.897  0.00  0.00     0.271 C 
HETATM   11  C   UNK N   1      36.074  14.647  12.908  0.00  0.00     0.271 C 
HETATM   12  C   UNK N   1      35.052  12.529  13.032  0.00  0.00     0.271 C 
ENDBRANCH   8   9
ENDBRANCH   7   8
ENDBRANCH   1   7
TORSDOF 6
ENDMDL
MODEL 3
REMARK VINA RESULT:      -3.8      7.725      9.284
REMARK  6 active torsions:
REMARK  status: ('A' for Active; 'I' for Inactive)
REMARK    1  A    between atoms: C_2  and  C_3 
REMARK    2  A    between atoms: C_3  and  C_4 
REMARK    3  A    between atoms: C_4  and  S_6 
REMARK    4  A    between atoms: S_6  and  C_7 
REMARK    5  A    between atoms: C_7  and  C_8 
REMARK    6  A    between atoms: C_8  and  N_9 
ROOT
HETATM    1  S   UNK N   1      36.172  14.195  13.578  0.00  0.00    -0.091 SA
ENDROOT
BRANCH   1   2
HETATM    2  C   UNK N   1      35.376  13.010  14.678  0.00  0.00     0.186 C 
HETATM    3  O   UNK N   1      34.252  12.587  14.443  0.00  0.00    -0.286 OA
BRANCH   2   4
HETATM    4  C   UNK N   1      36.137  12.554  15.890  0.00  0.00     0.090 C 
BRANCH   4   5
HETATM    5  C   UNK N   1      35.277  12.419  17.136  0.00  0.00     0.004 C 
HETATM    6  C   UNK N   1      35.186  13.767  17.822  0.00  0.00     0.005 C 
ENDBRANCH   4   5
ENDBRANCH   2   4
ENDBRANCH   1   2
BRANCH   1   7
HETATM    7  C   UNK N   1      35.525  13.548  12.006  0.00  0.00     0.110 C 
BRANCH   7   8
HETATM    8  C   UNK N   1      34.587  14.599  11.410  0.00  0.00     0.246 C 
BRANCH   8   9
HETATM    9  N   UNK N   1      35.154  15.320  10.268  0.00  0.00    -0.078 N 
HETATM   10  C   UNK N   1      34.210  15.394   9.163  0.00  0.00     0.271 C 
HETATM   11  C   UNK N   1      35.456  16.673  10.698  0.00  0.00     0.271 C 
HETATM   12  C   UNK N   1      36.389  14.697   9.820  0.00  0.00     0.271 C 
ENDBRANCH   8   9
ENDBRANCH   7   8
ENDBRANCH   1   7
TORSDOF 6
ENDMDL
MODEL 4
REMARK VINA RESULT:      -3.8      3.536      4.566
REMARK  6 active torsions:
REMARK  status: ('A' for Active; 'I' for Inactive)
REMARK    1  A    between atoms: C_2  and  C_3 
REMARK    2  A    between atoms: C_3  and  C_4 
REMARK    3  A    between atoms: C_4  and  S_6 
REMARK    4  A    between atoms: S_6  and  C_7 
REMARK    5  A    between atoms: C_7  and  C_8 
REMARK    6  A    between atoms: C_8  and  N_9 
ROOT
HETATM    1  S   UNK N   1      32.508  16.989   8.081  0.00  0.00    -0.091 SA
ENDROOT
BRANCH   1   2
HETATM    2  C   UNK N   1      33.775  17.501   6.906  0.00  0.00     0.186 C 
HETATM    3  O   UNK N   1      34.634  18.313   7.220  0.00  0.00    -0.286 OA
BRANCH   2   4
HETATM    4  C   UNK N   1      33.744  16.897   5.531  0.00  0.00     0.090 C 
BRANCH   4   5
HETATM    5  C   UNK N   1      32.837  17.635   4.560  0.00  0.00     0.004 C 
HETATM    6  C   UNK N   1      32.795  16.877   3.250  0.00  0.00     0.005 C 
ENDBRANCH   4   5
ENDBRANCH   2   4
ENDBRANCH   1   2
BRANCH   1   7
HETATM    7  C   UNK N   1      33.142  15.318   8.418  0.00  0.00     0.110 C 
BRANCH   7   8
HETATM    8  C   UNK N   1      33.442  15.217   9.914  0.00  0.00     0.246 C 
BRANCH   8   9
HETATM    9  N   UNK N   1      34.872  15.206  10.231  0.00  0.00    -0.078 N 
HETATM   10  C   UNK N   1      35.668  14.789   9.087  0.00  0.00     0.271 C 
HETATM   11  C   UNK N   1      35.262  16.559  10.587  0.00  0.00     0.271 C 
HETATM   12  C   UNK N   1      35.148  14.339  11.366  0.00  0.00     0.271 C 
ENDBRANCH   8   9
ENDBRANCH   7   8
ENDBRANCH   1   7
TORSDOF 6
ENDMDL
MODEL 5
REMARK VINA RESULT:      -3.8     11.945     13.327
REMARK  6 active torsions:
REMARK  status: ('A' for Active; 'I' for Inactive)
REMARK    1  A    between atoms: C_2  and  C_3 
REMARK    2  A    between atoms: C_3  and  C_4 
REMARK    3  A    between atoms: C_4  and  S_6 
REMARK    4  A    between atoms: S_6  and  C_7 
REMARK    5  A    between atoms: C_7  and  C_8 
REMARK    6  A    between atoms: C_8  and  N_9 
ROOT
HETATM    1  S   UNK N   1      30.587  24.355  -3.656  0.00  0.00    -0.091 SA
ENDROOT
BRANCH   1   2
HETATM    2  C   UNK N   1      30.808  22.969  -2.526  0.00  0.00     0.186 C 
HETATM    3  O   UNK N   1      30.417  23.032  -1.368  0.00  0.00    -0.286 OA
BRANCH   2   4
HETATM    4  C   UNK N   1      31.484  21.734  -3.050  0.00  0.00     0.090 C 
BRANCH   4   5
HETATM    5  C   UNK N   1      30.562  20.824  -3.845  0.00  0.00     0.004 C 
HETATM    6  C   UNK N   1      31.163  20.588  -5.215  0.00  0.00     0.005 C 
ENDBRANCH   4   5
ENDBRANCH   2   4
ENDBRANCH   1   2
BRANCH   1   7
HETATM    7  C   UNK N   1      28.772  24.302  -3.764  0.00  0.00     0.110 C 
BRANCH   7   8
HETATM    8  C   UNK N   1      28.291  25.641  -4.324  0.00  0.00     0.246 C 
BRANCH   8   9
HETATM    9  N   UNK N   1      26.833  25.753  -4.418  0.00  0.00    -0.078 N 
HETATM   10  C   UNK N   1      26.186  24.465  -4.217  0.00  0.00     0.271 C 
HETATM   11  C   UNK N   1      26.385  26.655  -3.372  0.00  0.00     0.271 C 
HETATM   12  C   UNK N   1      26.436  26.309  -5.701  0.00  0.00     0.271 C 
ENDBRANCH   8   9
ENDBRANCH   7   8
ENDBRANCH   1   7
TORSDOF 6
ENDMDL
MODEL 6
REMARK VINA RESULT:      -3.8     10.816     11.834
REMARK  6 active torsions:
REMARK  status: ('A' for Active; 'I' for Inactive)
REMARK    1  A    between atoms: C_2  and  C_3 
REMARK    2  A    between atoms: C_3  and  C_4 
REMARK    3  A    between atoms: C_4  and  S_6 
REMARK    4  A    between atoms: S_6  and  C_7 
REMARK    5  A    between atoms: C_7  and  C_8 
REMARK    6  A    between atoms: C_8  and  N_9 
ROOT
HETATM    1  S   UNK N   1      21.964  13.818   8.839  0.00  0.00    -0.091 SA
ENDROOT
BRANCH   1   2
HETATM    2  C   UNK N   1      20.697  13.351  10.031  0.00  0.00     0.186 C 
HETATM    3  O   UNK N   1      19.566  13.813   9.963  0.00  0.00    -0.286 OA
BRANCH   2   4
HETATM    4  C   UNK N   1      21.071  12.374  11.109  0.00  0.00     0.090 C 
BRANCH   4   5
HETATM    5  C   UNK N   1      22.515  11.908  11.037  0.00  0.00     0.004 C 
HETATM    6  C   UNK N   1      23.112  11.929  12.429  0.00  0.00     0.005 C 
ENDBRANCH   4   5
ENDBRANCH   2   4
ENDBRANCH   1   2
BRANCH   1   7
HETATM    7  C   UNK N   1      20.862  14.206   7.444  0.00  0.00     0.110 C 
BRANCH   7   8
HETATM    8  C   UNK N   1      21.471  15.376   6.670  0.00  0.00     0.246 C 
BRANCH   8   9
HETATM    9  N   UNK N   1      20.540  16.482   6.440  0.00  0.00    -0.078 N 
HETATM   10  C   UNK N   1      19.823  16.323   5.183  0.00  0.00     0.271 C 
HETATM   11  C   UNK N   1      19.568  16.481   7.519  0.00  0.00     0.271 C 
HETATM   12  C   UNK N   1      21.234  17.759   6.453  0.00  0.00     0.271 C 
ENDBRANCH   8   9
ENDBRANCH   7   8
ENDBRANCH   1   7
TORSDOF 6
ENDMDL
MODEL 7
REMARK VINA RESULT:      -3.7      3.706      4.996
REMARK  6 active torsions:
REMARK  status: ('A' for Active; 'I' for Inactive)
REMARK    1  A    between atoms: C_2  and  C_3 
REMARK    2  A    between atoms: C_3  and  C_4 
REMARK    3  A    between atoms: C_4  and  S_6 
REMARK    4  A    between atoms: S_6  and  C_7 
REMARK    5  A    between atoms: C_7  and  C_8 
REMARK    6  A    between atoms: C_8  and  N_9 
ROOT
HETATM    1  S   UNK N   1      34.172  15.468   6.974  0.00  0.00    -0.091 SA
ENDROOT
BRANCH   1   2
HETATM    2  C   UNK N   1      33.672  17.049   6.269  0.00  0.00     0.186 C 
HETATM    3  O   UNK N   1      34.344  18.056   6.440  0.00  0.00    -0.286 OA
BRANCH   2   4
HETATM    4  C   UNK N   1      32.405  17.090   5.462  0.00  0.00     0.090 C 
BRANCH   4   5
HETATM    5  C   UNK N   1      32.591  17.650   4.062  0.00  0.00     0.004 C 
HETATM    6  C   UNK N   1      32.988  16.525   3.128  0.00  0.00     0.005 C 
ENDBRANCH   4   5
ENDBRANCH   2   4
ENDBRANCH   1   2
BRANCH   1   7
HETATM    7  C   UNK N   1      33.972  15.904   8.729  0.00  0.00     0.110 C 
BRANCH   7   8
HETATM    8  C   UNK N   1      34.481  14.733   9.570  0.00  0.00     0.246 C 
BRANCH   8   9
HETATM    9  N   UNK N   1      35.450  15.119  10.599  0.00  0.00    -0.078 N 
HETATM   10  C   UNK N   1      35.410  16.551  10.857  0.00  0.00     0.271 C 
HETATM   11  C   UNK N   1      35.099  14.428  11.826  0.00  0.00     0.271 C 
HETATM   12  C   UNK N   1      36.797  14.724  10.221  0.00  0.00     0.271 C 
ENDBRANCH   8   9
ENDBRANCH   7   8
ENDBRANCH   1   7
TORSDOF 6
ENDMDL
MODEL 8
REMARK VINA RESULT:      -3.6      8.239      9.703
REMARK  6 active torsions:
REMARK  status: ('A' for Active; 'I' for Inactive)
REMARK    1  A    between atoms: C_2  and  C_3 
REMARK    2  A    between atoms: C_3  and  C_4 
REMARK    3  A    between atoms: C_4  and  S_6 
REMARK    4  A    between atoms: S_6  and  C_7 
REMARK    5  A    between atoms: C_7  and  C_8 
REMARK    6  A    between atoms: C_8  and  N_9 
ROOT
HETATM    1  S   UNK N   1      36.416  13.483  14.944  0.00  0.00    -0.091 SA
ENDROOT
BRANCH   1   2
HETATM    2  C   UNK N   1      34.923  12.682  15.559  0.00  0.00     0.186 C 
HETATM    3  O   UNK N   1      34.025  13.334  16.074  0.00  0.00    -0.286 OA
BRANCH   2   4
HETATM    4  C   UNK N   1      34.815  11.191  15.416  0.00  0.00     0.090 C 
BRANCH   4   5
HETATM    5  C   UNK N   1      33.593  10.740  14.632  0.00  0.00     0.004 C 
HETATM    6  C   UNK N   1      33.998  10.475  13.196  0.00  0.00     0.005 C 
ENDBRANCH   4   5
ENDBRANCH   2   4
ENDBRANCH   1   2
BRANCH   1   7
HETATM    7  C   UNK N   1      35.764  14.021  13.333  0.00  0.00     0.110 C 
BRANCH   7   8
HETATM    8  C   UNK N   1      36.681  13.467  12.241  0.00  0.00     0.246 C 
BRANCH   8   9
HETATM    9  N   UNK N   1      36.479  14.086  10.929  0.00  0.00    -0.078 N 
HETATM   10  C   UNK N   1      37.658  13.945  10.087  0.00  0.00     0.271 C 
HETATM   11  C   UNK N   1      35.374  13.405  10.279  0.00  0.00     0.271 C 
HETATM   12  C   UNK N   1      36.134  15.492  11.063  0.00  0.00     0.271 C 
ENDBRANCH   8   9
ENDBRANCH   7   8
ENDBRANCH   1   7
TORSDOF 6
ENDMDL
MODEL 9
REMARK VINA RESULT:      -3.6     11.904     13.524
REMARK  6 active torsions:
REMARK  status: ('A' for Active; 'I' for Inactive)
REMARK    1  A    between atoms: C_2  and  C_3 
REMARK    2  A    between atoms: C_3  and  C_4 
REMARK    3  A    between atoms: C_4  and  S_6 
REMARK    4  A    between atoms: S_6  and  C_7 
REMARK    5  A    between atoms: C_7  and  C_8 
REMARK    6  A    between atoms: C_8  and  N_9 
ROOT
HETATM    1  S   UNK N   1      30.329  24.337  -3.623  0.00  0.00    -0.091 SA
ENDROOT
BRANCH   1   2
HETATM    2  C   UNK N   1      30.574  22.894  -2.572  0.00  0.00     0.186 C 
HETATM    3  O   UNK N   1      30.503  22.982  -1.354  0.00  0.00    -0.286 OA
BRANCH   2   4
HETATM    4  C   UNK N   1      30.866  21.580  -3.239  0.00  0.00     0.090 C 
BRANCH   4   5
HETATM    5  C   UNK N   1      32.268  21.487  -3.819  0.00  0.00     0.004 C 
HETATM    6  C   UNK N   1      33.234  21.104  -2.717  0.00  0.00     0.005 C 
ENDBRANCH   4   5
ENDBRANCH   2   4
ENDBRANCH   1   2
BRANCH   1   7
HETATM    7  C   UNK N   1      28.528  24.188  -3.833  0.00  0.00     0.110 C 
BRANCH   7   8
HETATM    8  C   UNK N   1      28.229  24.120  -5.331  0.00  0.00     0.246 C 
BRANCH   8   9
HETATM    9  N   UNK N   1      26.822  24.351  -5.665  0.00  0.00    -0.078 N 
HETATM   10  C   UNK N   1      26.662  25.514  -6.526  0.00  0.00     0.271 C 
HETATM   11  C   UNK N   1      26.335  23.187  -6.382  0.00  0.00     0.271 C 
HETATM   12  C   UNK N   1      26.021  24.514  -4.463  0.00  0.00     0.271 C 
ENDBRANCH   8   9
ENDBRANCH   7   8
ENDBRANCH   1   7
TORSDOF 6
ENDMDL
