MODEL 1
REMARK VINA RESULT:      -4.1      0.000      0.000
REMARK  6 active torsions:
REMARK  status: ('A' for Active; 'I' for Inactive)
REMARK    1  A    between atoms: O_1  and  P_2 
REMARK    2  A    between atoms: P_2  and  O_3 
REMARK    3  A    between atoms: P_2  and  O_5 
REMARK    4  A    between atoms: O_5  and  P_6 
REMARK    5  A    between atoms: P_6  and  O_7 
REMARK    6  A    between atoms: P_6  and  O_8 
ROOT
HETATM    1  O   UNK N   1      21.427  18.871   1.990  0.00  0.00    -0.195 OA
ENDROOT
BRANCH   1   2
HETATM    2  P   UNK N   1      20.545  20.281   1.471  0.00  0.00     0.399 P 
HETATM    3  O   UNK N   1      21.985  20.838   1.624  0.00  0.00    -0.631 OA
BRANCH   2   4
HETATM    4  O   UNK N   1      20.865  21.009  -0.071  0.00  0.00    -0.307 OA
HETATM    5  H   UNK N   1      21.168  21.921  -0.201  0.00  0.00     0.222 HD
ENDBRANCH   2   4
BRANCH   2   6
HETATM    6  O   UNK N   1      20.506  19.085   0.214  0.00  0.00    -0.307 OA
HETATM    7  H   UNK N   1      19.857  18.958  -0.495  0.00  0.00     0.222 HD
ENDBRANCH   2   6
ENDBRANCH   1   2
BRANCH   1   8
HETATM    8  P   UNK N   1      20.441  18.142   3.229  0.00  0.00     0.399 P 
HETATM    9  O   UNK N   1      20.336  17.110   2.074  0.00  0.00    -0.631 OA
BRANCH   8  10
HETATM   10  O   UNK N   1      18.731  17.958   3.004  0.00  0.00    -0.307 OA
HETATM   11  H   UNK N   1      18.138  17.486   3.609  0.00  0.00     0.222 HD
ENDBRANCH   8  10
BRANCH   8  12
HETATM   12  O   UNK N   1      19.727  19.647   2.741  0.00  0.00    -0.307 OA
HETATM   13  H   UNK N   1      19.938  20.542   3.051  0.00  0.00     0.222 HD
ENDBRANCH   8  12
ENDBRANCH   1   8
TORSDOF 6
ENDMDL
MODEL 2
REMARK VINA RESULT:      -4.1     14.887     16.011
REMARK  6 active torsions:
REMARK  status: ('A' for Active; 'I' for Inactive)
REMARK    1  A    between atoms: O_1  and  P_2 
REMARK    2  A    between atoms: P_2  and  O_3 
REMARK    3  A    between atoms: P_2  and  O_5 
REMARK    4  A    between atoms: O_5  and  P_6 
REMARK    5  A    between atoms: P_6  and  O_7 
REMARK    6  A    between atoms: P_6  and  O_8 
ROOT
HETATM    1  O   UNK N   1      34.814  16.181   8.466  0.00  0.00    -0.195 OA
ENDROOT
BRANCH   1   2
HETATM    2  P   UNK N   1      33.556  15.073   8.945  0.00  0.00     0.399 P 
HETATM    3  O   UNK N   1      34.637  14.826  10.030  0.00  0.00    -0.631 OA
BRANCH   2   4
HETATM    4  O   UNK N   1      32.695  15.300  10.433  0.00  0.00    -0.307 OA
HETATM    5  H   UNK N   1      32.029  15.988  10.589  0.00  0.00     0.222 HD
ENDBRANCH   2   4
BRANCH   2   6
HETATM    6  O   UNK N   1      32.964  16.700   9.063  0.00  0.00    -0.307 OA
HETATM    7  H   UNK N   1      33.328  17.454   9.553  0.00  0.00     0.222 HD
ENDBRANCH   2   6
ENDBRANCH   1   2
BRANCH   1   8
HETATM    8  P   UNK N   1      34.077  17.760   8.512  0.00  0.00     0.399 P 
HETATM    9  O   UNK N   1      34.649  17.705   7.070  0.00  0.00    -0.631 OA
BRANCH   8  10
HETATM   10  O   UNK N   1      35.048  19.193   8.406  0.00  0.00    -0.307 OA
HETATM   11  H   UNK N   1      36.018  19.208   8.395  0.00  0.00     0.222 HD
ENDBRANCH   8  10
BRANCH   8  12
HETATM   12  O   UNK N   1      35.374  17.701   9.663  0.00  0.00    -0.307 OA
HETATM   13  H   UNK N   1      35.367  17.975  10.594  0.00  0.00     0.222 HD
ENDBRANCH   8  12
ENDBRANCH   1   8
TORSDOF 6
ENDMDL
MODEL 3
REMARK VINA RESULT:      -4.0     15.683     16.653
REMARK  6 active torsions:
REMARK  status: ('A' for Active; 'I' for Inactive)
REMARK    1  A    between atoms: O_1  and  P_2 
REMARK    2  A    between atoms: P_2  and  O_3 
REMARK    3  A    between atoms: P_2  and  O_5 
REMARK    4  A    between atoms: O_5  and  P_6 
REMARK    5  A    between atoms: P_6  and  O_7 
REMARK    6  A    between atoms: P_6  and  O_8 
ROOT
HETATM    1  O   UNK N   1      34.306  16.134   9.481  0.00  0.00    -0.195 OA
ENDROOT
BRANCH   1   2
HETATM    2  P   UNK N   1      35.306  15.686  10.836  0.00  0.00     0.399 P 
HETATM    3  O   UNK N   1      35.905  14.825   9.694  0.00  0.00    -0.631 OA
BRANCH   2   4
HETATM    4  O   UNK N   1      36.992  16.090  10.866  0.00  0.00    -0.307 OA
HETATM    5  H   UNK N   1      37.625  15.879  10.161  0.00  0.00     0.222 HD
ENDBRANCH   2   4
BRANCH   2   6
HETATM    6  O   UNK N   1      35.534  17.370  10.487  0.00  0.00    -0.307 OA
HETATM    7  H   UNK N   1      35.771  17.799   9.649  0.00  0.00     0.222 HD
ENDBRANCH   2   6
ENDBRANCH   1   2
BRANCH   1   8
HETATM    8  P   UNK N   1      33.037  14.940   9.432  0.00  0.00     0.399 P 
HETATM    9  O   UNK N   1      32.329  16.196   8.859  0.00  0.00    -0.631 OA
BRANCH   8  10
HETATM   10  O   UNK N   1      31.630  15.103  10.432  0.00  0.00    -0.307 OA
HETATM   11  H   UNK N   1      31.217  14.383  10.933  0.00  0.00     0.222 HD
ENDBRANCH   8  10
BRANCH   8  12
HETATM   12  O   UNK N   1      33.494  15.221  11.082  0.00  0.00    -0.307 OA
HETATM   13  H   UNK N   1      33.068  14.893  11.889  0.00  0.00     0.222 HD
ENDBRANCH   8  12
ENDBRANCH   1   8
TORSDOF 6
ENDMDL
MODEL 4
REMARK VINA RESULT:      -4.0      1.469      3.268
REMARK  6 active torsions:
REMARK  status: ('A' for Active; 'I' for Inactive)
REMARK    1  A    between atoms: O_1  and  P_2 
REMARK    2  A    between atoms: P_2  and  O_3 
REMARK    3  A    between atoms: P_2  and  O_5 
REMARK    4  A    between atoms: O_5  and  P_6 
REMARK    5  A    between atoms: P_6  and  O_7 
REMARK    6  A    between atoms: P_6  and  O_8 
ROOT
HETATM    1  O   UNK N   1      20.973  19.044   3.415  0.00  0.00    -0.195 OA
ENDROOT
BRANCH   1   2
HETATM    2  P   UNK N   1      20.339  17.744   2.442  0.00  0.00     0.399 P 
HETATM    3  O   UNK N   1      19.260  17.877   3.549  0.00  0.00    -0.631 OA
BRANCH   2   4
HETATM    4  O   UNK N   1      18.865  17.942   1.549  0.00  0.00    -0.307 OA
HETATM    5  H   UNK N   1      18.277  18.712   1.614  0.00  0.00     0.222 HD
ENDBRANCH   2   4
BRANCH   2   6
HETATM    6  O   UNK N   1      20.392  19.196   1.494  0.00  0.00    -0.307 OA
HETATM    7  H   UNK N   1      20.684  19.323   0.577  0.00  0.00     0.222 HD
ENDBRANCH   2   6
ENDBRANCH   1   2
BRANCH   1   8
HETATM    8  P   UNK N   1      21.244  20.359   2.304  0.00  0.00     0.399 P 
HETATM    9  O   UNK N   1      22.684  20.026   2.777  0.00  0.00    -0.631 OA
BRANCH   8  10
HETATM   10  O   UNK N   1      21.848  21.884   2.868  0.00  0.00    -0.307 OA
HETATM   11  H   UNK N   1      22.154  22.607   2.298  0.00  0.00     0.222 HD
ENDBRANCH   8  10
BRANCH   8  12
HETATM   12  O   UNK N   1      20.298  20.928   3.643  0.00  0.00    -0.307 OA
HETATM   13  H   UNK N   1      20.516  20.902   4.588  0.00  0.00     0.222 HD
ENDBRANCH   8  12
ENDBRANCH   1   8
TORSDOF 6
ENDMDL
MODEL 5
REMARK VINA RESULT:      -4.0     15.607     16.717
REMARK  6 active torsions:
REMARK  status: ('A' for Active; 'I' for Inactive)
REMARK    1  A    between atoms: O_1  and  P_2 
REMARK    2  A    between atoms: P_2  and  O_3 
REMARK    3  A    between atoms: P_2  and  O_5 
REMARK    4  A    between atoms: O_5  and  P_6 
REMARK    5  A    between atoms: P_6  and  O_7 
REMARK    6  A    between atoms: P_6  and  O_8 
ROOT
HETATM    1  O   UNK N   1      35.250  17.488   9.571  0.00  0.00    -0.195 OA
ENDROOT
BRANCH   1   2
HETATM    2  P   UNK N   1      35.433  15.770   9.802  0.00  0.00     0.399 P 
HETATM    3  O   UNK N   1      36.502  16.343  10.769  0.00  0.00    -0.631 OA
BRANCH   2   4
HETATM    4  O   UNK N   1      35.041  15.033  11.322  0.00  0.00    -0.307 OA
HETATM    5  H   UNK N   1      34.570  14.191  11.425  0.00  0.00     0.222 HD
ENDBRANCH   2   4
BRANCH   2   6
HETATM    6  O   UNK N   1      33.849  16.253  10.321  0.00  0.00    -0.307 OA
HETATM    7  H   UNK N   1      33.412  16.112  11.176  0.00  0.00     0.222 HD
ENDBRANCH   2   6
ENDBRANCH   1   2
BRANCH   1   8
HETATM    8  P   UNK N   1      34.040  17.658   8.328  0.00  0.00     0.399 P 
HETATM    9  O   UNK N   1      34.863  16.444   7.822  0.00  0.00    -0.631 OA
BRANCH   8  10
HETATM   10  O   UNK N   1      34.486  18.115   6.715  0.00  0.00    -0.307 OA
HETATM   11  H   UNK N   1      34.324  18.985   6.319  0.00  0.00     0.222 HD
ENDBRANCH   8  10
BRANCH   8  12
HETATM   12  O   UNK N   1      35.037  19.078   8.354  0.00  0.00    -0.307 OA
HETATM   13  H   UNK N   1      35.181  19.726   7.646  0.00  0.00     0.222 HD
ENDBRANCH   8  12
ENDBRANCH   1   8
TORSDOF 6
ENDMDL
MODEL 6
REMARK VINA RESULT:      -3.8     23.320     24.382
REMARK  6 active torsions:
REMARK  status: ('A' for Active; 'I' for Inactive)
REMARK    1  A    between atoms: O_1  and  P_2 
REMARK    2  A    between atoms: P_2  and  O_3 
REMARK    3  A    between atoms: P_2  and  O_5 
REMARK    4  A    between atoms: O_5  and  P_6 
REMARK    5  A    between atoms: P_6  and  O_7 
REMARK    6  A    between atoms: P_6  and  O_8 
ROOT
HETATM    1  O   UNK N   1      43.560  23.521   3.218  0.00  0.00    -0.195 OA
ENDROOT
BRANCH   1   2
HETATM    2  P   UNK N   1      44.532  23.889   1.819  0.00  0.00     0.399 P 
HETATM    3  O   UNK N   1      43.095  24.152   1.294  0.00  0.00    -0.631 OA
BRANCH   2   4
HETATM    4  O   UNK N   1      44.616  25.507   1.199  0.00  0.00    -0.307 OA
HETATM    5  H   UNK N   1      44.279  25.787   0.333  0.00  0.00     0.222 HD
ENDBRANCH   2   4
BRANCH   2   6
HETATM    6  O   UNK N   1      44.909  25.009   3.089  0.00  0.00    -0.307 OA
HETATM    7  H   UNK N   1      44.531  25.080   3.980  0.00  0.00     0.222 HD
ENDBRANCH   2   6
ENDBRANCH   1   2
BRANCH   1   8
HETATM    8  P   UNK N   1      43.985  21.888   3.655  0.00  0.00     0.399 P 
HETATM    9  O   UNK N   1      44.337  22.676   4.945  0.00  0.00    -0.631 OA
BRANCH   8  10
HETATM   10  O   UNK N   1      45.637  21.453   3.957  0.00  0.00    -0.307 OA
HETATM   11  H   UNK N   1      46.138  20.791   3.456  0.00  0.00     0.222 HD
ENDBRANCH   8  10
BRANCH   8  12
HETATM   12  O   UNK N   1      44.999  22.412   2.347  0.00  0.00    -0.307 OA
HETATM   13  H   UNK N   1      45.631  21.890   1.829  0.00  0.00     0.222 HD
ENDBRANCH   8  12
ENDBRANCH   1   8
TORSDOF 6
ENDMDL
MODEL 7
REMARK VINA RESULT:      -3.7      2.081      3.850
REMARK  6 active torsions:
REMARK  status: ('A' for Active; 'I' for Inactive)
REMARK    1  A    between atoms: O_1  and  P_2 
REMARK    2  A    between atoms: P_2  and  O_3 
REMARK    3  A    between atoms: P_2  and  O_5 
REMARK    4  A    between atoms: O_5  and  P_6 
REMARK    5  A    between atoms: P_6  and  O_7 
REMARK    6  A    between atoms: P_6  and  O_8 
ROOT
HETATM    1  O   UNK N   1      22.179  19.637   3.064  0.00  0.00    -0.195 OA
ENDROOT
BRANCH   1   2
HETATM    2  P   UNK N   1      21.610  18.427   4.182  0.00  0.00     0.399 P 
HETATM    3  O   UNK N   1      23.068  18.651   4.661  0.00  0.00    -0.631 OA
BRANCH   2   4
HETATM    4  O   UNK N   1      21.432  18.794   5.868  0.00  0.00    -0.307 OA
HETATM    5  H   UNK N   1      21.316  18.133   6.570  0.00  0.00     0.222 HD
ENDBRANCH   2   4
BRANCH   2   6
HETATM    6  O   UNK N   1      20.690  19.883   4.395  0.00  0.00    -0.307 OA
HETATM    7  H   UNK N   1      19.793  19.999   4.746  0.00  0.00     0.222 HD
ENDBRANCH   2   6
ENDBRANCH   1   2
BRANCH   1   8
HETATM    8  P   UNK N   1      20.783  20.613   2.694  0.00  0.00     0.399 P 
HETATM    9  O   UNK N   1      20.897  19.713   1.435  0.00  0.00    -0.631 OA
BRANCH   8  10
HETATM   10  O   UNK N   1      20.820  21.750   1.385  0.00  0.00    -0.307 OA
HETATM   11  H   UNK N   1      21.621  22.174   1.038  0.00  0.00     0.222 HD
ENDBRANCH   8  10
BRANCH   8  12
HETATM   12  O   UNK N   1      22.180  21.636   2.817  0.00  0.00    -0.307 OA
HETATM   13  H   UNK N   1      22.848  21.661   3.521  0.00  0.00     0.222 HD
ENDBRANCH   8  12
ENDBRANCH   1   8
TORSDOF 6
ENDMDL
MODEL 8
REMARK VINA RESULT:      -3.7     18.171     19.242
REMARK  6 active torsions:
REMARK  status: ('A' for Active; 'I' for Inactive)
REMARK    1  A    between atoms: O_1  and  P_2 
REMARK    2  A    between atoms: P_2  and  O_3 
REMARK    3  A    between atoms: P_2  and  O_5 
REMARK    4  A    between atoms: O_5  and  P_6 
REMARK    5  A    between atoms: P_6  and  O_7 
REMARK    6  A    between atoms: P_6  and  O_8 
ROOT
HETATM    1  O   UNK N   1      36.281  14.241  11.531  0.00  0.00    -0.195 OA
ENDROOT
BRANCH   1   2
HETATM    2  P   UNK N   1      35.892  13.641  13.120  0.00  0.00     0.399 P 
HETATM    3  O   UNK N   1      37.046  12.698  12.691  0.00  0.00    -0.631 OA
BRANCH   2   4
HETATM    4  O   UNK N   1      37.030  13.775  14.422  0.00  0.00    -0.307 OA
HETATM    5  H   UNK N   1      37.528  14.579  14.641  0.00  0.00     0.222 HD
ENDBRANCH   2   4
BRANCH   2   6
HETATM    6  O   UNK N   1      36.478  15.269  13.250  0.00  0.00    -0.307 OA
HETATM    7  H   UNK N   1      37.331  15.640  12.974  0.00  0.00     0.222 HD
ENDBRANCH   2   6
ENDBRANCH   1   2
BRANCH   1   8
HETATM    8  P   UNK N   1      34.787  14.177  10.636  0.00  0.00     0.399 P 
HETATM    9  O   UNK N   1      35.140  15.687  10.578  0.00  0.00    -0.631 OA
BRANCH   8  10
HETATM   10  O   UNK N   1      33.358  14.951  11.243  0.00  0.00    -0.307 OA
HETATM   11  H   UNK N   1      32.516  15.017  10.766  0.00  0.00     0.222 HD
ENDBRANCH   8  10
BRANCH   8  12
HETATM   12  O   UNK N   1      34.491  13.703  12.279  0.00  0.00    -0.307 OA
HETATM   13  H   UNK N   1      34.902  12.982  12.782  0.00  0.00     0.222 HD
ENDBRANCH   8  12
ENDBRANCH   1   8
TORSDOF 6
ENDMDL
MODEL 9
REMARK VINA RESULT:      -3.7     17.290     18.416
REMARK  6 active torsions:
REMARK  status: ('A' for Active; 'I' for Inactive)
REMARK    1  A    between atoms: O_1  and  P_2 
REMARK    2  A    between atoms: P_2  and  O_3 
REMARK    3  A    between atoms: P_2  and  O_5 
REMARK    4  A    between atoms: O_5  and  P_6 
REMARK    5  A    between atoms: P_6  and  O_7 
REMARK    6  A    between atoms: P_6  and  O_8 
ROOT
HETATM    1  O   UNK N   1      35.863  14.528  10.332  0.00  0.00    -0.195 OA
ENDROOT
BRANCH   1   2
HETATM    2  P   UNK N   1      35.243  13.358  11.464  0.00  0.00     0.399 P 
HETATM    3  O   UNK N   1      36.699  13.552  11.963  0.00  0.00    -0.631 OA
BRANCH   2   4
HETATM    4  O   UNK N   1      35.047  13.762  13.140  0.00  0.00    -0.307 OA
HETATM    5  H   UNK N   1      35.057  14.665  13.497  0.00  0.00     0.222 HD
ENDBRANCH   2   4
BRANCH   2   6
HETATM    6  O   UNK N   1      34.360  14.841  11.632  0.00  0.00    -0.307 OA
HETATM    7  H   UNK N   1      34.483  15.563  12.269  0.00  0.00     0.222 HD
ENDBRANCH   2   6
ENDBRANCH   1   2
BRANCH   1   8
HETATM    8  P   UNK N   1      35.068  16.025  10.738  0.00  0.00     0.399 P 
HETATM    9  O   UNK N   1      34.825  15.928   9.208  0.00  0.00    -0.631 OA
BRANCH   8  10
HETATM   10  O   UNK N   1      35.667  17.537  10.135  0.00  0.00    -0.307 OA
HETATM   11  H   UNK N   1      36.553  17.678   9.766  0.00  0.00     0.222 HD
ENDBRANCH   8  10
BRANCH   8  12
HETATM   12  O   UNK N   1      36.768  16.176  11.057  0.00  0.00    -0.307 OA
HETATM   13  H   UNK N   1      37.265  15.869  11.831  0.00  0.00     0.222 HD
ENDBRANCH   8  12
ENDBRANCH   1   8
TORSDOF 6
ENDMDL
