MODEL 1
REMARK VINA RESULT:      -7.2      0.000      0.000
REMARK  2 active torsions:
REMARK  status: ('A' for Active; 'I' for Inactive)
REMARK    1  A    between atoms: O_1  and  C_2 
REMARK    2  A    between atoms: C_9  and  C_13 
ROOT
HETATM    1  C   UNK N   1      36.252  14.952  11.446  0.00  0.00     0.068 A 
HETATM    2  C   UNK N   1      35.697  13.995  10.593  0.00  0.00     0.037 A 
HETATM    3  C   UNK N   1      35.112  12.840  11.121  0.00  0.00     0.021 A 
HETATM    4  C   UNK N   1      35.080  12.639  12.508  0.00  0.00     0.043 A 
HETATM    5  C   UNK N   1      34.466  11.424  13.076  0.00  0.00     0.165 A 
HETATM    6  O   UNK N   1      33.978  10.579  12.344  0.00  0.00    -0.292 OA
HETATM    7  C   UNK N   1      34.432  11.210  14.556  0.00  0.00     0.121 A 
HETATM    8  C   UNK N   1      35.080  12.351  15.346  0.00  0.00     0.169 A 
HETATM    9  O   UNK N   1      35.626  13.445  14.702  0.00  0.00    -0.340 OA
HETATM   10  C   UNK N   1      35.639  13.606  13.363  0.00  0.00     0.086 A 
HETATM   11  C   UNK N   1      36.221  14.757  12.827  0.00  0.00     0.074 A 
ENDROOT
BRANCH   8  12
HETATM   12  C   UNK N   1      35.149  12.334  16.836  0.00  0.00    -0.029 A 
HETATM   13  C   UNK N   1      35.113  13.534  17.557  0.00  0.00     0.010 A 
HETATM   14  C   UNK N   1      35.177  13.516  18.951  0.00  0.00     0.001 A 
HETATM   15  C   UNK N   1      35.279  12.299  19.630  0.00  0.00     0.000 A 
HETATM   16  C   UNK N   1      35.316  11.099  18.915  0.00  0.00     0.001 A 
HETATM   17  C   UNK N   1      35.251  11.116  17.520  0.00  0.00     0.010 A 
ENDBRANCH   8  12
BRANCH   1  18
HETATM   18  O   UNK N   1      36.812  16.062  10.939  0.00  0.00    -0.361 OA
HETATM   19  H   UNK N   1      36.758  16.869  11.410  0.00  0.00     0.217 HD
ENDBRANCH   1  18
TORSDOF 2
ENDMDL
MODEL 2
REMARK VINA RESULT:      -6.8     20.286     23.714
REMARK  2 active torsions:
REMARK  status: ('A' for Active; 'I' for Inactive)
REMARK    1  A    between atoms: O_1  and  C_2 
REMARK    2  A    between atoms: C_9  and  C_13 
ROOT
HETATM    1  C   UNK N   1      31.289  21.657  -3.151  0.00  0.00     0.068 A 
HETATM    2  C   UNK N   1      31.332  20.798  -4.253  0.00  0.00     0.037 A 
HETATM    3  C   UNK N   1      30.471  21.003  -5.335  0.00  0.00     0.021 A 
HETATM    4  C   UNK N   1      29.562  22.069  -5.319  0.00  0.00     0.043 A 
HETATM    5  C   UNK N   1      28.649  22.294  -6.455  0.00  0.00     0.165 A 
HETATM    6  O   UNK N   1      28.674  21.553  -7.424  0.00  0.00    -0.292 OA
HETATM    7  C   UNK N   1      27.679  23.433  -6.438  0.00  0.00     0.121 A 
HETATM    8  C   UNK N   1      27.760  24.275  -5.161  0.00  0.00     0.169 A 
HETATM    9  O   UNK N   1      28.660  23.968  -4.159  0.00  0.00    -0.340 OA
HETATM   10  C   UNK N   1      29.523  22.932  -4.208  0.00  0.00     0.086 A 
HETATM   11  C   UNK N   1      30.386  22.720  -3.131  0.00  0.00     0.074 A 
ENDROOT
BRANCH   8  12
HETATM   12  C   UNK N   1      26.879  25.459  -4.945  0.00  0.00    -0.029 A 
HETATM   13  C   UNK N   1      26.973  26.200  -3.760  0.00  0.00     0.010 A 
HETATM   14  C   UNK N   1      26.147  27.308  -3.560  0.00  0.00     0.001 A 
HETATM   15  C   UNK N   1      25.226  27.680  -4.542  0.00  0.00     0.000 A 
HETATM   16  C   UNK N   1      25.128  26.943  -5.726  0.00  0.00     0.001 A 
HETATM   17  C   UNK N   1      25.954  25.835  -5.928  0.00  0.00     0.010 A 
ENDBRANCH   8  12
BRANCH   1  18
HETATM   18  O   UNK N   1      32.116  21.462  -2.112  0.00  0.00    -0.361 OA
HETATM   19  H   UNK N   1      31.884  21.784  -1.264  0.00  0.00     0.217 HD
ENDBRANCH   1  18
TORSDOF 2
ENDMDL
MODEL 3
REMARK VINA RESULT:      -6.8     21.037     24.104
REMARK  2 active torsions:
REMARK  status: ('A' for Active; 'I' for Inactive)
REMARK    1  A    between atoms: O_1  and  C_2 
REMARK    2  A    between atoms: C_9  and  C_13 
ROOT
HETATM    1  C   UNK N   1      25.728  27.843  -4.047  0.00  0.00     0.068 A 
HETATM    2  C   UNK N   1      24.876  27.591  -5.125  0.00  0.00     0.037 A 
HETATM    3  C   UNK N   1      25.045  26.438  -5.898  0.00  0.00     0.021 A 
HETATM    4  C   UNK N   1      26.070  25.531  -5.594  0.00  0.00     0.043 A 
HETATM    5  C   UNK N   1      26.257  24.312  -6.402  0.00  0.00     0.165 A 
HETATM    6  O   UNK N   1      25.522  24.078  -7.347  0.00  0.00    -0.292 OA
HETATM    7  C   UNK N   1      27.351  23.344  -6.077  0.00  0.00     0.121 A 
HETATM    8  C   UNK N   1      28.192  23.768  -4.869  0.00  0.00     0.169 A 
HETATM    9  O   UNK N   1      27.921  24.938  -4.185  0.00  0.00    -0.340 OA
HETATM   10  C   UNK N   1      26.925  25.789  -4.507  0.00  0.00     0.086 A 
HETATM   11  C   UNK N   1      26.749  26.942  -3.740  0.00  0.00     0.074 A 
ENDROOT
BRANCH   8  12
HETATM   12  C   UNK N   1      29.332  22.941  -4.377  0.00  0.00    -0.029 A 
HETATM   13  C   UNK N   1      29.958  23.254  -3.164  0.00  0.00     0.010 A 
HETATM   14  C   UNK N   1      31.025  22.479  -2.706  0.00  0.00     0.001 A 
HETATM   15  C   UNK N   1      31.470  21.389  -3.459  0.00  0.00     0.000 A 
HETATM   16  C   UNK N   1      30.849  21.074  -4.670  0.00  0.00     0.001 A 
HETATM   17  C   UNK N   1      29.782  21.847  -5.129  0.00  0.00     0.010 A 
ENDBRANCH   8  12
BRANCH   1  18
HETATM   18  O   UNK N   1      25.565  28.949  -3.304  0.00  0.00    -0.361 OA
HETATM   19  H   UNK N   1      24.707  29.296  -3.165  0.00  0.00     0.217 HD
ENDBRANCH   1  18
TORSDOF 2
ENDMDL
MODEL 4
REMARK VINA RESULT:      -6.5     10.800     14.003
REMARK  2 active torsions:
REMARK  status: ('A' for Active; 'I' for Inactive)
REMARK    1  A    between atoms: O_1  and  C_2 
REMARK    2  A    between atoms: C_9  and  C_13 
ROOT
HETATM    1  C   UNK N   1      29.661  18.246   9.222  0.00  0.00     0.068 A 
HETATM    2  C   UNK N   1      30.650  17.416   8.685  0.00  0.00     0.037 A 
HETATM    3  C   UNK N   1      30.603  17.054   7.336  0.00  0.00     0.021 A 
HETATM    4  C   UNK N   1      29.566  17.520   6.517  0.00  0.00     0.043 A 
HETATM    5  C   UNK N   1      29.508  17.143   5.092  0.00  0.00     0.165 A 
HETATM    6  O   UNK N   1      30.363  16.420   4.609  0.00  0.00    -0.292 OA
HETATM    7  C   UNK N   1      28.400  17.642   4.218  0.00  0.00     0.121 A 
HETATM    8  C   UNK N   1      27.402  18.537   4.960  0.00  0.00     0.169 A 
HETATM    9  O   UNK N   1      27.561  18.823   6.303  0.00  0.00    -0.340 OA
HETATM   10  C   UNK N   1      28.574  18.355   7.061  0.00  0.00     0.086 A 
HETATM   11  C   UNK N   1      28.627  18.713   8.410  0.00  0.00     0.074 A 
ENDROOT
BRANCH   8  12
HETATM   12  C   UNK N   1      26.225  19.139   4.271  0.00  0.00    -0.029 A 
HETATM   13  C   UNK N   1      26.403  20.180   3.351  0.00  0.00     0.010 A 
HETATM   14  C   UNK N   1      25.300  20.742   2.707  0.00  0.00     0.001 A 
HETATM   15  C   UNK N   1      24.015  20.267   2.979  0.00  0.00     0.000 A 
HETATM   16  C   UNK N   1      23.832  19.229   3.897  0.00  0.00     0.001 A 
HETATM   17  C   UNK N   1      24.934  18.665   4.541  0.00  0.00     0.010 A 
ENDBRANCH   8  12
BRANCH   1  18
HETATM   18  O   UNK N   1      29.706  18.595  10.517  0.00  0.00    -0.361 OA
HETATM   19  H   UNK N   1      30.195  19.349  10.781  0.00  0.00     0.217 HD
ENDBRANCH   1  18
TORSDOF 2
ENDMDL
MODEL 5
REMARK VINA RESULT:      -6.5     13.289     15.683
REMARK  2 active torsions:
REMARK  status: ('A' for Active; 'I' for Inactive)
REMARK    1  A    between atoms: O_1  and  C_2 
REMARK    2  A    between atoms: C_9  and  C_13 
ROOT
HETATM    1  C   UNK N   1      24.162  12.219  10.981  0.00  0.00     0.068 A 
HETATM    2  C   UNK N   1      22.945  12.021  11.637  0.00  0.00     0.037 A 
HETATM    3  C   UNK N   1      21.770  12.573  11.117  0.00  0.00     0.021 A 
HETATM    4  C   UNK N   1      21.811  13.328   9.936  0.00  0.00     0.043 A 
HETATM    5  C   UNK N   1      20.578  13.914   9.378  0.00  0.00     0.165 A 
HETATM    6  O   UNK N   1      19.507  13.751   9.939  0.00  0.00    -0.292 OA
HETATM    7  C   UNK N   1      20.621  14.720   8.117  0.00  0.00     0.121 A 
HETATM    8  C   UNK N   1      22.030  14.840   7.527  0.00  0.00     0.169 A 
HETATM    9  O   UNK N   1      23.115  14.244   8.140  0.00  0.00    -0.340 OA
HETATM   10  C   UNK N   1      23.039  13.524   9.279  0.00  0.00     0.086 A 
HETATM   11  C   UNK N   1      24.207  12.969   9.805  0.00  0.00     0.074 A 
ENDROOT
BRANCH   8  12
HETATM   12  C   UNK N   1      22.291  15.600   6.271  0.00  0.00    -0.029 A 
HETATM   13  C   UNK N   1      22.847  14.954   5.159  0.00  0.00     0.010 A 
HETATM   14  C   UNK N   1      23.090  15.667   3.984  0.00  0.00     0.001 A 
HETATM   15  C   UNK N   1      22.780  17.027   3.915  0.00  0.00     0.000 A 
HETATM   16  C   UNK N   1      22.227  17.677   5.022  0.00  0.00     0.001 A 
HETATM   17  C   UNK N   1      21.981  16.965   6.197  0.00  0.00     0.010 A 
ENDBRANCH   8  12
BRANCH   1  18
HETATM   18  O   UNK N   1      25.290  11.689  11.480  0.00  0.00    -0.361 OA
HETATM   19  H   UNK N   1      25.917  12.239  11.905  0.00  0.00     0.217 HD
ENDBRANCH   1  18
TORSDOF 2
ENDMDL
MODEL 6
REMARK VINA RESULT:      -6.4      1.226      3.068
REMARK  2 active torsions:
REMARK  status: ('A' for Active; 'I' for Inactive)
REMARK    1  A    between atoms: O_1  and  C_2 
REMARK    2  A    between atoms: C_9  and  C_13 
ROOT
HETATM    1  C   UNK N   1      33.828  10.222  11.335  0.00  0.00     0.068 A 
HETATM    2  C   UNK N   1      34.336  11.241  10.525  0.00  0.00     0.037 A 
HETATM    3  C   UNK N   1      34.961  12.350  11.102  0.00  0.00     0.021 A 
HETATM    4  C   UNK N   1      35.079  12.444  12.496  0.00  0.00     0.043 A 
HETATM    5  C   UNK N   1      35.736  13.610  13.116  0.00  0.00     0.165 A 
HETATM    6  O   UNK N   1      36.184  14.508  12.422  0.00  0.00    -0.292 OA
HETATM    7  C   UNK N   1      35.862  13.711  14.603  0.00  0.00     0.121 A 
HETATM    8  C   UNK N   1      35.254  12.514  15.343  0.00  0.00     0.169 A 
HETATM    9  O   UNK N   1      34.662  11.474  14.652  0.00  0.00    -0.340 OA
HETATM   10  C   UNK N   1      34.566  11.416  13.308  0.00  0.00     0.086 A 
HETATM   11  C   UNK N   1      33.944  10.312  12.723  0.00  0.00     0.074 A 
ENDROOT
BRANCH   8  12
HETATM   12  C   UNK N   1      35.277  12.418  16.831  0.00  0.00    -0.029 A 
HETATM   13  C   UNK N   1      35.157  13.573  17.614  0.00  0.00     0.010 A 
HETATM   14  C   UNK N   1      35.179  13.480  19.006  0.00  0.00     0.001 A 
HETATM   15  C   UNK N   1      35.319  12.233  19.621  0.00  0.00     0.000 A 
HETATM   16  C   UNK N   1      35.440  11.078  18.844  0.00  0.00     0.001 A 
HETATM   17  C   UNK N   1      35.418  11.169  17.452  0.00  0.00     0.010 A 
ENDBRANCH   8  12
BRANCH   1  18
HETATM   18  O   UNK N   1      33.229   9.156  10.781  0.00  0.00    -0.361 OA
HETATM   19  H   UNK N   1      33.544   8.813   9.969  0.00  0.00     0.217 HD
ENDBRANCH   1  18
TORSDOF 2
ENDMDL
MODEL 7
REMARK VINA RESULT:      -6.4      1.759      2.071
REMARK  2 active torsions:
REMARK  status: ('A' for Active; 'I' for Inactive)
REMARK    1  A    between atoms: O_1  and  C_2 
REMARK    2  A    between atoms: C_9  and  C_13 
ROOT
HETATM    1  C   UNK N   1      35.215  15.773  10.645  0.00  0.00     0.068 A 
HETATM    2  C   UNK N   1      36.041  15.082   9.756  0.00  0.00     0.037 A 
HETATM    3  C   UNK N   1      36.726  13.939  10.179  0.00  0.00     0.021 A 
HETATM    4  C   UNK N   1      36.585  13.482  11.497  0.00  0.00     0.043 A 
HETATM    5  C   UNK N   1      37.302  12.277  11.954  0.00  0.00     0.165 A 
HETATM    6  O   UNK N   1      38.028  11.663  11.189  0.00  0.00    -0.292 OA
HETATM    7  C   UNK N   1      37.151  11.789  13.360  0.00  0.00     0.121 A 
HETATM    8  C   UNK N   1      36.211  12.658  14.202  0.00  0.00     0.169 A 
HETATM    9  O   UNK N   1      35.591  13.769  13.663  0.00  0.00    -0.340 OA
HETATM   10  C   UNK N   1      35.750  14.180  12.388  0.00  0.00     0.086 A 
HETATM   11  C   UNK N   1      35.070  15.321  11.958  0.00  0.00     0.074 A 
ENDROOT
BRANCH   8  12
HETATM   12  C   UNK N   1      35.923  12.344  15.632  0.00  0.00    -0.029 A 
HETATM   13  C   UNK N   1      35.388  13.326  16.475  0.00  0.00     0.010 A 
HETATM   14  C   UNK N   1      35.119  13.031  17.812  0.00  0.00     0.001 A 
HETATM   15  C   UNK N   1      35.382  11.752  18.312  0.00  0.00     0.000 A 
HETATM   16  C   UNK N   1      35.917  10.769  17.474  0.00  0.00     0.001 A 
HETATM   17  C   UNK N   1      36.185  11.064  16.136  0.00  0.00     0.010 A 
ENDBRANCH   8  12
BRANCH   1  18
HETATM   18  O   UNK N   1      34.557  16.870  10.239  0.00  0.00    -0.361 OA
HETATM   19  H   UNK N   1      33.725  16.787   9.817  0.00  0.00     0.217 HD
ENDBRANCH   1  18
TORSDOF 2
ENDMDL
MODEL 8
REMARK VINA RESULT:      -6.2     15.101     16.577
REMARK  2 active torsions:
REMARK  status: ('A' for Active; 'I' for Inactive)
REMARK    1  A    between atoms: O_1  and  C_2 
REMARK    2  A    between atoms: C_9  and  C_13 
ROOT
HETATM    1  C   UNK N   1      26.604  19.838   3.707  0.00  0.00     0.068 A 
HETATM    2  C   UNK N   1      25.930  20.607   2.756  0.00  0.00     0.037 A 
HETATM    3  C   UNK N   1      24.536  20.543   2.662  0.00  0.00     0.021 A 
HETATM    4  C   UNK N   1      23.811  19.708   3.523  0.00  0.00     0.043 A 
HETATM    5  C   UNK N   1      22.341  19.633   3.433  0.00  0.00     0.165 A 
HETATM    6  O   UNK N   1      21.738  20.297   2.607  0.00  0.00    -0.292 OA
HETATM    7  C   UNK N   1      21.567  18.741   4.353  0.00  0.00     0.121 A 
HETATM    8  C   UNK N   1      22.456  17.969   5.333  0.00  0.00     0.169 A 
HETATM    9  O   UNK N   1      23.829  18.121   5.325  0.00  0.00    -0.340 OA
HETATM   10  C   UNK N   1      24.495  18.936   4.481  0.00  0.00     0.086 A 
HETATM   11  C   UNK N   1      25.887  19.006   4.567  0.00  0.00     0.074 A 
ENDROOT
BRANCH   8  12
HETATM   12  C   UNK N   1      21.882  17.026   6.337  0.00  0.00    -0.029 A 
HETATM   13  C   UNK N   1      22.467  15.770   6.538  0.00  0.00     0.010 A 
HETATM   14  C   UNK N   1      21.928  14.889   7.478  0.00  0.00     0.001 A 
HETATM   15  C   UNK N   1      20.803  15.261   8.219  0.00  0.00     0.000 A 
HETATM   16  C   UNK N   1      20.216  16.513   8.021  0.00  0.00     0.001 A 
HETATM   17  C   UNK N   1      20.754  17.395   7.082  0.00  0.00     0.010 A 
ENDBRANCH   8  12
BRANCH   1  18
HETATM   18  O   UNK N   1      27.942  19.900   3.798  0.00  0.00    -0.361 OA
HETATM   19  H   UNK N   1      28.427  20.428   3.196  0.00  0.00     0.217 HD
ENDBRANCH   1  18
TORSDOF 2
ENDMDL
MODEL 9
REMARK VINA RESULT:      -5.9      9.539     12.966
REMARK  2 active torsions:
REMARK  status: ('A' for Active; 'I' for Inactive)
REMARK    1  A    between atoms: O_1  and  C_2 
REMARK    2  A    between atoms: C_9  and  C_13 
ROOT
HETATM    1  C   UNK N   1      31.999  15.472   6.852  0.00  0.00     0.068 A 
HETATM    2  C   UNK N   1      32.096  15.885   8.184  0.00  0.00     0.037 A 
HETATM    3  C   UNK N   1      31.203  16.834   8.690  0.00  0.00     0.021 A 
HETATM    4  C   UNK N   1      30.208  17.375   7.865  0.00  0.00     0.043 A 
HETATM    5  C   UNK N   1      29.262  18.377   8.389  0.00  0.00     0.165 A 
HETATM    6  O   UNK N   1      29.334  18.747   9.549  0.00  0.00    -0.292 OA
HETATM    7  C   UNK N   1      28.199  18.954   7.507  0.00  0.00     0.121 A 
HETATM    8  C   UNK N   1      28.231  18.397   6.080  0.00  0.00     0.169 A 
HETATM    9  O   UNK N   1      29.169  17.455   5.702  0.00  0.00    -0.340 OA
HETATM   10  C   UNK N   1      30.114  16.956   6.525  0.00  0.00     0.086 A 
HETATM   11  C   UNK N   1      31.010  16.008   6.027  0.00  0.00     0.074 A 
ENDROOT
BRANCH   8  12
HETATM   12  C   UNK N   1      27.255  18.840   5.043  0.00  0.00    -0.029 A 
HETATM   13  C   UNK N   1      26.172  18.022   4.700  0.00  0.00     0.010 A 
HETATM   14  C   UNK N   1      25.260  18.439   3.729  0.00  0.00     0.001 A 
HETATM   15  C   UNK N   1      25.427  19.674   3.098  0.00  0.00     0.000 A 
HETATM   16  C   UNK N   1      26.507  20.494   3.437  0.00  0.00     0.001 A 
HETATM   17  C   UNK N   1      27.419  20.079   4.408  0.00  0.00     0.010 A 
ENDBRANCH   8  12
BRANCH   1  18
HETATM   18  O   UNK N   1      32.855  14.560   6.366  0.00  0.00    -0.361 OA
HETATM   19  H   UNK N   1      33.772  14.751   6.332  0.00  0.00     0.217 HD
ENDBRANCH   1  18
TORSDOF 2
ENDMDL
