MODEL 1
REMARK VINA RESULT:      -4.8      0.000      0.000
REMARK  6 active torsions:
REMARK  status: ('A' for Active; 'I' for Inactive)
REMARK    1  A    between atoms: C_2  and  C_3 
REMARK    2  A    between atoms: C_2  and  C_8 
REMARK    3  A    between atoms: C_3  and  N_4 
REMARK    4  A    between atoms: C_3  and  C_5 
REMARK    5  A    between atoms: C_5  and  O_6 
REMARK    6  A    between atoms: C_8  and  O_9 
ROOT
HETATM    1  C   UNK N   1      21.262  12.493  10.877  0.00  0.00     0.187 C 
ENDROOT
BRANCH   1   2
HETATM    2  C   UNK N   1      22.703  11.983  10.757  0.00  0.00     0.112 C 
HETATM    3  C   UNK N   1      23.240  11.420   9.444  0.00  0.00     0.024 C 
BRANCH   2   4
HETATM    4  C   UNK N   1      23.615  12.028  11.939  0.00  0.00     0.145 C 
HETATM    5  O   UNK N   1      23.175  11.877  13.065  0.00  0.00    -0.650 OA
BRANCH   4   6
HETATM    6  O   UNK N   1      24.931  12.238  11.764  0.00  0.00    -0.776 OA
HETATM    7  H   UNK N   1      25.326  12.068  10.931  0.00  0.00     0.167 HD
ENDBRANCH   4   6
ENDBRANCH   2   4
ENDBRANCH   1   2
BRANCH   1   8
HETATM    8  N   UNK N   1      20.355  11.866  11.827  0.00  0.00    -0.417 N 
HETATM    9  H   UNK N   1      19.363  11.784  11.606  0.00  0.00     0.150 HD
HETATM   10  H   UNK N   1      20.712  11.510  12.713  0.00  0.00     0.150 HD
ENDBRANCH   1   8
BRANCH   1  11
HETATM   11  C   UNK N   1      20.710  13.614  10.070  0.00  0.00     0.163 C 
HETATM   12  O   UNK N   1      19.508  13.731   9.917  0.00  0.00    -0.648 OA
BRANCH  11  13
HETATM   13  O   UNK N   1      21.548  14.502   9.507  0.00  0.00    -0.775 OA
HETATM   14  H   UNK N   1      21.603  15.374   9.845  0.00  0.00     0.167 HD
ENDBRANCH  11  13
ENDBRANCH   1  11
TORSDOF 6
ENDMDL
MODEL 2
REMARK VINA RESULT:      -4.8     11.422     12.625
REMARK  6 active torsions:
REMARK  status: ('A' for Active; 'I' for Inactive)
REMARK    1  A    between atoms: C_2  and  C_3 
REMARK    2  A    between atoms: C_2  and  C_8 
REMARK    3  A    between atoms: C_3  and  N_4 
REMARK    4  A    between atoms: C_3  and  C_5 
REMARK    5  A    between atoms: C_5  and  O_6 
REMARK    6  A    between atoms: C_8  and  O_9 
ROOT
HETATM    1  C   UNK N   1      33.971  17.226   9.003  0.00  0.00     0.187 C 
ENDROOT
BRANCH   1   2
HETATM    2  C   UNK N   1      32.667  16.453   8.774  0.00  0.00     0.112 C 
HETATM    3  C   UNK N   1      31.545  17.024   7.913  0.00  0.00     0.024 C 
BRANCH   2   4
HETATM    4  C   UNK N   1      32.472  15.111   9.400  0.00  0.00     0.145 C 
HETATM    5  O   UNK N   1      32.225  14.137   8.709  0.00  0.00    -0.650 OA
BRANCH   4   6
HETATM    6  O   UNK N   1      32.569  14.971  10.733  0.00  0.00    -0.776 OA
HETATM    7  H   UNK N   1      33.395  15.092  11.158  0.00  0.00     0.167 HD
ENDBRANCH   4   6
ENDBRANCH   2   4
ENDBRANCH   1   2
BRANCH   1   8
HETATM    8  N   UNK N   1      34.714  17.032  10.240  0.00  0.00    -0.417 N 
HETATM    9  H   UNK N   1      35.695  16.753  10.207  0.00  0.00     0.150 HD
HETATM   10  H   UNK N   1      34.253  17.175  11.138  0.00  0.00     0.150 HD
ENDBRANCH   1   8
BRANCH   1  11
HETATM   11  C   UNK N   1      34.548  18.186   8.025  0.00  0.00     0.163 C 
HETATM   12  O   UNK N   1      35.052  19.227   8.405  0.00  0.00    -0.648 OA
BRANCH  11  13
HETATM   13  O   UNK N   1      34.510  17.899   6.712  0.00  0.00    -0.775 OA
HETATM   14  H   UNK N   1      34.679  17.025   6.418  0.00  0.00     0.167 HD
ENDBRANCH  11  13
ENDBRANCH   1  11
TORSDOF 6
ENDMDL
MODEL 3
REMARK VINA RESULT:      -4.8     11.887     13.319
REMARK  6 active torsions:
REMARK  status: ('A' for Active; 'I' for Inactive)
REMARK    1  A    between atoms: C_2  and  C_3 
REMARK    2  A    between atoms: C_2  and  C_8 
REMARK    3  A    between atoms: C_3  and  N_4 
REMARK    4  A    between atoms: C_3  and  C_5 
REMARK    5  A    between atoms: C_5  and  O_6 
REMARK    6  A    between atoms: C_8  and  O_9 
ROOT
HETATM    1  C   UNK N   1      34.223  16.532   9.844  0.00  0.00     0.187 C 
ENDROOT
BRANCH   1   2
HETATM    2  C   UNK N   1      33.571  17.347   8.721  0.00  0.00     0.112 C 
HETATM    3  C   UNK N   1      32.071  17.273   8.454  0.00  0.00     0.024 C 
BRANCH   2   4
HETATM    4  C   UNK N   1      34.405  18.238   7.859  0.00  0.00     0.145 C 
HETATM    5  O   UNK N   1      35.063  19.136   8.355  0.00  0.00    -0.650 OA
BRANCH   4   6
HETATM    6  O   UNK N   1      34.433  18.051   6.529  0.00  0.00    -0.776 OA
HETATM    7  H   UNK N   1      33.689  17.688   6.091  0.00  0.00     0.167 HD
ENDBRANCH   4   6
ENDBRANCH   2   4
ENDBRANCH   1   2
BRANCH   1   8
HETATM    8  N   UNK N   1      35.200  17.167  10.717  0.00  0.00    -0.417 N 
HETATM    9  H   UNK N   1      34.982  18.057  11.165  0.00  0.00     0.150 HD
HETATM   10  H   UNK N   1      36.103  16.720  10.881  0.00  0.00     0.150 HD
ENDBRANCH   1   8
BRANCH   1  11
HETATM   11  C   UNK N   1      33.921  15.102  10.113  0.00  0.00     0.163 C 
HETATM   12  O   UNK N   1      34.217  14.245   9.301  0.00  0.00    -0.648 OA
BRANCH  11  13
HETATM   13  O   UNK N   1      33.317  14.756  11.264  0.00  0.00    -0.775 OA
HETATM   14  H   UNK N   1      32.847  13.947  11.321  0.00  0.00     0.167 HD
ENDBRANCH  11  13
ENDBRANCH   1  11
TORSDOF 6
ENDMDL
MODEL 4
REMARK VINA RESULT:      -4.5     13.071     13.607
REMARK  6 active torsions:
REMARK  status: ('A' for Active; 'I' for Inactive)
REMARK    1  A    between atoms: C_2  and  C_3 
REMARK    2  A    between atoms: C_2  and  C_8 
REMARK    3  A    between atoms: C_3  and  N_4 
REMARK    4  A    between atoms: C_3  and  C_5 
REMARK    5  A    between atoms: C_5  and  O_6 
REMARK    6  A    between atoms: C_8  and  O_9 
ROOT
HETATM    1  C   UNK N   1      34.736  15.058  11.212  0.00  0.00     0.187 C 
ENDROOT
BRANCH   1   2
HETATM    2  C   UNK N   1      35.197  13.809  11.973  0.00  0.00     0.112 C 
HETATM    3  C   UNK N   1      35.198  12.433  11.315  0.00  0.00     0.024 C 
BRANCH   2   4
HETATM    4  C   UNK N   1      35.659  13.923  13.389  0.00  0.00     0.145 C 
HETATM    5  O   UNK N   1      34.977  13.480  14.298  0.00  0.00    -0.650 OA
BRANCH   4   6
HETATM    6  O   UNK N   1      36.831  14.516  13.668  0.00  0.00    -0.776 OA
HETATM    7  H   UNK N   1      36.847  15.316  14.155  0.00  0.00     0.167 HD
ENDBRANCH   4   6
ENDBRANCH   2   4
ENDBRANCH   1   2
BRANCH   1   8
HETATM    8  N   UNK N   1      33.356  15.155  10.759  0.00  0.00    -0.417 N 
HETATM    9  H   UNK N   1      33.150  15.227   9.762  0.00  0.00     0.150 HD
HETATM   10  H   UNK N   1      32.595  15.150  11.438  0.00  0.00     0.150 HD
ENDBRANCH   1   8
BRANCH   1  11
HETATM   11  C   UNK N   1      35.621  16.209  10.894  0.00  0.00     0.163 C 
HETATM   12  O   UNK N   1      35.147  17.293  10.606  0.00  0.00    -0.648 OA
BRANCH  11  13
HETATM   13  O   UNK N   1      36.956  16.049  10.928  0.00  0.00    -0.775 OA
HETATM   14  H   UNK N   1      37.515  16.700  10.552  0.00  0.00     0.167 HD
ENDBRANCH  11  13
ENDBRANCH   1  11
TORSDOF 6
ENDMDL
MODEL 5
REMARK VINA RESULT:      -4.3     11.550     12.729
REMARK  6 active torsions:
REMARK  status: ('A' for Active; 'I' for Inactive)
REMARK    1  A    between atoms: C_2  and  C_3 
REMARK    2  A    between atoms: C_2  and  C_8 
REMARK    3  A    between atoms: C_3  and  N_4 
REMARK    4  A    between atoms: C_3  and  C_5 
REMARK    5  A    between atoms: C_5  and  O_6 
REMARK    6  A    between atoms: C_8  and  O_9 
ROOT
HETATM    1  C   UNK N   1      33.906  17.265   8.939  0.00  0.00     0.187 C 
ENDROOT
BRANCH   1   2
HETATM    2  C   UNK N   1      32.588  16.548   8.621  0.00  0.00     0.112 C 
HETATM    3  C   UNK N   1      32.481  15.027   8.661  0.00  0.00     0.024 C 
BRANCH   2   4
HETATM    4  C   UNK N   1      31.372  17.340   8.264  0.00  0.00     0.145 C 
HETATM    5  O   UNK N   1      31.102  18.363   8.868  0.00  0.00    -0.650 OA
BRANCH   4   6
HETATM    6  O   UNK N   1      30.568  16.924   7.271  0.00  0.00    -0.776 OA
HETATM    7  H   UNK N   1      30.080  16.130   7.364  0.00  0.00     0.167 HD
ENDBRANCH   4   6
ENDBRANCH   2   4
ENDBRANCH   1   2
BRANCH   1   8
HETATM    8  N   UNK N   1      34.577  17.007  10.205  0.00  0.00    -0.417 N 
HETATM    9  H   UNK N   1      34.190  16.325  10.857  0.00  0.00     0.150 HD
HETATM   10  H   UNK N   1      35.433  17.509  10.439  0.00  0.00     0.150 HD
ENDBRANCH   1   8
BRANCH   1  11
HETATM   11  C   UNK N   1      34.566  18.230   8.021  0.00  0.00     0.163 C 
HETATM   12  O   UNK N   1      34.462  18.106   6.814  0.00  0.00    -0.648 OA
BRANCH  11  13
HETATM   13  O   UNK N   1      35.284  19.247   8.531  0.00  0.00    -0.775 OA
HETATM   14  H   UNK N   1      35.054  20.131   8.326  0.00  0.00     0.167 HD
ENDBRANCH  11  13
ENDBRANCH   1  11
TORSDOF 6
ENDMDL
MODEL 6
REMARK VINA RESULT:      -4.2     11.390     12.586
REMARK  6 active torsions:
REMARK  status: ('A' for Active; 'I' for Inactive)
REMARK    1  A    between atoms: C_2  and  C_3 
REMARK    2  A    between atoms: C_2  and  C_8 
REMARK    3  A    between atoms: C_3  and  N_4 
REMARK    4  A    between atoms: C_3  and  C_5 
REMARK    5  A    between atoms: C_5  and  O_6 
REMARK    6  A    between atoms: C_8  and  O_9 
ROOT
HETATM    1  C   UNK N   1      33.158  17.529   8.519  0.00  0.00     0.187 C 
ENDROOT
BRANCH   1   2
HETATM    2  C   UNK N   1      31.677  17.652   8.142  0.00  0.00     0.112 C 
HETATM    3  C   UNK N   1      30.710  18.484   8.979  0.00  0.00     0.024 C 
BRANCH   2   4
HETATM    4  C   UNK N   1      31.151  16.949   6.933  0.00  0.00     0.145 C 
HETATM    5  O   UNK N   1      30.048  16.429   6.952  0.00  0.00    -0.650 OA
BRANCH   4   6
HETATM    6  O   UNK N   1      31.893  16.888   5.815  0.00  0.00    -0.776 OA
HETATM    7  H   UNK N   1      32.052  17.664   5.315  0.00  0.00     0.167 HD
ENDBRANCH   4   6
ENDBRANCH   2   4
ENDBRANCH   1   2
BRANCH   1   8
HETATM    8  N   UNK N   1      33.549  16.670   9.627  0.00  0.00    -0.417 N 
HETATM    9  H   UNK N   1      33.022  15.819   9.822  0.00  0.00     0.150 HD
HETATM   10  H   UNK N   1      34.349  16.920  10.208  0.00  0.00     0.150 HD
ENDBRANCH   1   8
BRANCH   1  11
HETATM   11  C   UNK N   1      34.254  18.245   7.814  0.00  0.00     0.163 C 
HETATM   12  O   UNK N   1      34.927  19.074   8.399  0.00  0.00    -0.648 OA
BRANCH  11  13
HETATM   13  O   UNK N   1      34.502  17.971   6.521  0.00  0.00    -0.775 OA
HETATM   14  H   UNK N   1      34.298  18.604   5.861  0.00  0.00     0.167 HD
ENDBRANCH  11  13
ENDBRANCH   1  11
TORSDOF 6
ENDMDL
MODEL 7
REMARK VINA RESULT:      -4.2     11.618     12.615
REMARK  6 active torsions:
REMARK  status: ('A' for Active; 'I' for Inactive)
REMARK    1  A    between atoms: C_2  and  C_3 
REMARK    2  A    between atoms: C_2  and  C_8 
REMARK    3  A    between atoms: C_3  and  N_4 
REMARK    4  A    between atoms: C_3  and  C_5 
REMARK    5  A    between atoms: C_5  and  O_6 
REMARK    6  A    between atoms: C_8  and  O_9 
ROOT
HETATM    1  C   UNK N   1      32.678  16.769   8.942  0.00  0.00     0.187 C 
ENDROOT
BRANCH   1   2
HETATM    2  C   UNK N   1      34.134  17.238   9.049  0.00  0.00     0.112 C 
HETATM    3  C   UNK N   1      35.074  16.674  10.109  0.00  0.00     0.024 C 
BRANCH   2   4
HETATM    4  C   UNK N   1      34.660  18.269   8.105  0.00  0.00     0.145 C 
HETATM    5  O   UNK N   1      35.271  19.236   8.525  0.00  0.00    -0.650 OA
BRANCH   4   6
HETATM    6  O   UNK N   1      34.462  18.132   6.783  0.00  0.00    -0.776 OA
HETATM    7  H   UNK N   1      33.712  18.523   6.379  0.00  0.00     0.167 HD
ENDBRANCH   4   6
ENDBRANCH   2   4
ENDBRANCH   1   2
BRANCH   1   8
HETATM    8  N   UNK N   1      32.286  15.501   9.541  0.00  0.00    -0.417 N 
HETATM    9  H   UNK N   1      31.588  15.483  10.284  0.00  0.00     0.150 HD
HETATM   10  H   UNK N   1      32.710  14.632   9.217  0.00  0.00     0.150 HD
ENDBRANCH   1   8
BRANCH   1  11
HETATM   11  C   UNK N   1      31.609  17.536   8.251  0.00  0.00     0.163 C 
HETATM   12  O   UNK N   1      30.912  18.319   8.870  0.00  0.00    -0.648 OA
BRANCH  11  13
HETATM   13  O   UNK N   1      31.412  17.361   6.932  0.00  0.00    -0.775 OA
HETATM   14  H   UNK N   1      31.071  16.549   6.613  0.00  0.00     0.167 HD
ENDBRANCH  11  13
ENDBRANCH   1  11
TORSDOF 6
ENDMDL
MODEL 8
REMARK VINA RESULT:      -4.2     12.687     13.307
REMARK  6 active torsions:
REMARK  status: ('A' for Active; 'I' for Inactive)
REMARK    1  A    between atoms: C_2  and  C_3 
REMARK    2  A    between atoms: C_2  and  C_8 
REMARK    3  A    between atoms: C_3  and  N_4 
REMARK    4  A    between atoms: C_3  and  C_5 
REMARK    5  A    between atoms: C_5  and  O_6 
REMARK    6  A    between atoms: C_8  and  O_9 
ROOT
HETATM    1  C   UNK N   1      33.557  17.290   8.713  0.00  0.00     0.187 C 
ENDROOT
BRANCH   1   2
HETATM    2  C   UNK N   1      34.122  16.049   9.414  0.00  0.00     0.112 C 
HETATM    3  C   UNK N   1      33.516  14.667   9.193  0.00  0.00     0.024 C 
BRANCH   2   4
HETATM    4  C   UNK N   1      35.291  16.176  10.336  0.00  0.00     0.145 C 
HETATM    5  O   UNK N   1      35.347  17.092  11.139  0.00  0.00    -0.650 OA
BRANCH   4   6
HETATM    6  O   UNK N   1      36.288  15.277  10.284  0.00  0.00    -0.776 OA
HETATM    7  H   UNK N   1      36.109  14.393  10.031  0.00  0.00     0.167 HD
ENDBRANCH   4   6
ENDBRANCH   2   4
ENDBRANCH   1   2
BRANCH   1   8
HETATM    8  N   UNK N   1      32.147  17.620   8.862  0.00  0.00    -0.417 N 
HETATM    9  H   UNK N   1      31.455  16.875   8.938  0.00  0.00     0.150 HD
HETATM   10  H   UNK N   1      31.852  18.596   8.890  0.00  0.00     0.150 HD
ENDBRANCH   1   8
BRANCH   1  11
HETATM   11  C   UNK N   1      34.368  18.207   7.869  0.00  0.00     0.163 C 
HETATM   12  O   UNK N   1      35.000  19.117   8.375  0.00  0.00    -0.648 OA
BRANCH  11  13
HETATM   13  O   UNK N   1      34.403  18.026   6.537  0.00  0.00    -0.775 OA
HETATM   14  H   UNK N   1      34.460  17.161   6.183  0.00  0.00     0.167 HD
ENDBRANCH  11  13
ENDBRANCH   1  11
TORSDOF 6
ENDMDL
MODEL 9
REMARK VINA RESULT:      -4.1      2.723      3.441
REMARK  6 active torsions:
REMARK  status: ('A' for Active; 'I' for Inactive)
REMARK    1  A    between atoms: C_2  and  C_3 
REMARK    2  A    between atoms: C_2  and  C_8 
REMARK    3  A    between atoms: C_3  and  N_4 
REMARK    4  A    between atoms: C_3  and  C_5 
REMARK    5  A    between atoms: C_5  and  O_6 
REMARK    6  A    between atoms: C_8  and  O_9 
ROOT
HETATM    1  C   UNK N   1      24.130  12.479  10.201  0.00  0.00     0.187 C 
ENDROOT
BRANCH   1   2
HETATM    2  C   UNK N   1      22.923  12.301  11.130  0.00  0.00     0.112 C 
HETATM    3  C   UNK N   1      21.498  12.528  10.635  0.00  0.00     0.024 C 
BRANCH   2   4
HETATM    4  C   UNK N   1      23.127  11.896  12.554  0.00  0.00     0.145 C 
HETATM    5  O   UNK N   1      24.106  12.280  13.170  0.00  0.00    -0.650 OA
BRANCH   4   6
HETATM    6  O   UNK N   1      22.228  11.105  13.162  0.00  0.00    -0.776 OA
HETATM    7  H   UNK N   1      22.121  10.217  12.883  0.00  0.00     0.167 HD
ENDBRANCH   4   6
ENDBRANCH   2   4
ENDBRANCH   1   2
BRANCH   1   8
HETATM    8  N   UNK N   1      25.367  13.036  10.728  0.00  0.00    -0.417 N 
HETATM    9  H   UNK N   1      25.574  14.027  10.603  0.00  0.00     0.150 HD
HETATM   10  H   UNK N   1      26.026  12.436  11.223  0.00  0.00     0.150 HD
ENDBRANCH   1   8
BRANCH   1  11
HETATM   11  C   UNK N   1      24.127  12.113   8.760  0.00  0.00     0.163 C 
HETATM   12  O   UNK N   1      24.390  12.945   7.911  0.00  0.00    -0.648 OA
BRANCH  11  13
HETATM   13  O   UNK N   1      23.831  10.853   8.395  0.00  0.00    -0.775 OA
HETATM   14  H   UNK N   1      23.072  10.430   8.746  0.00  0.00     0.167 HD
ENDBRANCH  11  13
ENDBRANCH   1  11
TORSDOF 6
ENDMDL
