MODEL 1
REMARK VINA RESULT:      -6.8      0.000      0.000
REMARK  9 active torsions:
REMARK  status: ('A' for Active; 'I' for Inactive)
REMARK    1  A    between atoms: C_10  and  C_5 
REMARK    2  A    between atoms: O_23  and  C_5 
REMARK    3  A    between atoms: O_22  and  C_7 
REMARK    4  A    between atoms: C_11  and  O_17 
REMARK    5  A    between atoms: C_12  and  O_18 
REMARK    6  A    between atoms: C_13  and  N_16 
REMARK    7  A    between atoms: P_25  and  O_19 
REMARK    8  A    between atoms: P_25  and  O_20 
REMARK    9  A    between atoms: P_25  and  O_23 
ROOT
HETATM    1  C   UNK N   1      35.694  11.880  10.704  0.00  0.00     0.180 C 
HETATM    2  C   UNK N   1      35.649  12.381  12.160  0.00  0.00     0.182 C 
HETATM    3  C   UNK N   1      36.849  13.268  12.165  0.00  0.00     0.198 C 
HETATM    4  C   UNK N   1      36.808  13.868  10.765  0.00  0.00     0.261 C 
HETATM    5  O   UNK N   1      36.434  12.804   9.918  0.00  0.00    -0.353 OA
ENDROOT
BRANCH   4   6
HETATM    6  N   UNK N   1      35.922  15.030  10.536  0.00  0.00    -0.311 N 
HETATM    7  C   UNK N   1      35.629  16.010  11.435  0.00  0.00     0.186 A 
HETATM    8  N   UNK N   1      34.959  17.041  10.852  0.00  0.00    -0.350 N 
HETATM    9  C   UNK N   1      34.859  16.694   9.554  0.00  0.00     0.062 A 
ATOM     10  HN  UNK N   1      34.611  17.889  11.298  1.00  0.00     0.166 HD
HETATM   11  C   UNK N   1      34.369  17.460   8.498  0.00  0.00     0.068 A 
HETATM   12  C   UNK N   1      35.421  15.472   9.366  0.00  0.00     0.064 A 
HETATM   13  C   UNK N   1      34.457  16.915   7.189  0.00  0.00     0.070 A 
HETATM   14  C   UNK N   1      35.000  15.624   7.006  0.00  0.00     0.039 A 
HETATM   15  C   UNK N   1      35.503  14.896   8.096  0.00  0.00     0.035 A 
BRANCH  13  16
HETATM   16  O   UNK N   1      34.078  17.618   6.096  0.00  0.00    -0.356 OA
HETATM   17  C   UNK N   1      33.232  17.117   5.134  0.00  0.00     0.210 C 
ENDBRANCH  13  16
ENDBRANCH   4   6
BRANCH   3  18
HETATM   18  O   UNK N   1      36.866  14.204  13.203  0.00  0.00    -0.388 OA
HETATM   19  H   UNK N   1      36.589  14.294  14.128  0.00  0.00     0.210 HD
ENDBRANCH   3  18
BRANCH   2  20
HETATM   20  O   UNK N   1      34.505  13.149  12.404  0.00  0.00    -0.390 OA
HETATM   21  H   UNK N   1      33.712  13.283  12.948  0.00  0.00     0.210 HD
ENDBRANCH   2  20
BRANCH   1  22
HETATM   22  C   UNK N   1      34.301  11.711  10.096  0.00  0.00     0.215 C 
BRANCH  22  23
HETATM   23  O   UNK N   1      33.604  10.638  10.656  0.00  0.00    -0.294 OA
BRANCH  23  24
HETATM   24  P   UNK N   1      32.956   9.780   9.291  0.00  0.00     0.390 P 
HETATM   25  O   UNK N   1      32.664   8.806  10.462  0.00  0.00    -0.632 OA
BRANCH  24  26
HETATM   26  O   UNK N   1      31.254   9.494   9.124  0.00  0.00    -0.307 OA
HETATM   27  H   UNK N   1      30.657   9.307   9.865  0.00  0.00     0.222 HD
ENDBRANCH  24  26
BRANCH  24  28
HETATM   28  O   UNK N   1      32.038  11.240   9.522  0.00  0.00    -0.307 OA
HETATM   29  H   UNK N   1      32.184  12.157   9.802  0.00  0.00     0.222 HD
ENDBRANCH  24  28
ENDBRANCH  23  24
ENDBRANCH  22  23
ENDBRANCH   1  22
TORSDOF 9
ENDMDL
MODEL 2
REMARK VINA RESULT:      -6.5      2.772      6.543
REMARK  9 active torsions:
REMARK  status: ('A' for Active; 'I' for Inactive)
REMARK    1  A    between atoms: C_10  and  C_5 
REMARK    2  A    between atoms: O_23  and  C_5 
REMARK    3  A    between atoms: O_22  and  C_7 
REMARK    4  A    between atoms: C_11  and  O_17 
REMARK    5  A    between atoms: C_12  and  O_18 
REMARK    6  A    between atoms: C_13  and  N_16 
REMARK    7  A    between atoms: P_25  and  O_19 
REMARK    8  A    between atoms: P_25  and  O_20 
REMARK    9  A    between atoms: P_25  and  O_23 
ROOT
HETATM    1  C   UNK N   1      34.772  14.406   8.114  0.00  0.00     0.180 C 
HETATM    2  C   UNK N   1      33.685  13.727   8.970  0.00  0.00     0.182 C 
HETATM    3  C   UNK N   1      34.430  12.514   9.419  0.00  0.00     0.198 C 
HETATM    4  C   UNK N   1      35.839  13.059   9.613  0.00  0.00     0.261 C 
HETATM    5  O   UNK N   1      36.048  13.938   8.529  0.00  0.00    -0.353 OA
ENDROOT
BRANCH   4   6
HETATM    6  N   UNK N   1      36.146  13.747  10.886  0.00  0.00    -0.311 N 
HETATM    7  C   UNK N   1      36.111  15.090  11.105  0.00  0.00     0.186 A 
HETATM    8  N   UNK N   1      36.237  15.384  12.429  0.00  0.00    -0.350 N 
HETATM    9  C   UNK N   1      36.328  14.187  13.039  0.00  0.00     0.062 A 
ATOM     10  HN  UNK N   1      36.256  16.307  12.862  1.00  0.00     0.166 HD
HETATM   11  C   UNK N   1      36.346  13.922  14.407  0.00  0.00     0.068 A 
HETATM   12  C   UNK N   1      36.294  13.199  12.108  0.00  0.00     0.064 A 
HETATM   13  C   UNK N   1      36.346  12.563  14.818  0.00  0.00     0.070 A 
HETATM   14  C   UNK N   1      36.358  11.539  13.844  0.00  0.00     0.039 A 
HETATM   15  C   UNK N   1      36.316  11.851  12.476  0.00  0.00     0.035 A 
BRANCH  13  16
HETATM   16  O   UNK N   1      36.285  12.211  16.124  0.00  0.00    -0.356 OA
HETATM   17  C   UNK N   1      35.260  12.591  16.959  0.00  0.00     0.210 C 
ENDBRANCH  13  16
ENDBRANCH   4   6
BRANCH   3  18
HETATM   18  O   UNK N   1      33.882  11.891  10.544  0.00  0.00    -0.388 OA
HETATM   19  H   UNK N   1      33.366  12.104  11.336  0.00  0.00     0.210 HD
ENDBRANCH   3  18
BRANCH   2  20
HETATM   20  O   UNK N   1      33.349  14.504  10.084  0.00  0.00    -0.390 OA
HETATM   21  H   UNK N   1      32.648  14.836  10.668  0.00  0.00     0.210 HD
ENDBRANCH   2  20
BRANCH   1  22
HETATM   22  C   UNK N   1      34.741  15.931   8.222  0.00  0.00     0.215 C 
BRANCH  22  23
HETATM   23  O   UNK N   1      33.541  16.472   7.753  0.00  0.00    -0.294 OA
BRANCH  23  24
HETATM   24  P   UNK N   1      33.620  18.151   8.191  0.00  0.00     0.390 P 
HETATM   25  O   UNK N   1      34.261  17.458   9.422  0.00  0.00    -0.632 OA
BRANCH  24  26
HETATM   26  O   UNK N   1      35.137  18.979   8.340  0.00  0.00    -0.307 OA
HETATM   27  H   UNK N   1      35.228  19.906   8.609  0.00  0.00     0.222 HD
ENDBRANCH  24  26
BRANCH  24  28
HETATM   28  O   UNK N   1      34.630  17.887   6.799  0.00  0.00    -0.307 OA
HETATM   29  H   UNK N   1      35.104  18.408   6.132  0.00  0.00     0.222 HD
ENDBRANCH  24  28
ENDBRANCH  23  24
ENDBRANCH  22  23
ENDBRANCH   1  22
TORSDOF 9
ENDMDL
MODEL 3
REMARK VINA RESULT:      -6.5     16.050     19.994
REMARK  9 active torsions:
REMARK  status: ('A' for Active; 'I' for Inactive)
REMARK    1  A    between atoms: C_10  and  C_5 
REMARK    2  A    between atoms: O_23  and  C_5 
REMARK    3  A    between atoms: O_22  and  C_7 
REMARK    4  A    between atoms: C_11  and  O_17 
REMARK    5  A    between atoms: C_12  and  O_18 
REMARK    6  A    between atoms: C_13  and  N_16 
REMARK    7  A    between atoms: P_25  and  O_19 
REMARK    8  A    between atoms: P_25  and  O_20 
REMARK    9  A    between atoms: P_25  and  O_23 
ROOT
HETATM    1  C   UNK N   1      25.375  24.633  -5.251  0.00  0.00     0.180 C 
HETATM    2  C   UNK N   1      25.639  25.932  -6.037  0.00  0.00     0.182 C 
HETATM    3  C   UNK N   1      25.863  26.878  -4.905  0.00  0.00     0.198 C 
HETATM    4  C   UNK N   1      26.597  26.002  -3.898  0.00  0.00     0.261 C 
HETATM    5  O   UNK N   1      25.950  24.750  -3.956  0.00  0.00    -0.353 OA
ENDROOT
BRANCH   4   6
HETATM    6  N   UNK N   1      28.056  25.826  -4.069  0.00  0.00    -0.311 N 
HETATM    7  C   UNK N   1      28.942  26.780  -4.463  0.00  0.00     0.186 A 
HETATM    8  N   UNK N   1      30.229  26.359  -4.317  0.00  0.00    -0.350 N 
HETATM    9  C   UNK N   1      30.127  25.120  -3.797  0.00  0.00     0.062 A 
ATOM     10  HN  UNK N   1      31.081  26.870  -4.548  1.00  0.00     0.166 HD
HETATM   11  C   UNK N   1      31.154  24.296  -3.340  0.00  0.00     0.068 A 
HETATM   12  C   UNK N   1      28.817  24.789  -3.666  0.00  0.00     0.064 A 
HETATM   13  C   UNK N   1      30.793  23.063  -2.737  0.00  0.00     0.070 A 
HETATM   14  C   UNK N   1      29.430  22.702  -2.646  0.00  0.00     0.039 A 
HETATM   15  C   UNK N   1      28.426  23.574  -3.097  0.00  0.00     0.035 A 
BRANCH  13  16
HETATM   16  O   UNK N   1      31.717  22.234  -2.195  0.00  0.00    -0.356 OA
HETATM   17  C   UNK N   1      32.550  21.440  -2.949  0.00  0.00     0.210 C 
ENDBRANCH  13  16
ENDBRANCH   4   6
BRANCH   3  18
HETATM   18  O   UNK N   1      26.535  28.050  -5.264  0.00  0.00    -0.388 OA
HETATM   19  H   UNK N   1      26.413  28.840  -5.813  0.00  0.00     0.210 HD
ENDBRANCH   3  18
BRANCH   2  20
HETATM   20  O   UNK N   1      26.806  25.840  -6.803  0.00  0.00    -0.390 OA
HETATM   21  H   UNK N   1      27.776  25.860  -6.819  0.00  0.00     0.210 HD
ENDBRANCH   2  20
BRANCH   1  22
HETATM   22  C   UNK N   1      25.950  23.397  -5.943  0.00  0.00     0.215 C 
BRANCH  22  23
HETATM   23  O   UNK N   1      24.960  22.617  -6.545  0.00  0.00    -0.294 OA
BRANCH  23  24
HETATM   24  P   UNK N   1      25.352  22.648  -8.237  0.00  0.00     0.390 P 
HETATM   25  O   UNK N   1      26.365  21.613  -7.684  0.00  0.00    -0.632 OA
BRANCH  24  26
HETATM   26  O   UNK N   1      25.077  21.274  -9.258  0.00  0.00    -0.307 OA
HETATM   27  H   UNK N   1      25.732  20.912  -9.874  0.00  0.00     0.222 HD
ENDBRANCH  24  26
BRANCH  24  28
HETATM   28  O   UNK N   1      23.738  22.025  -8.047  0.00  0.00    -0.307 OA
HETATM   29  H   UNK N   1      23.058  21.959  -7.359  0.00  0.00     0.222 HD
ENDBRANCH  24  28
ENDBRANCH  23  24
ENDBRANCH  22  23
ENDBRANCH   1  22
TORSDOF 9
ENDMDL
MODEL 4
REMARK VINA RESULT:      -6.3      4.020      6.369
REMARK  9 active torsions:
REMARK  status: ('A' for Active; 'I' for Inactive)
REMARK    1  A    between atoms: C_10  and  C_5 
REMARK    2  A    between atoms: O_23  and  C_5 
REMARK    3  A    between atoms: O_22  and  C_7 
REMARK    4  A    between atoms: C_11  and  O_17 
REMARK    5  A    between atoms: C_12  and  O_18 
REMARK    6  A    between atoms: C_13  and  N_16 
REMARK    7  A    between atoms: P_25  and  O_19 
REMARK    8  A    between atoms: P_25  and  O_20 
REMARK    9  A    between atoms: P_25  and  O_23 
ROOT
HETATM    1  C   UNK N   1      34.200  14.995   7.583  0.00  0.00     0.180 C 
HETATM    2  C   UNK N   1      34.382  16.402   6.982  0.00  0.00     0.182 C 
HETATM    3  C   UNK N   1      33.339  16.364   5.915  0.00  0.00     0.198 C 
HETATM    4  C   UNK N   1      32.231  15.558   6.581  0.00  0.00     0.261 C 
HETATM    5  O   UNK N   1      32.894  14.527   7.280  0.00  0.00    -0.353 OA
ENDROOT
BRANCH   4   6
HETATM    6  N   UNK N   1      31.308  16.271   7.490  0.00  0.00    -0.311 N 
HETATM    7  C   UNK N   1      31.488  16.476   8.824  0.00  0.00     0.186 A 
HETATM    8  N   UNK N   1      30.567  17.345   9.326  0.00  0.00    -0.350 N 
HETATM    9  C   UNK N   1      29.816  17.699   8.265  0.00  0.00     0.062 A 
ATOM     10  HN  UNK N   1      30.470  17.659  10.291  1.00  0.00     0.166 HD
HETATM   11  C   UNK N   1      28.813  18.665   8.210  0.00  0.00     0.068 A 
HETATM   12  C   UNK N   1      30.249  17.037   7.161  0.00  0.00     0.064 A 
HETATM   13  C   UNK N   1      28.225  18.935   6.947  0.00  0.00     0.070 A 
HETATM   14  C   UNK N   1      28.646  18.210   5.810  0.00  0.00     0.039 A 
HETATM   15  C   UNK N   1      29.676  17.262   5.907  0.00  0.00     0.035 A 
BRANCH  13  16
HETATM   16  O   UNK N   1      27.299  19.910   6.784  0.00  0.00    -0.356 OA
HETATM   17  C   UNK N   1      27.503  21.020   5.997  0.00  0.00     0.210 C 
ENDBRANCH  13  16
ENDBRANCH   4   6
BRANCH   3  18
HETATM   18  O   UNK N   1      32.949  17.623   5.450  0.00  0.00    -0.388 OA
HETATM   19  H   UNK N   1      32.457  18.405   5.743  0.00  0.00     0.210 HD
ENDBRANCH   3  18
BRANCH   2  20
HETATM   20  O   UNK N   1      34.062  17.401   7.907  0.00  0.00    -0.390 OA
HETATM   21  H   UNK N   1      33.956  17.648   8.840  0.00  0.00     0.210 HD
ENDBRANCH   2  20
BRANCH   1  22
HETATM   22  C   UNK N   1      34.400  14.971   9.098  0.00  0.00     0.215 C 
BRANCH  22  23
HETATM   23  O   UNK N   1      35.666  15.429   9.474  0.00  0.00    -0.294 OA
BRANCH  23  24
HETATM   24  P   UNK N   1      35.451  16.022  11.093  0.00  0.00     0.390 P 
HETATM   25  O   UNK N   1      34.867  14.589  11.187  0.00  0.00    -0.632 OA
BRANCH  24  26
HETATM   26  O   UNK N   1      36.326  15.349  12.430  0.00  0.00    -0.307 OA
HETATM   27  H   UNK N   1      37.288  15.403  12.535  0.00  0.00     0.222 HD
ENDBRANCH  24  26
BRANCH  24  28
HETATM   28  O   UNK N   1      37.155  15.923  10.755  0.00  0.00    -0.307 OA
HETATM   29  H   UNK N   1      37.779  16.197  10.065  0.00  0.00     0.222 HD
ENDBRANCH  24  28
ENDBRANCH  23  24
ENDBRANCH  22  23
ENDBRANCH   1  22
TORSDOF 9
ENDMDL
MODEL 5
REMARK VINA RESULT:      -6.2      4.460      7.231
REMARK  9 active torsions:
REMARK  status: ('A' for Active; 'I' for Inactive)
REMARK    1  A    between atoms: C_10  and  C_5 
REMARK    2  A    between atoms: O_23  and  C_5 
REMARK    3  A    between atoms: O_22  and  C_7 
REMARK    4  A    between atoms: C_11  and  O_17 
REMARK    5  A    between atoms: C_12  and  O_18 
REMARK    6  A    between atoms: C_13  and  N_16 
REMARK    7  A    between atoms: P_25  and  O_19 
REMARK    8  A    between atoms: P_25  and  O_20 
REMARK    9  A    between atoms: P_25  and  O_23 
ROOT
HETATM    1  C   UNK N   1      33.573  15.497   6.872  0.00  0.00     0.180 C 
HETATM    2  C   UNK N   1      33.705  16.864   6.172  0.00  0.00     0.182 C 
HETATM    3  C   UNK N   1      32.707  16.689   5.076  0.00  0.00     0.198 C 
HETATM    4  C   UNK N   1      31.617  15.876   5.764  0.00  0.00     0.261 C 
HETATM    5  O   UNK N   1      32.305  14.937   6.561  0.00  0.00    -0.353 OA
ENDROOT
BRANCH   4   6
HETATM    6  N   UNK N   1      30.624  16.603   6.584  0.00  0.00    -0.311 N 
HETATM    7  C   UNK N   1      30.682  16.805   7.929  0.00  0.00     0.186 A 
HETATM    8  N   UNK N   1      29.732  17.687   8.344  0.00  0.00    -0.350 N 
HETATM    9  C   UNK N   1      29.089  18.053   7.218  0.00  0.00     0.062 A 
ATOM     10  HN  UNK N   1      29.549  18.003   9.296  1.00  0.00     0.166 HD
HETATM   11  C   UNK N   1      28.110  19.034   7.072  0.00  0.00     0.068 A 
HETATM   12  C   UNK N   1      29.612  17.384   6.159  0.00  0.00     0.064 A 
HETATM   13  C   UNK N   1      27.646  19.314   5.759  0.00  0.00     0.070 A 
HETATM   14  C   UNK N   1      28.160  18.582   4.666  0.00  0.00     0.039 A 
HETATM   15  C   UNK N   1      29.163  17.618   4.856  0.00  0.00     0.035 A 
BRANCH  13  16
HETATM   16  O   UNK N   1      26.754  20.302   5.512  0.00  0.00    -0.356 OA
HETATM   17  C   UNK N   1      26.665  21.445   6.274  0.00  0.00     0.210 C 
ENDBRANCH  13  16
ENDBRANCH   4   6
BRANCH   3  18
HETATM   18  O   UNK N   1      32.270  17.888   4.504  0.00  0.00    -0.388 OA
HETATM   19  H   UNK N   1      31.741  18.207   3.757  0.00  0.00     0.210 HD
ENDBRANCH   3  18
BRANCH   2  20
HETATM   20  O   UNK N   1      33.298  17.910   7.008  0.00  0.00    -0.390 OA
HETATM   21  H   UNK N   1      32.582  18.310   7.526  0.00  0.00     0.210 HD
ENDBRANCH   2  20
BRANCH   1  22
HETATM   22  C   UNK N   1      33.716  15.596   8.391  0.00  0.00     0.215 C 
BRANCH  22  23
HETATM   23  O   UNK N   1      34.765  16.437   8.772  0.00  0.00    -0.294 OA
BRANCH  23  24
HETATM   24  P   UNK N   1      35.242  15.855  10.338  0.00  0.00     0.390 P 
HETATM   25  O   UNK N   1      36.143  15.023   9.388  0.00  0.00    -0.632 OA
BRANCH  24  26
HETATM   26  O   UNK N   1      36.828  16.153  10.972  0.00  0.00    -0.307 OA
HETATM   27  H   UNK N   1      37.243  15.626  11.673  0.00  0.00     0.222 HD
ENDBRANCH  24  26
BRANCH  24  28
HETATM   28  O   UNK N   1      35.675  17.535  10.209  0.00  0.00    -0.307 OA
HETATM   29  H   UNK N   1      36.462  18.095  10.302  0.00  0.00     0.222 HD
ENDBRANCH  24  28
ENDBRANCH  23  24
ENDBRANCH  22  23
ENDBRANCH   1  22
TORSDOF 9
ENDMDL
MODEL 6
REMARK VINA RESULT:      -6.1      2.517      3.697
REMARK  9 active torsions:
REMARK  status: ('A' for Active; 'I' for Inactive)
REMARK    1  A    between atoms: C_10  and  C_5 
REMARK    2  A    between atoms: O_23  and  C_5 
REMARK    3  A    between atoms: O_22  and  C_7 
REMARK    4  A    between atoms: C_11  and  O_17 
REMARK    5  A    between atoms: C_12  and  O_18 
REMARK    6  A    between atoms: C_13  and  N_16 
REMARK    7  A    between atoms: P_25  and  O_19 
REMARK    8  A    between atoms: P_25  and  O_20 
REMARK    9  A    between atoms: P_25  and  O_23 
ROOT
HETATM    1  C   UNK N   1      35.908  14.260  11.324  0.00  0.00     0.180 C 
HETATM    2  C   UNK N   1      34.948  15.454  11.486  0.00  0.00     0.182 C 
HETATM    3  C   UNK N   1      35.319  16.249  10.278  0.00  0.00     0.198 C 
HETATM    4  C   UNK N   1      35.598  15.158   9.252  0.00  0.00     0.261 C 
HETATM    5  O   UNK N   1      36.290  14.153   9.960  0.00  0.00    -0.353 OA
ENDROOT
BRANCH   4   6
HETATM    6  N   UNK N   1      34.444  14.570   8.537  0.00  0.00    -0.311 N 
HETATM    7  C   UNK N   1      33.692  13.514   8.953  0.00  0.00     0.186 A 
HETATM    8  N   UNK N   1      32.582  13.355   8.181  0.00  0.00    -0.350 N 
HETATM    9  C   UNK N   1      32.645  14.355   7.281  0.00  0.00     0.062 A 
ATOM     10  HN  UNK N   1      31.862  12.638   8.267  1.00  0.00     0.166 HD
HETATM   11  C   UNK N   1      31.686  14.720   6.337  0.00  0.00     0.068 A 
HETATM   12  C   UNK N   1      33.778  15.076   7.482  0.00  0.00     0.064 A 
HETATM   13  C   UNK N   1      31.934  15.881   5.558  0.00  0.00     0.070 A 
HETATM   14  C   UNK N   1      33.136  16.600   5.739  0.00  0.00     0.039 A 
HETATM   15  C   UNK N   1      34.064  16.210   6.717  0.00  0.00     0.035 A 
BRANCH  13  16
HETATM   16  O   UNK N   1      31.024  16.354   4.673  0.00  0.00    -0.356 OA
HETATM   17  C   UNK N   1      30.238  17.456   4.917  0.00  0.00     0.210 C 
ENDBRANCH  13  16
ENDBRANCH   4   6
BRANCH   3  18
HETATM   18  O   UNK N   1      34.356  17.186   9.892  0.00  0.00    -0.388 OA
HETATM   19  H   UNK N   1      33.398  17.259   9.763  0.00  0.00     0.210 HD
ENDBRANCH   3  18
BRANCH   2  20
HETATM   20  O   UNK N   1      33.610  15.056  11.385  0.00  0.00    -0.390 OA
HETATM   21  H   UNK N   1      32.722  15.252  11.045  0.00  0.00     0.210 HD
ENDBRANCH   2  20
BRANCH   1  22
HETATM   22  C   UNK N   1      35.285  12.938  11.773  0.00  0.00     0.215 C 
BRANCH  22  23
HETATM   23  O   UNK N   1      34.586  13.062  12.977  0.00  0.00    -0.294 OA
BRANCH  23  24
HETATM   24  P   UNK N   1      34.919  11.585  13.827  0.00  0.00     0.390 P 
HETATM   25  O   UNK N   1      34.061  12.370  14.853  0.00  0.00    -0.632 OA
BRANCH  24  26
HETATM   26  O   UNK N   1      33.661  10.453  14.207  0.00  0.00    -0.307 OA
HETATM   27  H   UNK N   1      32.823  10.692  14.633  0.00  0.00     0.222 HD
ENDBRANCH  24  26
BRANCH  24  28
HETATM   28  O   UNK N   1      33.946  11.220  12.431  0.00  0.00    -0.307 OA
HETATM   29  H   UNK N   1      33.059  11.411  12.090  0.00  0.00     0.222 HD
ENDBRANCH  24  28
ENDBRANCH  23  24
ENDBRANCH  22  23
ENDBRANCH   1  22
TORSDOF 9
ENDMDL
MODEL 7
REMARK VINA RESULT:      -6.1      3.211      5.509
REMARK  9 active torsions:
REMARK  status: ('A' for Active; 'I' for Inactive)
REMARK    1  A    between atoms: C_10  and  C_5 
REMARK    2  A    between atoms: O_23  and  C_5 
REMARK    3  A    between atoms: O_22  and  C_7 
REMARK    4  A    between atoms: C_11  and  O_17 
REMARK    5  A    between atoms: C_12  and  O_18 
REMARK    6  A    between atoms: C_13  and  N_16 
REMARK    7  A    between atoms: P_25  and  O_19 
REMARK    8  A    between atoms: P_25  and  O_20 
REMARK    9  A    between atoms: P_25  and  O_23 
ROOT
HETATM    1  C   UNK N   1      34.544  15.337  10.729  0.00  0.00     0.180 C 
HETATM    2  C   UNK N   1      35.637  15.702  11.752  0.00  0.00     0.182 C 
HETATM    3  C   UNK N   1      35.786  14.391  12.450  0.00  0.00     0.198 C 
HETATM    4  C   UNK N   1      35.598  13.400  11.309  0.00  0.00     0.261 C 
HETATM    5  O   UNK N   1      34.549  13.930  10.528  0.00  0.00    -0.353 OA
ENDROOT
BRANCH   4   6
HETATM    6  N   UNK N   1      36.765  13.102  10.451  0.00  0.00    -0.311 N 
HETATM    7  C   UNK N   1      38.046  12.912  10.871  0.00  0.00     0.186 A 
HETATM    8  N   UNK N   1      38.839  12.449   9.865  0.00  0.00    -0.350 N 
HETATM    9  C   UNK N   1      38.015  12.331   8.806  0.00  0.00     0.062 A 
ATOM     10  HN  UNK N   1      39.835  12.237   9.906  1.00  0.00     0.166 HD
HETATM   11  C   UNK N   1      38.299  11.780   7.558  0.00  0.00     0.068 A 
HETATM   12  C   UNK N   1      36.769  12.744   9.152  0.00  0.00     0.064 A 
HETATM   13  C   UNK N   1      37.233  11.673   6.625  0.00  0.00     0.070 A 
HETATM   14  C   UNK N   1      35.949  12.148   6.974  0.00  0.00     0.039 A 
HETATM   15  C   UNK N   1      35.703  12.675   8.251  0.00  0.00     0.035 A 
BRANCH  13  16
HETATM   16  O   UNK N   1      37.397  11.081   5.418  0.00  0.00    -0.356 OA
HETATM   17  C   UNK N   1      36.538  11.275   4.361  0.00  0.00     0.210 C 
ENDBRANCH  13  16
ENDBRANCH   4   6
BRANCH   3  18
HETATM   18  O   UNK N   1      36.985  14.252  13.156  0.00  0.00    -0.388 OA
HETATM   19  H   UNK N   1      37.319  13.891  13.991  0.00  0.00     0.210 HD
ENDBRANCH   3  18
BRANCH   2  20
HETATM   20  O   UNK N   1      36.841  16.032  11.122  0.00  0.00    -0.390 OA
HETATM   21  H   UNK N   1      37.804  16.128  11.198  0.00  0.00     0.210 HD
ENDBRANCH   2  20
BRANCH   1  22
HETATM   22  C   UNK N   1      34.740  16.034   9.383  0.00  0.00     0.215 C 
BRANCH  22  23
HETATM   23  O   UNK N   1      34.786  17.425   9.508  0.00  0.00    -0.294 OA
BRANCH  23  24
HETATM   24  P   UNK N   1      33.853  18.013   8.166  0.00  0.00     0.390 P 
HETATM   25  O   UNK N   1      34.981  19.072   8.272  0.00  0.00    -0.632 OA
BRANCH  24  26
HETATM   26  O   UNK N   1      34.495  18.038   6.555  0.00  0.00    -0.307 OA
HETATM   27  H   UNK N   1      35.052  17.339   6.179  0.00  0.00     0.222 HD
ENDBRANCH  24  26
BRANCH  24  28
HETATM   28  O   UNK N   1      34.549  16.478   7.733  0.00  0.00    -0.307 OA
HETATM   29  H   UNK N   1      35.393  16.124   7.414  0.00  0.00     0.222 HD
ENDBRANCH  24  28
ENDBRANCH  23  24
ENDBRANCH  22  23
ENDBRANCH   1  22
TORSDOF 9
ENDMDL
MODEL 8
REMARK VINA RESULT:      -6.0      3.973      7.554
REMARK  9 active torsions:
REMARK  status: ('A' for Active; 'I' for Inactive)
REMARK    1  A    between atoms: C_10  and  C_5 
REMARK    2  A    between atoms: O_23  and  C_5 
REMARK    3  A    between atoms: O_22  and  C_7 
REMARK    4  A    between atoms: C_11  and  O_17 
REMARK    5  A    between atoms: C_12  and  O_18 
REMARK    6  A    between atoms: C_13  and  N_16 
REMARK    7  A    between atoms: P_25  and  O_19 
REMARK    8  A    between atoms: P_25  and  O_20 
REMARK    9  A    between atoms: P_25  and  O_23 
ROOT
HETATM    1  C   UNK N   1      36.860  12.894  10.768  0.00  0.00     0.180 C 
HETATM    2  C   UNK N   1      35.614  12.032  11.048  0.00  0.00     0.182 C 
HETATM    3  C   UNK N   1      36.225  10.961  11.889  0.00  0.00     0.198 C 
HETATM    4  C   UNK N   1      37.261  11.739  12.692  0.00  0.00     0.261 C 
HETATM    5  O   UNK N   1      37.830  12.649  11.777  0.00  0.00    -0.353 OA
ENDROOT
BRANCH   4   6
HETATM    6  N   UNK N   1      36.801  12.458  13.900  0.00  0.00    -0.311 N 
HETATM    7  C   UNK N   1      36.346  13.740  13.950  0.00  0.00     0.186 A 
HETATM    8  N   UNK N   1      35.805  14.032  15.165  0.00  0.00    -0.350 N 
HETATM    9  C   UNK N   1      35.910  12.890  15.871  0.00  0.00     0.062 A 
ATOM     10  HN  UNK N   1      35.405  14.919  15.471  1.00  0.00     0.166 HD
HETATM   11  C   UNK N   1      35.394  12.613  17.135  0.00  0.00     0.068 A 
HETATM   12  C   UNK N   1      36.530  11.946  15.116  0.00  0.00     0.064 A 
HETATM   13  C   UNK N   1      35.548  11.294  17.638  0.00  0.00     0.070 A 
HETATM   14  C   UNK N   1      36.235  10.329  16.869  0.00  0.00     0.039 A 
HETATM   15  C   UNK N   1      36.719  10.645  15.590  0.00  0.00     0.035 A 
BRANCH  13  16
HETATM   16  O   UNK N   1      35.011  10.914  18.822  0.00  0.00    -0.356 OA
HETATM   17  C   UNK N   1      35.640  11.105  20.031  0.00  0.00     0.210 C 
ENDBRANCH  13  16
ENDBRANCH   4   6
BRANCH   3  18
HETATM   18  O   UNK N   1      35.305  10.243  12.659  0.00  0.00    -0.388 OA
HETATM   19  H   UNK N   1      35.226   9.399  13.129  0.00  0.00     0.210 HD
ENDBRANCH   3  18
BRANCH   2  20
HETATM   20  O   UNK N   1      34.665  12.730  11.802  0.00  0.00    -0.390 OA
HETATM   21  H   UNK N   1      34.207  13.570  11.964  0.00  0.00     0.210 HD
ENDBRANCH   2  20
BRANCH   1  22
HETATM   22  C   UNK N   1      36.546  14.390  10.731  0.00  0.00     0.215 C 
BRANCH  22  23
HETATM   23  O   UNK N   1      35.853  14.758   9.575  0.00  0.00    -0.294 OA
BRANCH  23  24
HETATM   24  P   UNK N   1      35.120  16.282   9.974  0.00  0.00     0.390 P 
HETATM   25  O   UNK N   1      34.183  15.269  10.682  0.00  0.00    -0.632 OA
BRANCH  24  26
HETATM   26  O   UNK N   1      35.091  16.875  11.603  0.00  0.00    -0.307 OA
HETATM   27  H   UNK N   1      34.746  17.744  11.861  0.00  0.00     0.222 HD
ENDBRANCH  24  26
BRANCH  24  28
HETATM   28  O   UNK N   1      36.696  16.209  10.708  0.00  0.00    -0.307 OA
HETATM   29  H   UNK N   1      37.113  16.401  11.562  0.00  0.00     0.222 HD
ENDBRANCH  24  28
ENDBRANCH  23  24
ENDBRANCH  22  23
ENDBRANCH   1  22
TORSDOF 9
ENDMDL
MODEL 9
REMARK VINA RESULT:      -5.9     17.276     19.726
REMARK  9 active torsions:
REMARK  status: ('A' for Active; 'I' for Inactive)
REMARK    1  A    between atoms: C_10  and  C_5 
REMARK    2  A    between atoms: O_23  and  C_5 
REMARK    3  A    between atoms: O_22  and  C_7 
REMARK    4  A    between atoms: C_11  and  O_17 
REMARK    5  A    between atoms: C_12  and  O_18 
REMARK    6  A    between atoms: C_13  and  N_16 
REMARK    7  A    between atoms: P_25  and  O_19 
REMARK    8  A    between atoms: P_25  and  O_20 
REMARK    9  A    between atoms: P_25  and  O_23 
ROOT
HETATM    1  C   UNK N   1      28.098  25.244  -3.998  0.00  0.00     0.180 C 
HETATM    2  C   UNK N   1      26.566  25.386  -3.927  0.00  0.00     0.182 C 
HETATM    3  C   UNK N   1      26.297  25.959  -5.278  0.00  0.00     0.198 C 
HETATM    4  C   UNK N   1      27.323  25.235  -6.142  0.00  0.00     0.261 C 
HETATM    5  O   UNK N   1      28.497  25.191  -5.361  0.00  0.00    -0.353 OA
ENDROOT
BRANCH   4   6
HETATM    6  N   UNK N   1      26.986  23.879  -6.625  0.00  0.00    -0.311 N 
HETATM    7  C   UNK N   1      25.792  23.481  -7.143  0.00  0.00     0.186 A 
HETATM    8  N   UNK N   1      25.873  22.235  -7.687  0.00  0.00    -0.350 N 
HETATM    9  C   UNK N   1      27.158  21.870  -7.518  0.00  0.00     0.062 A 
ATOM     10  HN  UNK N   1      25.125  21.699  -8.127  1.00  0.00     0.166 HD
HETATM   11  C   UNK N   1      27.797  20.733  -8.009  0.00  0.00     0.068 A 
HETATM   12  C   UNK N   1      27.826  22.851  -6.859  0.00  0.00     0.064 A 
HETATM   13  C   UNK N   1      29.194  20.610  -7.785  0.00  0.00     0.070 A 
HETATM   14  C   UNK N   1      29.875  21.612  -7.058  0.00  0.00     0.039 A 
HETATM   15  C   UNK N   1      29.196  22.753  -6.601  0.00  0.00     0.035 A 
BRANCH  13  16
HETATM   16  O   UNK N   1      29.911  19.579  -8.291  0.00  0.00    -0.356 OA
HETATM   17  C   UNK N   1      31.281  19.497  -8.199  0.00  0.00     0.210 C 
ENDBRANCH  13  16
ENDBRANCH   4   6
BRANCH   3  18
HETATM   18  O   UNK N   1      24.972  25.824  -5.704  0.00  0.00    -0.388 OA
HETATM   19  H   UNK N   1      24.450  25.360  -6.377  0.00  0.00     0.210 HD
ENDBRANCH   3  18
BRANCH   2  20
HETATM   20  O   UNK N   1      25.939  24.139  -3.819  0.00  0.00    -0.390 OA
HETATM   21  H   UNK N   1      25.624  23.341  -4.273  0.00  0.00     0.210 HD
ENDBRANCH   2  20
BRANCH   1  22
HETATM   22  C   UNK N   1      28.609  23.995  -3.279  0.00  0.00     0.215 C 
BRANCH  22  23
HETATM   23  O   UNK N   1      29.957  24.099  -2.926  0.00  0.00    -0.294 OA
BRANCH  23  24
HETATM   24  P   UNK N   1      30.555  22.470  -3.009  0.00  0.00     0.390 P 
HETATM   25  O   UNK N   1      31.672  23.269  -3.730  0.00  0.00    -0.632 OA
BRANCH  24  26
HETATM   26  O   UNK N   1      31.979  21.982  -2.148  0.00  0.00    -0.307 OA
HETATM   27  H   UNK N   1      32.635  22.597  -1.786  0.00  0.00     0.222 HD
ENDBRANCH  24  26
BRANCH  24  28
HETATM   28  O   UNK N   1      30.491  22.959  -1.340  0.00  0.00    -0.307 OA
HETATM   29  H   UNK N   1      31.028  23.459  -0.705  0.00  0.00     0.222 HD
ENDBRANCH  24  28
ENDBRANCH  23  24
ENDBRANCH  22  23
ENDBRANCH   1  22
TORSDOF 9
ENDMDL
