REMARK  11 active torsions:
REMARK  status: ('A' for Active; 'I' for Inactive)
REMARK    1  A    between atoms: C_2  and  O_3 
REMARK    2  A    between atoms: C_2  and  C_4 
REMARK    3  A    between atoms: C_2  and  C_6 
REMARK    4  A    between atoms: C_6  and  C_7 
REMARK    5  A    between atoms: C_7  and  O_8 
REMARK    6  A    between atoms: P_9  and  O_8 
REMARK    7  A    between atoms: P_9  and  O_10 
REMARK    8  A    between atoms: P_9  and  O_12 
REMARK    9  A    between atoms: O_12  and  P_13 
REMARK   10  A    between atoms: P_13  and  O_14 
REMARK   11  A    between atoms: P_13  and  O_15 
ROOT
HETATM    1  P   UNK N   1       6.667  -2.046   0.814  0.00  0.00     0.401 P 
HETATM    2  O   UNK N   1       7.221  -0.609   0.583  0.00  0.00    -0.631 OA
ENDROOT
BRANCH   1   3
HETATM    3  O   UNK N   1       5.976  -1.596  -0.726  0.00  0.00    -0.297 OA
BRANCH   3   4
HETATM    4  C   UNK N   1       4.739  -1.009  -0.420  0.00  0.00     0.183 C 
BRANCH   4   5
HETATM    5  C   UNK N   1       3.587  -1.759  -1.074  0.00  0.00     0.065 C 
BRANCH   5   6
HETATM    6  C   UNK N   1       2.583  -2.273  -0.043  0.00  0.00     0.065 C 
HETATM    7  C   UNK N   1       3.182  -3.450   0.709  0.00  0.00     0.046 C 
BRANCH   6   8
HETATM    8  O   UNK N   1       2.258  -1.255   0.858  0.00  0.00    -0.389 OA
HETATM    9  H   UNK N   1       2.757  -0.706   1.483  0.00  0.00     0.210 HD
ENDBRANCH   6   8
BRANCH   6  10
HETATM   10  C   UNK N   1       1.325  -2.714  -0.779  0.00  0.00     0.122 C 
HETATM   11 Br   UNK N   1      -0.107  -3.230   0.433  0.00  0.00    -0.093 Br
ENDBRANCH   6  10
ENDBRANCH   5   6
ENDBRANCH   4   5
ENDBRANCH   3   4
ENDBRANCH   1   3
BRANCH   1  12
HETATM   12  O   UNK N   1       6.973  -3.195  -0.458  0.00  0.00    -0.307 OA
HETATM   13  H   UNK N   1       6.504  -3.662  -1.166  0.00  0.00     0.222 HD
ENDBRANCH   1  12
BRANCH   1  14
HETATM   14  O   UNK N   1       8.404  -2.463   0.965  0.00  0.00    -0.195 OA
BRANCH  14  15
HETATM   15  P   UNK N   1       9.449  -1.860  -0.336  0.00  0.00     0.399 P 
HETATM   16  O   UNK N   1       9.866  -0.957   0.855  0.00  0.00    -0.631 OA
BRANCH  15  17
HETATM   17  O   UNK N   1      11.172  -2.051  -0.268  0.00  0.00    -0.307 OA
HETATM   18  H   UNK N   1      11.562  -2.938  -0.230  0.00  0.00     0.222 HD
ENDBRANCH  15  17
BRANCH  15  19
HETATM   19  O   UNK N   1       9.871  -3.505   0.025  0.00  0.00    -0.307 OA
HETATM   20  H   UNK N   1       9.193  -4.169   0.227  0.00  0.00     0.222 HD
ENDBRANCH  15  19
ENDBRANCH  14  15
ENDBRANCH   1  14
TORSDOF 11
