REMARK WARNING: 32 MAX_TORS EXCEEDED!!!
REMARK  34 active torsions:
REMARK  status: ('A' for Active; 'I' for Inactive)
REMARK    1  A    between atoms: C_5  and  C_4 
REMARK    2  A    between atoms: C_14  and  C_4 
REMARK    3  A    between atoms: N_29  and  C_5 
REMARK    4  A    between atoms: C_7  and  C_6 
REMARK    5  A    between atoms: N_27  and  C_6 
REMARK    6  A    between atoms: S_60  and  C_7 
REMARK    7  A    between atoms: C_13  and  C_8 
REMARK    8  A    between atoms: O_52  and  C_8 
REMARK    9  A    between atoms: C_25  and  C_9 
REMARK   10  A    between atoms: O_53  and  C_9 
REMARK   11  A    between atoms: C_23  and  C_12 
REMARK   12  A    between atoms: C_24  and  C_12 
REMARK   13  A    between atoms: N_27  and  C_14 
REMARK   14  A    between atoms: O_38  and  C_14 
REMARK   15  A    between atoms: C_16  and  O_39 
REMARK   16  A    between atoms: C_17  and  O_55 
REMARK   17  A    between atoms: C_21  and  C_18 
REMARK   18  A    between atoms: C_25  and  C_18 
REMARK   19  A    between atoms: C_18  and  O_40 
REMARK   20  A    between atoms: N_26  and  C_19 
REMARK   21  A    between atoms: N_29  and  C_21 
REMARK   22  A    between atoms: O_41  and  C_21 
REMARK   23  A    between atoms: C_22  and  N_37 
REMARK   24  A    between atoms: O_43  and  C_23 
REMARK   25  A    between atoms: S_60  and  C_24 
REMARK   26  A    between atoms: P_57  and  O_45 
REMARK   27  A    between atoms: P_57  and  O_46 
REMARK   28  A    between atoms: P_58  and  O_48 
REMARK   29  A    between atoms: P_59  and  O_50 
REMARK   30  A    between atoms: P_58  and  O_52 
REMARK   31  A    between atoms: P_59  and  O_53 
REMARK   32  A    between atoms: P_57  and  O_55 
REMARK   33  A    between atoms: P_58  and  O_56 
REMARK   34  A    between atoms: P_59  and  O_56 
ROOT
HETATM    1  O   UNK N   1      -4.281  17.256   1.626  0.00  0.00    -0.195 OA
ENDROOT
BRANCH   1   2
HETATM    2  P   UNK N   1      -5.860  16.975   0.832  0.00  0.00     0.401 P 
HETATM    3  O   UNK N   1      -5.062  17.858  -0.171  0.00  0.00    -0.631 OA
BRANCH   2   4
HETATM    4  O   UNK N   1      -5.509  15.290   1.104  0.00  0.00    -0.307 OA
HETATM    5  H   UNK N   1      -6.224  14.652   1.256  0.00  0.00     0.222 HD
ENDBRANCH   2   4
BRANCH   2   6
HETATM    6  O   UNK N   1      -5.808  16.060  -0.671  0.00  0.00    -0.294 OA
BRANCH   6   7
HETATM    7  C   UNK N   1      -6.817  16.510  -1.550  0.00  0.00     0.215 C 
BRANCH   7   8
HETATM    8  C   UNK N   1      -8.152  15.814  -1.331  0.00  0.00     0.180 C 
HETATM    9  C   UNK N   1      -8.972  16.437  -0.193  0.00  0.00     0.197 C 
HETATM   10  C   UNK N   1      -9.876  15.274   0.068  0.00  0.00     0.199 C 
HETATM   11  C   UNK N   1      -8.801  14.181   0.081  0.00  0.00     0.262 C 
HETATM   12  O   UNK N   1      -7.979  14.434  -1.041  0.00  0.00    -0.353 OA
BRANCH   9  13
HETATM   13  O   UNK N   1      -9.657  17.616  -0.561  0.00  0.00    -0.286 OA
BRANCH  13  14
HETATM   14  P   UNK N   1      -8.707  19.016  -0.075  0.00  0.00     0.391 P 
HETATM   15  O   UNK N   1      -9.647  20.245  -0.167  0.00  0.00    -0.632 OA
BRANCH  14  16
HETATM   16  O   UNK N   1      -8.195  18.949   1.585  0.00  0.00    -0.307 OA
HETATM   17  H   UNK N   1      -8.085  18.682   2.511  0.00  0.00     0.222 HD
ENDBRANCH  14  16
BRANCH  14  18
HETATM   18  O   UNK N   1      -7.384  19.354  -1.148  0.00  0.00    -0.307 OA
HETATM   19  H   UNK N   1      -6.851  18.808  -1.747  0.00  0.00     0.222 HD
ENDBRANCH  14  18
ENDBRANCH  13  14
ENDBRANCH   9  13
BRANCH  10  20
HETATM   20  O   UNK N   1     -10.553  15.390   1.284  0.00  0.00    -0.388 OA
HETATM   21  H   UNK N   1     -10.718  15.837   2.129  0.00  0.00     0.210 HD
ENDBRANCH  10  20
BRANCH  11  22
HETATM   22  N   UNK N   1      -9.296  12.801   0.081  0.00  0.00    -0.297 N 
HETATM   23  C   UNK N   1      -8.495  11.703   0.091  0.00  0.00     0.188 A 
HETATM   24  N   UNK N   1      -9.221  10.553   0.146  0.00  0.00    -0.346 N 
HETATM   25  C   UNK N   1     -10.499  10.968   0.172  0.00  0.00     0.122 A 
ATOM     26  HN  UNK N   1      -8.874   9.594   0.163  1.00  0.00     0.167 HD
HETATM   27  C   UNK N   1     -11.669  10.231   0.253  0.00  0.00     0.131 A 
HETATM   28  C   UNK N   1     -10.548  12.314   0.127  0.00  0.00     0.142 A 
HETATM   29  N   UNK N   1     -12.853  10.910   0.278  0.00  0.00    -0.337 N 
HETATM   30  C   UNK N   1     -12.881  12.283   0.226  0.00  0.00     0.183 A 
ATOM     31  HN  UNK N   1     -13.729  10.391   0.336  1.00  0.00     0.168 HD
HETATM   32  N   UNK N   1     -11.716  12.998   0.154  0.00  0.00    -0.336 N 
ATOM     33  HN  UNK N   1     -11.728  14.017   0.122  1.00  0.00     0.168 HD
BRANCH  27  34
HETATM   34  N   UNK N   1     -11.644   8.824   0.322  0.00  0.00    -0.383 N 
HETATM   35  H   UNK N   1     -12.487   8.317   0.370  0.00  0.00     0.157 HD
HETATM   36  H   UNK N   1     -10.783   8.346   0.322  0.00  0.00     0.157 HD
ENDBRANCH  27  34
ENDBRANCH  11  22
ENDBRANCH   7   8
ENDBRANCH   6   7
ENDBRANCH   2   6
ENDBRANCH   1   2
BRANCH   1  37
HETATM   37  P   UNK N   1      -2.982  16.043   1.544  0.00  0.00     0.401 P 
HETATM   38  O   UNK N   1      -2.202  17.266   2.100  0.00  0.00    -0.631 OA
BRANCH  37  39
HETATM   39  O   UNK N   1      -3.289  16.228  -0.151  0.00  0.00    -0.307 OA
HETATM   40  H   UNK N   1      -3.285  16.428  -1.100  0.00  0.00     0.222 HD
ENDBRANCH  37  39
BRANCH  37  41
HETATM   41  O   UNK N   1      -1.725  16.290   0.373  0.00  0.00    -0.296 OA
BRANCH  41  42
HETATM   42  C   UNK N   1      -0.709  15.399   0.704  0.00  0.00     0.192 C 
BRANCH  42  43
HETATM   43  C   UNK N   1      -0.884  13.937   0.222  0.00  0.00     0.008 C 
HETATM   44  C   UNK N   1      -2.155  13.669  -0.576  0.00  0.00     0.020 C 
HETATM   45  C   UNK N   1      -0.956  13.095   1.488  0.00  0.00     0.020 C 
BRANCH  43  46
HETATM   46  C   UNK N   1       0.333  13.537  -0.642  0.00  0.00     0.202 C 
BRANCH  46  47
HETATM   47  C   UNK N   1       1.599  14.099  -0.069  0.00  0.00     0.141 C 
BRANCH  47  48
HETATM   48  N   UNK N   1       1.879  13.908   1.180  0.00  0.00    -0.372 N 
ATOM     49  HN  UNK N   1       1.263  13.294   1.712  1.00  0.00     0.161 HD
BRANCH  48  50
HETATM   50  C   UNK N   1       2.999  14.499   1.879  0.00  0.00     0.129 C 
BRANCH  50  51
HETATM   51  C   UNK N   1       3.044  16.021   1.736  0.00  0.00     0.103 C 
BRANCH  51  52
HETATM   52  C   UNK N   1       4.039  16.605   0.738  0.00  0.00     0.112 C 
BRANCH  52  53
HETATM   53  N   UNK N   1       4.845  15.904   0.002  0.00  0.00    -0.374 N 
ATOM     54  HN  UNK N   1       5.466  16.418  -0.623  1.00  0.00     0.161 HD
BRANCH  53  55
HETATM   55  C   UNK N   1       4.946  14.461  -0.015  0.00  0.00     0.132 C 
BRANCH  55  56
HETATM   56  C   UNK N   1       5.944  13.995   1.028  0.00  0.00     0.102 C 
BRANCH  56  57
HETATM   57  S   UNK N   1       7.296  13.083   0.229  0.00  0.00    -0.090 SA
BRANCH  57  58
HETATM   58  C   UNK N   1       7.685  14.446  -0.879  0.00  0.00     0.200 C 
HETATM   59  O   UNK N   1       7.448  14.315  -2.071  0.00  0.00    -0.285 OA
BRANCH  58  60
HETATM   60  C   UNK N   1       8.201  15.760  -0.332  0.00  0.00     0.160 C 
HETATM   61  C   UNK N   1       8.265  16.819  -1.431  0.00  0.00     0.030 C 
BRANCH  60  62
HETATM   62  C   UNK N   1       9.543  15.566   0.327  0.00  0.00     0.151 C 
HETATM   63  O   UNK N   1      10.528  16.166  -0.075  0.00  0.00    -0.649 OA
BRANCH  62  64
HETATM   64  O   UNK N   1       9.660  14.735   1.381  0.00  0.00    -0.776 OA
HETATM   65  H   UNK N   1       9.200  14.376   2.114  0.00  0.00     0.167 HD
ENDBRANCH  62  64
ENDBRANCH  60  62
ENDBRANCH  58  60
ENDBRANCH  57  58
ENDBRANCH  56  57
ENDBRANCH  55  56
ENDBRANCH  53  55
ENDBRANCH  52  53
BRANCH  52  66
HETATM   66  O   UNK N   1       4.069  17.945   0.614  0.00  0.00    -0.350 OA
HETATM   67  H   UNK N   1       4.888  18.393   0.527  0.00  0.00     0.219 HD
ENDBRANCH  52  66
ENDBRANCH  51  52
ENDBRANCH  50  51
ENDBRANCH  48  50
ENDBRANCH  47  48
BRANCH  47  68
HETATM   68  O   UNK N   1       2.342  14.910  -0.845  0.00  0.00    -0.348 OA
HETATM   69  H   UNK N   1       3.090  14.744  -1.385  0.00  0.00     0.219 HD
ENDBRANCH  47  68
ENDBRANCH  46  47
BRANCH  46  70
HETATM   70  O   UNK N   1       0.424  12.148  -0.766  0.00  0.00    -0.387 OA
HETATM   71  H   UNK N   1      -0.379  11.611  -0.852  0.00  0.00     0.210 HD
ENDBRANCH  46  70
ENDBRANCH  43  46
ENDBRANCH  42  43
ENDBRANCH  41  42
ENDBRANCH  37  41
ENDBRANCH   1  37
TORSDOF 34
