REMARK  28 active torsions:
REMARK  status: ('A' for Active; 'I' for Inactive)
REMARK    1  A    between atoms: C_3  and  C_2 
REMARK    2  A    between atoms: C_4  and  C_3 
REMARK    3  A    between atoms: C_5  and  C_4 
REMARK    4  A    between atoms: C_6  and  C_5 
REMARK    5  A    between atoms: C_7  and  C_6 
REMARK    6  A    between atoms: C_8  and  C_7 
REMARK    7  A    between atoms: C_9  and  C_8 
REMARK    8  A    between atoms: C_10  and  C_9 
REMARK    9  A    between atoms: C_11  and  C_10 
REMARK   10  A    between atoms: C_12  and  C_11 
REMARK   11  A    between atoms: C_13  and  C_12 
REMARK   12  A    between atoms: C_14  and  C_13 
REMARK   13  A    between atoms: C_20  and  C_14 
REMARK   14  A    between atoms: C_18  and  C_15 
REMARK   15  A    between atoms: O_29  and  C_15 
REMARK   16  A    between atoms: C_18  and  C_16 
REMARK   17  A    between atoms: O_30  and  C_16 
REMARK   18  A    between atoms: C_19  and  C_17 
REMARK   19  A    between atoms: O_31  and  C_17 
REMARK   20  A    between atoms: C_18  and  O_23 
REMARK   21  A    between atoms: C_21  and  C_19 
REMARK   22  A    between atoms: C_19  and  N_22 
REMARK   23  A    between atoms: C_20  and  O_24 
REMARK   24  A    between atoms: O_29  and  C_20 
REMARK   25  A    between atoms: O_26  and  C_21 
REMARK   26  A    between atoms: P_32  and  O_27 
REMARK   27  A    between atoms: P_32  and  O_30 
REMARK   28  A    between atoms: P_32  and  O_31 
ROOT
HETATM    1  C   UNK N   1      18.658   4.172   0.265  0.00  0.00     0.204 C 
ENDROOT
BRANCH   1   2
HETATM    2  C   UNK N   1      20.184   4.073   0.257  0.00  0.00     0.166 C 
BRANCH   2   3
HETATM    3  C   UNK N   1      20.833   5.023   1.271  0.00  0.00     0.214 C 
BRANCH   3   4
HETATM    4  O   UNK N   1      22.231   4.925   1.256  0.00  0.00    -0.294 OA
BRANCH   4   5
HETATM    5  P   UNK N   1      22.831   5.923  -0.054  0.00  0.00     0.393 P 
HETATM    6  O   UNK N   1      21.691   6.851  -0.561  0.00  0.00    -0.631 OA
BRANCH   5   7
HETATM    7  O   UNK N   1      23.299   4.946  -1.411  0.00  0.00    -0.307 OA
HETATM    8  H   UNK N   1      22.957   4.447  -2.169  0.00  0.00     0.222 HD
ENDBRANCH   5   7
BRANCH   5   9
HETATM    9  O   UNK N   1      24.119   6.978   0.450  0.00  0.00    -0.294 OA
BRANCH   9  10
HETATM   10  C   UNK N   1      25.166   6.135   0.832  0.00  0.00     0.216 C 
BRANCH  10  11
HETATM   11  C   UNK N   1      26.218   6.043  -0.269  0.00  0.00     0.198 C 
BRANCH  11  12
HETATM   12  C   UNK N   1      27.293   5.080   0.150  0.00  0.00     0.165 C 
HETATM   13  O   UNK N   1      28.454   5.439   0.240  0.00  0.00    -0.648 OA
BRANCH  12  14
HETATM   14  O   UNK N   1      26.969   3.799   0.424  0.00  0.00    -0.775 OA
HETATM   15  H   UNK N   1      26.086   3.549   0.614  0.00  0.00     0.167 HD
ENDBRANCH  12  14
ENDBRANCH  11  12
BRANCH  11  16
HETATM   16  N   UNK N   1      26.775   7.363  -0.528  0.00  0.00    -0.416 N 
HETATM   17  H   UNK N   1      27.771   7.488  -0.710  0.00  0.00     0.150 HD
HETATM   18  H   UNK N   1      26.159   8.177  -0.528  0.00  0.00     0.150 HD
ENDBRANCH  11  16
ENDBRANCH  10  11
ENDBRANCH   9  10
ENDBRANCH   5   9
ENDBRANCH   4   5
ENDBRANCH   3   4
ENDBRANCH   2   3
BRANCH   2  19
HETATM   19  O   UNK N   1      20.545   2.758   0.550  0.00  0.00    -0.391 OA
HETATM   20  H   UNK N   1      19.879   2.083   0.754  0.00  0.00     0.210 HD
ENDBRANCH   2  19
ENDBRANCH   1   2
BRANCH   1  21
HETATM   21  O   UNK N   1      18.188   5.360   0.860  0.00  0.00    -0.359 OA
BRANCH  21  22
HETATM   22  C   UNK N   1      17.654   6.222  -0.119  0.00  0.00     0.256 C 
BRANCH  22  23
HETATM   23  C   UNK N   1      16.171   5.946  -0.342  0.00  0.00     0.060 C 
BRANCH  23  24
HETATM   24  C   UNK N   1      15.886   4.641  -1.080  0.00  0.00     0.005 C 
BRANCH  24  25
HETATM   25  C   UNK N   1      15.575   3.478  -0.135  0.00  0.00     0.000 C 
BRANCH  25  26
HETATM   26  C   UNK N   1      14.425   3.748   0.837  0.00  0.00     0.000 C 
BRANCH  26  27
HETATM   27  C   UNK N   1      13.146   4.174   0.131  0.00  0.00     0.000 C 
BRANCH  27  28
HETATM   28  C   UNK N   1      13.115   5.689   0.050  0.00  0.00     0.000 C 
BRANCH  28  29
HETATM   29  C   UNK N   1      11.953   6.163  -0.795  0.00  0.00     0.000 C 
BRANCH  29  30
HETATM   30  C   UNK N   1      10.829   6.670   0.094  0.00  0.00     0.000 C 
BRANCH  30  31
HETATM   31  C   UNK N   1       9.975   5.532   0.632  0.00  0.00     0.000 C 
BRANCH  31  32
HETATM   32  C   UNK N   1       9.250   4.838  -0.508  0.00  0.00     0.000 C 
BRANCH  32  33
HETATM   33  C   UNK N   1       7.909   4.310  -0.042  0.00  0.00     0.000 C 
BRANCH  33  34
HETATM   34  C   UNK N   1       6.886   5.428  -0.070  0.00  0.00    -0.000 C 
BRANCH  34  35
HETATM   35  C   UNK N   1       5.512   4.864   0.222  0.00  0.00    -0.005 C 
HETATM   36  C   UNK N   1       4.480   5.963   0.084  0.00  0.00     0.005 C 
ENDBRANCH  34  35
ENDBRANCH  33  34
ENDBRANCH  32  33
ENDBRANCH  31  32
ENDBRANCH  30  31
ENDBRANCH  29  30
ENDBRANCH  28  29
ENDBRANCH  27  28
ENDBRANCH  26  27
ENDBRANCH  25  26
ENDBRANCH  24  25
ENDBRANCH  23  24
ENDBRANCH  22  23
BRANCH  22  37
HETATM   37  O   UNK N   1      17.767   7.527   0.359  0.00  0.00    -0.371 OA
HETATM   38  H   UNK N   1      18.592   7.913   0.692  0.00  0.00     0.212 HD
ENDBRANCH  22  37
ENDBRANCH  21  22
ENDBRANCH   1  21
TORSDOF 28
