MODEL 1
REMARK VINA RESULT:      -7.4      0.000      0.000
REMARK  8 active torsions:
REMARK  status: ('A' for Active; 'I' for Inactive)
REMARK       I    between atoms: C_2  and  N_4 
REMARK       I    between atoms: N_7  and  C_10 
REMARK    1  A    between atoms: C_10  and  C_12 
REMARK    2  A    between atoms: C_12  and  C_13 
REMARK    3  A    between atoms: C_12  and  N_24 
REMARK    4  A    between atoms: C_13  and  C_14 
REMARK    5  A    between atoms: C_18  and  C_20 
REMARK    6  A    between atoms: C_20  and  N_21 
REMARK    7  A    between atoms: N_24  and  S_25 
REMARK    8  A    between atoms: S_25  and  C_28 
ROOT
HETATM    1  C   UNK N   1      34.734  11.100  10.379  0.00  0.00     0.189 C 
ENDROOT
BRANCH   1   2
HETATM    2  C   UNK N   1      33.913  12.012   9.441  0.00  0.00     0.243 C 
HETATM    3  N   UNK N   1      34.266  13.285   9.046  0.00  0.00    -0.347 N 
HETATM    4  C   UNK N   1      35.420  14.002   9.557  0.00  0.00     0.145 C 
HETATM    5  C   UNK N   1      33.442  13.994   8.087  0.00  0.00     0.145 C 
HETATM    6  C   UNK N   1      34.938  15.313  10.191  0.00  0.00     0.145 C 
HETATM    7  N   UNK N   1      34.069  16.017   9.274  0.00  0.00    -0.349 N 
HETATM    8  C   UNK N   1      34.291  17.325   8.957  0.00  0.00     0.215 C 
HETATM    9  C   UNK N   1      32.944  15.296   8.704  0.00  0.00     0.145 C 
HETATM   10  C   UNK N   1      33.405  18.057   8.002  0.00  0.00     0.117 C 
HETATM   11  O   UNK N   1      35.228  17.929   9.470  0.00  0.00    -0.274 OA
HETATM   12  O   UNK N   1      32.847  11.566   9.028  0.00  0.00    -0.271 OA
ENDBRANCH   1   2
BRANCH   1  13
HETATM   13  C   UNK N   1      33.933  10.585  11.581  0.00  0.00     0.074 C 
BRANCH  13  14
HETATM   14  C   UNK N   1      34.292  11.126  12.913  0.00  0.00    -0.055 A 
HETATM   15  C   UNK N   1      33.716  10.589  14.066  0.00  0.00     0.007 A 
HETATM   16  C   UNK N   1      34.021  11.139  15.315  0.00  0.00     0.002 A 
HETATM   17  C   UNK N   1      34.900  12.227  15.406  0.00  0.00     0.015 A 
HETATM   18  C   UNK N   1      35.468  12.771  14.244  0.00  0.00     0.007 A 
HETATM   19  C   UNK N   1      35.142  12.222  13.009  0.00  0.00     0.022 A 
BRANCH  18  20
HETATM   20  C   UNK N   1      36.415  13.901  14.311  0.00  0.00     0.102 C 
HETATM   21  N   UNK N   1      37.202  14.029  15.317  0.00  0.00    -0.385 N 
HETATM   22  H   UNK N   1      37.156  13.416  16.086  0.00  0.00     0.157 HD
ATOM     23  HN  UNK N   1      37.890  14.782  15.320  1.00  0.00     0.157 HD
BRANCH  20  24
HETATM   24  N   UNK N   1      36.438  14.871  13.285  0.00  0.00    -0.385 N 
HETATM   25  H   UNK N   1      36.120  14.689  12.372  0.00  0.00     0.157 HD
HETATM   26  H   UNK N   1      36.787  15.768  13.493  0.00  0.00     0.157 HD
ENDBRANCH  20  24
ENDBRANCH  18  20
ENDBRANCH  13  14
ENDBRANCH   1  13
BRANCH   1  27
HETATM   27  N   UNK N   1      35.161   9.892   9.727  0.00  0.00    -0.301 N 
HETATM   28  H   UNK N   1      34.561   9.343   9.112  0.00  0.00     0.173 HD
BRANCH  27  29
HETATM   29  S   UNK N   1      36.826   9.459  10.101  0.00  0.00     0.259 S 
HETATM   30  O   UNK N   1      37.222  10.880  10.498  0.00  0.00    -0.201 OA
HETATM   31  O   UNK N   1      37.728   9.386   8.852  0.00  0.00    -0.201 OA
BRANCH  29  32
HETATM   32  C   UNK N   1      36.940   8.712  11.707  0.00  0.00     0.080 A 
HETATM   33  C   UNK N   1      36.059   7.660  11.958  0.00  0.00     0.026 A 
HETATM   34  C   UNK N   1      35.715   7.317  13.262  0.00  0.00     0.014 A 
HETATM   35  C   UNK N   1      36.227   8.049  14.327  0.00  0.00    -0.026 A 
HETATM   36  C   UNK N   1      35.822   7.759  15.629  0.00  0.00     0.012 A 
HETATM   37  C   UNK N   1      37.144   9.099  14.087  0.00  0.00    -0.025 A 
HETATM   38  C   UNK N   1      36.328   8.502  16.697  0.00  0.00     0.001 A 
HETATM   39  C   UNK N   1      37.248   9.531  16.465  0.00  0.00     0.001 A 
HETATM   40  C   UNK N   1      37.652   9.834  15.160  0.00  0.00     0.012 A 
HETATM   41  C   UNK N   1      37.485   9.437  12.775  0.00  0.00     0.037 A 
ENDBRANCH  29  32
ENDBRANCH  27  29
ENDBRANCH   1  27
TORSDOF 8
ENDMDL
MODEL 2
REMARK VINA RESULT:      -7.3     18.965     24.231
REMARK  8 active torsions:
REMARK  status: ('A' for Active; 'I' for Inactive)
REMARK       I    between atoms: C_2  and  N_4 
REMARK       I    between atoms: N_7  and  C_10 
REMARK    1  A    between atoms: C_10  and  C_12 
REMARK    2  A    between atoms: C_12  and  C_13 
REMARK    3  A    between atoms: C_12  and  N_24 
REMARK    4  A    between atoms: C_13  and  C_14 
REMARK    5  A    between atoms: C_18  and  C_20 
REMARK    6  A    between atoms: C_20  and  N_21 
REMARK    7  A    between atoms: N_24  and  S_25 
REMARK    8  A    between atoms: S_25  and  C_28 
ROOT
HETATM    1  C   UNK N   1      27.637  25.008  -3.705  0.00  0.00     0.189 C 
ENDROOT
BRANCH   1   2
HETATM    2  C   UNK N   1      28.480  24.006  -2.886  0.00  0.00     0.243 C 
HETATM    3  N   UNK N   1      29.829  23.771  -3.047  0.00  0.00    -0.347 N 
HETATM    4  C   UNK N   1      30.634  24.357  -4.104  0.00  0.00     0.145 C 
HETATM    5  C   UNK N   1      30.514  22.866  -2.146  0.00  0.00     0.145 C 
HETATM    6  C   UNK N   1      31.263  23.222  -4.923  0.00  0.00     0.145 C 
HETATM    7  N   UNK N   1      31.909  22.274  -4.043  0.00  0.00    -0.349 N 
HETATM    8  C   UNK N   1      33.204  21.897  -4.242  0.00  0.00     0.215 C 
HETATM    9  C   UNK N   1      31.137  21.725  -2.942  0.00  0.00     0.145 C 
HETATM   10  C   UNK N   1      33.883  20.926  -3.331  0.00  0.00     0.117 C 
HETATM   11  O   UNK N   1      33.833  22.347  -5.195  0.00  0.00    -0.274 OA
HETATM   12  O   UNK N   1      27.891  23.354  -2.030  0.00  0.00    -0.271 OA
ENDBRANCH   1   2
BRANCH   1  13
HETATM   13  C   UNK N   1      26.477  24.350  -4.462  0.00  0.00     0.074 C 
BRANCH  13  14
HETATM   14  C   UNK N   1      26.790  23.730  -5.771  0.00  0.00    -0.055 A 
HETATM   15  C   UNK N   1      28.028  23.960  -6.376  0.00  0.00     0.007 A 
HETATM   16  C   UNK N   1      28.296  23.413  -7.635  0.00  0.00     0.002 A 
HETATM   17  C   UNK N   1      27.324  22.640  -8.285  0.00  0.00     0.015 A 
HETATM   18  C   UNK N   1      26.078  22.421  -7.678  0.00  0.00     0.007 A 
HETATM   19  C   UNK N   1      25.822  22.985  -6.433  0.00  0.00     0.022 A 
BRANCH  18  20
HETATM   20  C   UNK N   1      25.044  21.592  -8.328  0.00  0.00     0.102 C 
HETATM   21  N   UNK N   1      25.330  20.898  -9.369  0.00  0.00    -0.385 N 
HETATM   22  H   UNK N   1      26.219  20.943  -9.789  0.00  0.00     0.157 HD
ATOM     23  HN  UNK N   1      24.620  20.286  -9.772  1.00  0.00     0.157 HD
BRANCH  20  24
HETATM   24  N   UNK N   1      23.723  21.584  -7.831  0.00  0.00    -0.385 N 
HETATM   25  H   UNK N   1      23.500  21.833  -6.904  0.00  0.00     0.157 HD
HETATM   26  H   UNK N   1      22.993  21.318  -8.435  0.00  0.00     0.157 HD
ENDBRANCH  20  24
ENDBRANCH  18  20
ENDBRANCH  13  14
ENDBRANCH   1  13
BRANCH   1  27
HETATM   27  N   UNK N   1      26.977  25.974  -2.869  0.00  0.00    -0.301 N 
HETATM   28  H   UNK N   1      26.514  25.737  -1.992  0.00  0.00     0.173 HD
BRANCH  27  29
HETATM   29  S   UNK N   1      27.050  27.609  -3.517  0.00  0.00     0.259 S 
HETATM   30  O   UNK N   1      28.566  27.585  -3.704  0.00  0.00    -0.201 OA
HETATM   31  O   UNK N   1      27.044  28.696  -2.422  0.00  0.00    -0.201 OA
BRANCH  29  32
HETATM   32  C   UNK N   1      26.590  27.633  -5.231  0.00  0.00     0.080 A 
HETATM   33  C   UNK N   1      25.306  27.177  -5.527  0.00  0.00     0.026 A 
HETATM   34  C   UNK N   1      24.994  26.704  -6.798  0.00  0.00     0.014 A 
HETATM   35  C   UNK N   1      25.981  26.654  -7.777  0.00  0.00    -0.026 A 
HETATM   36  C   UNK N   1      25.693  26.107  -9.026  0.00  0.00     0.012 A 
HETATM   37  C   UNK N   1      27.279  27.140  -7.498  0.00  0.00    -0.025 A 
HETATM   38  C   UNK N   1      26.686  26.045 -10.005  0.00  0.00     0.001 A 
HETATM   39  C   UNK N   1      27.968  26.541  -9.738  0.00  0.00     0.001 A 
HETATM   40  C   UNK N   1      28.267  27.084  -8.484  0.00  0.00     0.012 A 
HETATM   41  C   UNK N   1      27.583  27.614  -6.219  0.00  0.00     0.037 A 
ENDBRANCH  29  32
ENDBRANCH  27  29
ENDBRANCH   1  27
TORSDOF 8
ENDMDL
MODEL 3
REMARK VINA RESULT:      -7.3      5.926     11.174
REMARK  8 active torsions:
REMARK  status: ('A' for Active; 'I' for Inactive)
REMARK       I    between atoms: C_2  and  N_4 
REMARK       I    between atoms: N_7  and  C_10 
REMARK    1  A    between atoms: C_10  and  C_12 
REMARK    2  A    between atoms: C_12  and  C_13 
REMARK    3  A    between atoms: C_12  and  N_24 
REMARK    4  A    between atoms: C_13  and  C_14 
REMARK    5  A    between atoms: C_18  and  C_20 
REMARK    6  A    between atoms: C_20  and  N_21 
REMARK    7  A    between atoms: N_24  and  S_25 
REMARK    8  A    between atoms: S_25  and  C_28 
ROOT
HETATM    1  C   UNK N   1      31.443  16.062   5.066  0.00  0.00     0.189 C 
ENDROOT
BRANCH   1   2
HETATM    2  C   UNK N   1      32.758  16.550   5.712  0.00  0.00     0.243 C 
HETATM    3  N   UNK N   1      33.366  15.994   6.817  0.00  0.00    -0.347 N 
HETATM    4  C   UNK N   1      32.784  14.928   7.612  0.00  0.00     0.145 C 
HETATM    5  C   UNK N   1      34.649  16.500   7.263  0.00  0.00     0.145 C 
HETATM    6  C   UNK N   1      32.650  15.417   9.060  0.00  0.00     0.145 C 
HETATM    7  N   UNK N   1      33.904  15.976   9.513  0.00  0.00    -0.349 N 
HETATM    8  C   UNK N   1      34.481  15.562  10.678  0.00  0.00     0.215 C 
HETATM    9  C   UNK N   1      34.532  17.001   8.697  0.00  0.00     0.145 C 
HETATM   10  C   UNK N   1      35.782  16.127  11.148  0.00  0.00     0.117 C 
HETATM   11  O   UNK N   1      33.922  14.718  11.371  0.00  0.00    -0.274 OA
HETATM   12  O   UNK N   1      33.297  17.527   5.201  0.00  0.00    -0.271 OA
ENDBRANCH   1   2
BRANCH   1  13
HETATM   13  C   UNK N   1      30.685  17.165   4.319  0.00  0.00     0.074 C 
BRANCH  13  14
HETATM   14  C   UNK N   1      29.549  17.802   5.027  0.00  0.00    -0.055 A 
HETATM   15  C   UNK N   1      28.698  18.674   4.344  0.00  0.00     0.007 A 
HETATM   16  C   UNK N   1      27.660  19.311   5.033  0.00  0.00     0.002 A 
HETATM   17  C   UNK N   1      27.478  19.074   6.401  0.00  0.00     0.015 A 
HETATM   18  C   UNK N   1      28.342  18.206   7.086  0.00  0.00     0.007 A 
HETATM   19  C   UNK N   1      29.379  17.593   6.391  0.00  0.00     0.022 A 
BRANCH  18  20
HETATM   20  C   UNK N   1      28.161  17.919   8.523  0.00  0.00     0.102 C 
HETATM   21  N   UNK N   1      28.742  18.645   9.407  0.00  0.00    -0.385 N 
HETATM   22  H   UNK N   1      29.360  19.368   9.153  0.00  0.00     0.157 HD
ATOM     23  HN  UNK N   1      28.560  18.470  10.396  1.00  0.00     0.157 HD
BRANCH  20  24
HETATM   24  N   UNK N   1      27.376  16.821   8.935  0.00  0.00    -0.385 N 
HETATM   25  H   UNK N   1      26.561  16.922   9.480  0.00  0.00     0.157 HD
HETATM   26  H   UNK N   1      27.654  15.915   8.667  0.00  0.00     0.157 HD
ENDBRANCH  20  24
ENDBRANCH  18  20
ENDBRANCH  13  14
ENDBRANCH   1  13
BRANCH   1  27
HETATM   27  N   UNK N   1      31.671  15.073   4.048  0.00  0.00    -0.301 N 
HETATM   28  H   UNK N   1      32.380  15.167   3.321  0.00  0.00     0.173 HD
BRANCH  27  29
HETATM   29  S   UNK N   1      30.598  13.683   4.183  0.00  0.00     0.259 S 
HETATM   30  O   UNK N   1      30.536  13.743   5.709  0.00  0.00    -0.201 OA
HETATM   31  O   UNK N   1      31.342  12.334   4.108  0.00  0.00    -0.201 OA
BRANCH  29  32
HETATM   32  C   UNK N   1      28.918  14.145   3.849  0.00  0.00     0.080 A 
HETATM   33  C   UNK N   1      28.670  14.687   2.588  0.00  0.00     0.026 A 
HETATM   34  C   UNK N   1      27.563  15.500   2.368  0.00  0.00     0.014 A 
HETATM   35  C   UNK N   1      26.709  15.804   3.423  0.00  0.00    -0.026 A 
HETATM   36  C   UNK N   1      25.644  16.682   3.224  0.00  0.00     0.012 A 
HETATM   37  C   UNK N   1      26.933  15.238   4.699  0.00  0.00    -0.025 A 
HETATM   38  C   UNK N   1      24.795  16.996   4.286  0.00  0.00     0.001 A 
HETATM   39  C   UNK N   1      25.003  16.425   5.547  0.00  0.00     0.001 A 
HETATM   40  C   UNK N   1      26.074  15.550   5.755  0.00  0.00     0.012 A 
HETATM   41  C   UNK N   1      28.047  14.422   4.911  0.00  0.00     0.037 A 
ENDBRANCH  29  32
ENDBRANCH  27  29
ENDBRANCH   1  27
TORSDOF 8
ENDMDL
MODEL 4
REMARK VINA RESULT:      -7.1     19.035     23.154
REMARK  8 active torsions:
REMARK  status: ('A' for Active; 'I' for Inactive)
REMARK       I    between atoms: C_2  and  N_4 
REMARK       I    between atoms: N_7  and  C_10 
REMARK    1  A    between atoms: C_10  and  C_12 
REMARK    2  A    between atoms: C_12  and  C_13 
REMARK    3  A    between atoms: C_12  and  N_24 
REMARK    4  A    between atoms: C_13  and  C_14 
REMARK    5  A    between atoms: C_18  and  C_20 
REMARK    6  A    between atoms: C_20  and  N_21 
REMARK    7  A    between atoms: N_24  and  S_25 
REMARK    8  A    between atoms: S_25  and  C_28 
ROOT
HETATM    1  C   UNK N   1      30.734  24.044  -3.846  0.00  0.00     0.189 C 
ENDROOT
BRANCH   1   2
HETATM    2  C   UNK N   1      31.601  22.844  -3.404  0.00  0.00     0.243 C 
HETATM    3  N   UNK N   1      32.525  22.188  -4.189  0.00  0.00    -0.347 N 
HETATM    4  C   UNK N   1      32.733  22.464  -5.599  0.00  0.00     0.145 C 
HETATM    5  C   UNK N   1      33.335  21.132  -3.615  0.00  0.00     0.145 C 
HETATM    6  C   UNK N   1      32.494  21.170  -6.388  0.00  0.00     0.145 C 
HETATM    7  N   UNK N   1      33.252  20.085  -5.803  0.00  0.00    -0.349 N 
HETATM    8  C   UNK N   1      34.076  19.311  -6.565  0.00  0.00     0.215 C 
HETATM    9  C   UNK N   1      33.102  19.835  -4.381  0.00  0.00     0.145 C 
HETATM   10  C   UNK N   1      34.870  18.194  -5.967  0.00  0.00     0.117 C 
HETATM   11  O   UNK N   1      34.167  19.516  -7.771  0.00  0.00    -0.274 OA
HETATM   12  O   UNK N   1      31.436  22.433  -2.260  0.00  0.00    -0.271 OA
ENDBRANCH   1   2
BRANCH   1  13
HETATM   13  C   UNK N   1      29.349  24.069  -3.189  0.00  0.00     0.074 C 
BRANCH  13  14
HETATM   14  C   UNK N   1      28.175  23.926  -4.083  0.00  0.00    -0.055 A 
HETATM   15  C   UNK N   1      26.895  24.221  -3.611  0.00  0.00     0.007 A 
HETATM   16  C   UNK N   1      25.788  24.034  -4.445  0.00  0.00     0.002 A 
HETATM   17  C   UNK N   1      25.966  23.550  -5.748  0.00  0.00     0.015 A 
HETATM   18  C   UNK N   1      27.253  23.244  -6.215  0.00  0.00     0.007 A 
HETATM   19  C   UNK N   1      28.342  23.421  -5.368  0.00  0.00     0.022 A 
BRANCH  18  20
HETATM   20  C   UNK N   1      27.474  22.756  -7.590  0.00  0.00     0.102 C 
HETATM   21  N   UNK N   1      26.951  23.371  -8.588  0.00  0.00    -0.385 N 
HETATM   22  H   UNK N   1      26.351  24.141  -8.460  0.00  0.00     0.157 HD
ATOM     23  HN  UNK N   1      27.161  23.054  -9.535  1.00  0.00     0.157 HD
BRANCH  20  24
HETATM   24  N   UNK N   1      28.233  21.587  -7.816  0.00  0.00    -0.385 N 
HETATM   25  H   UNK N   1      29.089  21.411  -7.363  0.00  0.00     0.157 HD
HETATM   26  H   UNK N   1      27.891  20.919  -8.454  0.00  0.00     0.157 HD
ENDBRANCH  20  24
ENDBRANCH  18  20
ENDBRANCH  13  14
ENDBRANCH   1  13
BRANCH   1  27
HETATM   27  N   UNK N   1      31.307  25.303  -3.452  0.00  0.00    -0.301 N 
HETATM   28  H   UNK N   1      31.667  25.489  -2.517  0.00  0.00     0.173 HD
BRANCH  27  29
HETATM   29  S   UNK N   1      31.321  26.490  -4.752  0.00  0.00     0.259 S 
HETATM   30  O   UNK N   1      31.174  25.444  -5.856  0.00  0.00    -0.201 OA
HETATM   31  O   UNK N   1      32.743  26.938  -5.148  0.00  0.00    -0.201 OA
BRANCH  29  32
HETATM   32  C   UNK N   1      29.731  27.258  -4.926  0.00  0.00     0.080 A 
HETATM   33  C   UNK N   1      29.149  27.735  -3.751  0.00  0.00     0.026 A 
HETATM   34  C   UNK N   1      27.772  27.913  -3.660  0.00  0.00     0.014 A 
HETATM   35  C   UNK N   1      26.961  27.580  -4.739  0.00  0.00    -0.026 A 
HETATM   36  C   UNK N   1      25.575  27.682  -4.624  0.00  0.00     0.012 A 
HETATM   37  C   UNK N   1      27.540  27.123  -5.945  0.00  0.00    -0.025 A 
HETATM   38  C   UNK N   1      24.760  27.337  -5.703  0.00  0.00     0.001 A 
HETATM   39  C   UNK N   1      25.331  26.900  -6.904  0.00  0.00     0.001 A 
HETATM   40  C   UNK N   1      26.720  26.788  -7.025  0.00  0.00     0.012 A 
HETATM   41  C   UNK N   1      28.924  26.949  -6.028  0.00  0.00     0.037 A 
ENDBRANCH  29  32
ENDBRANCH  27  29
ENDBRANCH   1  27
TORSDOF 8
ENDMDL
MODEL 5
REMARK VINA RESULT:      -7.0      4.290     10.203
REMARK  8 active torsions:
REMARK  status: ('A' for Active; 'I' for Inactive)
REMARK       I    between atoms: C_2  and  N_4 
REMARK       I    between atoms: N_7  and  C_10 
REMARK    1  A    between atoms: C_10  and  C_12 
REMARK    2  A    between atoms: C_12  and  C_13 
REMARK    3  A    between atoms: C_12  and  N_24 
REMARK    4  A    between atoms: C_13  and  C_14 
REMARK    5  A    between atoms: C_18  and  C_20 
REMARK    6  A    between atoms: C_20  and  N_21 
REMARK    7  A    between atoms: N_24  and  S_25 
REMARK    8  A    between atoms: S_25  and  C_28 
ROOT
HETATM    1  C   UNK N   1      33.899  16.553   8.208  0.00  0.00     0.189 C 
ENDROOT
BRANCH   1   2
HETATM    2  C   UNK N   1      34.895  16.483   9.386  0.00  0.00     0.243 C 
HETATM    3  N   UNK N   1      35.459  15.332   9.894  0.00  0.00    -0.347 N 
HETATM    4  C   UNK N   1      35.100  13.994   9.462  0.00  0.00     0.145 C 
HETATM    5  C   UNK N   1      36.451  15.422  10.947  0.00  0.00     0.145 C 
HETATM    6  C   UNK N   1      34.603  13.205  10.681  0.00  0.00     0.145 C 
HETATM    7  N   UNK N   1      35.552  13.322  11.767  0.00  0.00    -0.349 N 
HETATM    8  C   UNK N   1      36.035  12.216  12.402  0.00  0.00     0.215 C 
HETATM    9  C   UNK N   1      35.970  14.653  12.172  0.00  0.00     0.145 C 
HETATM   10  C   UNK N   1      37.023  12.327  13.518  0.00  0.00     0.117 C 
HETATM   11  O   UNK N   1      35.648  11.101  12.069  0.00  0.00    -0.274 OA
HETATM   12  O   UNK N   1      35.195  17.545   9.922  0.00  0.00    -0.271 OA
ENDBRANCH   1   2
BRANCH   1  13
HETATM   13  C   UNK N   1      32.730  17.514   8.455  0.00  0.00     0.074 C 
BRANCH  13  14
HETATM   14  C   UNK N   1      31.426  17.162   7.844  0.00  0.00    -0.055 A 
HETATM   15  C   UNK N   1      31.255  15.922   7.224  0.00  0.00     0.007 A 
HETATM   16  C   UNK N   1      30.038  15.619   6.605  0.00  0.00     0.002 A 
HETATM   17  C   UNK N   1      28.998  16.557   6.606  0.00  0.00     0.015 A 
HETATM   18  C   UNK N   1      29.178  17.807   7.220  0.00  0.00     0.007 A 
HETATM   19  C   UNK N   1      30.399  18.098   7.817  0.00  0.00     0.022 A 
BRANCH  18  20
HETATM   20  C   UNK N   1      28.093  18.806   7.257  0.00  0.00     0.102 C 
HETATM   21  N   UNK N   1      27.748  19.429   6.189  0.00  0.00    -0.385 N 
HETATM   22  H   UNK N   1      28.229  19.298   5.340  0.00  0.00     0.157 HD
ATOM     23  HN  UNK N   1      26.958  20.074   6.219  1.00  0.00     0.157 HD
BRANCH  20  24
HETATM   24  N   UNK N   1      27.449  19.112   8.476  0.00  0.00    -0.385 N 
HETATM   25  H   UNK N   1      26.486  19.307   8.536  0.00  0.00     0.157 HD
HETATM   26  H   UNK N   1      27.986  19.132   9.301  0.00  0.00     0.157 HD
ENDBRANCH  20  24
ENDBRANCH  18  20
ENDBRANCH  13  14
ENDBRANCH   1  13
BRANCH   1  27
HETATM   27  N   UNK N   1      34.505  17.075   7.013  0.00  0.00    -0.301 N 
HETATM   28  H   UNK N   1      34.773  18.052   6.898  0.00  0.00     0.173 HD
BRANCH  27  29
HETATM   29  S   UNK N   1      34.735  15.853   5.767  0.00  0.00     0.259 S 
HETATM   30  O   UNK N   1      34.050  14.748   6.570  0.00  0.00    -0.201 OA
HETATM   31  O   UNK N   1      36.141  15.219   5.793  0.00  0.00    -0.201 OA
BRANCH  29  32
HETATM   32  C   UNK N   1      33.519  16.018   4.485  0.00  0.00     0.080 A 
HETATM   33  C   UNK N   1      32.955  17.285   4.335  0.00  0.00     0.026 A 
HETATM   34  C   UNK N   1      31.709  17.442   3.735  0.00  0.00     0.014 A 
HETATM   35  C   UNK N   1      31.002  16.323   3.308  0.00  0.00    -0.026 A 
HETATM   36  C   UNK N   1      29.721  16.470   2.779  0.00  0.00     0.012 A 
HETATM   37  C   UNK N   1      31.576  15.036   3.428  0.00  0.00    -0.025 A 
HETATM   38  C   UNK N   1      29.007  15.346   2.362  0.00  0.00     0.001 A 
HETATM   39  C   UNK N   1      29.578  14.072   2.464  0.00  0.00     0.001 A 
HETATM   40  C   UNK N   1      30.859  13.915   3.002  0.00  0.00     0.012 A 
HETATM   41  C   UNK N   1      32.827  14.887   4.032  0.00  0.00     0.037 A 
ENDBRANCH  29  32
ENDBRANCH  27  29
ENDBRANCH   1  27
TORSDOF 8
ENDMDL
MODEL 6
REMARK VINA RESULT:      -7.0      3.207      8.816
REMARK  8 active torsions:
REMARK  status: ('A' for Active; 'I' for Inactive)
REMARK       I    between atoms: C_2  and  N_4 
REMARK       I    between atoms: N_7  and  C_10 
REMARK    1  A    between atoms: C_10  and  C_12 
REMARK    2  A    between atoms: C_12  and  C_13 
REMARK    3  A    between atoms: C_12  and  N_24 
REMARK    4  A    between atoms: C_13  and  C_14 
REMARK    5  A    between atoms: C_18  and  C_20 
REMARK    6  A    between atoms: C_20  and  N_21 
REMARK    7  A    between atoms: N_24  and  S_25 
REMARK    8  A    between atoms: S_25  and  C_28 
ROOT
HETATM    1  C   UNK N   1      35.186  13.170   7.287  0.00  0.00     0.189 C 
ENDROOT
BRANCH   1   2
HETATM    2  C   UNK N   1      36.223  12.708   8.334  0.00  0.00     0.243 C 
HETATM    3  N   UNK N   1      35.965  12.458   9.665  0.00  0.00    -0.347 N 
HETATM    4  C   UNK N   1      34.686  12.711  10.304  0.00  0.00     0.145 C 
HETATM    5  C   UNK N   1      37.017  11.942  10.517  0.00  0.00     0.145 C 
HETATM    6  C   UNK N   1      34.907  13.687  11.467  0.00  0.00     0.145 C 
HETATM    7  N   UNK N   1      35.990  13.222  12.306  0.00  0.00    -0.349 N 
HETATM    8  C   UNK N   1      35.831  13.092  13.654  0.00  0.00     0.215 C 
HETATM    9  C   UNK N   1      37.258  12.905  11.674  0.00  0.00     0.145 C 
HETATM   10  C   UNK N   1      36.941  12.603  14.526  0.00  0.00     0.117 C 
HETATM   11  O   UNK N   1      34.762  13.394  14.176  0.00  0.00    -0.274 OA
HETATM   12  O   UNK N   1      37.378  12.568   7.946  0.00  0.00    -0.271 OA
ENDBRANCH   1   2
BRANCH   1  13
HETATM   13  C   UNK N   1      35.465  14.571   6.731  0.00  0.00     0.074 C 
BRANCH  13  14
HETATM   14  C   UNK N   1      34.464  15.625   7.023  0.00  0.00    -0.055 A 
HETATM   15  C   UNK N   1      34.522  16.850   6.355  0.00  0.00     0.007 A 
HETATM   16  C   UNK N   1      33.604  17.857   6.673  0.00  0.00     0.002 A 
HETATM   17  C   UNK N   1      32.634  17.635   7.659  0.00  0.00     0.015 A 
HETATM   18  C   UNK N   1      32.586  16.406   8.335  0.00  0.00     0.007 A 
HETATM   19  C   UNK N   1      33.516  15.421   8.018  0.00  0.00     0.022 A 
BRANCH  18  20
HETATM   20  C   UNK N   1      31.561  16.135   9.362  0.00  0.00     0.102 C 
HETATM   21  N   UNK N   1      30.508  16.865   9.435  0.00  0.00    -0.385 N 
HETATM   22  H   UNK N   1      30.385  17.649   8.852  0.00  0.00     0.157 HD
ATOM     23  HN  UNK N   1      29.782  16.629  10.112  1.00  0.00     0.157 HD
BRANCH  20  24
HETATM   24  N   UNK N   1      31.747  15.092  10.295  0.00  0.00    -0.385 N 
HETATM   25  H   UNK N   1      32.285  15.199  11.113  0.00  0.00     0.157 HD
HETATM   26  H   UNK N   1      31.321  14.222  10.121  0.00  0.00     0.157 HD
ENDBRANCH  20  24
ENDBRANCH  18  20
ENDBRANCH  13  14
ENDBRANCH   1  13
BRANCH   1  27
HETATM   27  N   UNK N   1      35.196  12.343   6.111  0.00  0.00    -0.301 N 
HETATM   28  H   UNK N   1      36.043  12.107   5.595  0.00  0.00     0.173 HD
BRANCH  27  29
HETATM   29  S   UNK N   1      33.592  11.780   5.651  0.00  0.00     0.259 S 
HETATM   30  O   UNK N   1      33.013  11.943   7.055  0.00  0.00    -0.201 OA
HETATM   31  O   UNK N   1      33.478  10.243   5.610  0.00  0.00    -0.201 OA
BRANCH  29  32
HETATM   32  C   UNK N   1      32.672  13.072   4.854  0.00  0.00     0.080 A 
HETATM   33  C   UNK N   1      33.348  13.782   3.861  0.00  0.00     0.026 A 
HETATM   34  C   UNK N   1      32.945  15.066   3.507  0.00  0.00     0.014 A 
HETATM   35  C   UNK N   1      31.879  15.663   4.171  0.00  0.00    -0.026 A 
HETATM   36  C   UNK N   1      31.525  16.979   3.874  0.00  0.00     0.012 A 
HETATM   37  C   UNK N   1      31.169  14.943   5.159  0.00  0.00    -0.025 A 
HETATM   38  C   UNK N   1      30.462  17.582   4.549  0.00  0.00     0.001 A 
HETATM   39  C   UNK N   1      29.746  16.867   5.515  0.00  0.00     0.001 A 
HETATM   40  C   UNK N   1      30.101  15.550   5.824  0.00  0.00     0.012 A 
HETATM   41  C   UNK N   1      31.579  13.654   5.507  0.00  0.00     0.037 A 
ENDBRANCH  29  32
ENDBRANCH  27  29
ENDBRANCH   1  27
TORSDOF 8
ENDMDL
MODEL 7
REMARK VINA RESULT:      -6.9     18.704     22.683
REMARK  8 active torsions:
REMARK  status: ('A' for Active; 'I' for Inactive)
REMARK       I    between atoms: C_2  and  N_4 
REMARK       I    between atoms: N_7  and  C_10 
REMARK    1  A    between atoms: C_10  and  C_12 
REMARK    2  A    between atoms: C_12  and  C_13 
REMARK    3  A    between atoms: C_12  and  N_24 
REMARK    4  A    between atoms: C_13  and  C_14 
REMARK    5  A    between atoms: C_18  and  C_20 
REMARK    6  A    between atoms: C_20  and  N_21 
REMARK    7  A    between atoms: N_24  and  S_25 
REMARK    8  A    between atoms: S_25  and  C_28 
ROOT
HETATM    1  C   UNK N   1      30.808  21.682  -4.921  0.00  0.00     0.189 C 
ENDROOT
BRANCH   1   2
HETATM    2  C   UNK N   1      31.938  20.687  -4.578  0.00  0.00     0.243 C 
HETATM    3  N   UNK N   1      33.275  20.998  -4.456  0.00  0.00    -0.347 N 
HETATM    4  C   UNK N   1      33.833  22.306  -4.752  0.00  0.00     0.145 C 
HETATM    5  C   UNK N   1      34.217  19.978  -4.041  0.00  0.00     0.145 C 
HETATM    6  C   UNK N   1      34.902  22.144  -5.841  0.00  0.00     0.145 C 
HETATM    7  N   UNK N   1      35.827  21.093  -5.475  0.00  0.00    -0.349 N 
HETATM    8  C   UNK N   1      37.174  21.308  -5.476  0.00  0.00     0.215 C 
HETATM    9  C   UNK N   1      35.282  19.796  -5.116  0.00  0.00     0.145 C 
HETATM   10  C   UNK N   1      38.135  20.231  -5.090  0.00  0.00     0.117 C 
HETATM   11  O   UNK N   1      37.619  22.401  -5.812  0.00  0.00    -0.274 OA
HETATM   12  O   UNK N   1      31.614  19.514  -4.417  0.00  0.00    -0.271 OA
ENDBRANCH   1   2
BRANCH   1  13
HETATM   13  C   UNK N   1      30.000  21.283  -6.160  0.00  0.00     0.074 C 
BRANCH  13  14
HETATM   14  C   UNK N   1      29.229  22.353  -6.837  0.00  0.00    -0.055 A 
HETATM   15  C   UNK N   1      29.879  23.499  -7.300  0.00  0.00     0.007 A 
HETATM   16  C   UNK N   1      29.136  24.526  -7.891  0.00  0.00     0.002 A 
HETATM   17  C   UNK N   1      27.746  24.404  -8.015  0.00  0.00     0.015 A 
HETATM   18  C   UNK N   1      27.095  23.256  -7.539  0.00  0.00     0.007 A 
HETATM   19  C   UNK N   1      27.846  22.250  -6.940  0.00  0.00     0.022 A 
BRANCH  18  20
HETATM   20  C   UNK N   1      25.636  23.089  -7.677  0.00  0.00     0.102 C 
HETATM   21  N   UNK N   1      24.981  23.792  -8.528  0.00  0.00    -0.385 N 
HETATM   22  H   UNK N   1      25.420  24.492  -9.064  0.00  0.00     0.157 HD
ATOM     23  HN  UNK N   1      23.982  23.624  -8.652  1.00  0.00     0.157 HD
BRANCH  20  24
HETATM   24  N   UNK N   1      24.942  22.179  -6.850  0.00  0.00    -0.385 N 
HETATM   25  H   UNK N   1      25.217  21.984  -5.924  0.00  0.00     0.157 HD
HETATM   26  H   UNK N   1      24.150  21.721  -7.212  0.00  0.00     0.157 HD
ENDBRANCH  20  24
ENDBRANCH  18  20
ENDBRANCH  13  14
ENDBRANCH   1  13
BRANCH   1  27
HETATM   27  N   UNK N   1      29.812  21.751  -3.887  0.00  0.00    -0.301 N 
HETATM   28  H   UNK N   1      29.119  21.020  -3.723  0.00  0.00     0.173 HD
BRANCH  27  29
HETATM   29  S   UNK N   1      29.907  23.227  -2.933  0.00  0.00     0.259 S 
HETATM   30  O   UNK N   1      30.952  23.875  -3.841  0.00  0.00    -0.201 OA
HETATM   31  O   UNK N   1      30.827  23.095  -1.703  0.00  0.00    -0.201 OA
BRANCH  29  32
HETATM   32  C   UNK N   1      28.552  24.310  -3.305  0.00  0.00     0.080 A 
HETATM   33  C   UNK N   1      27.280  23.737  -3.264  0.00  0.00     0.026 A 
HETATM   34  C   UNK N   1      26.222  24.304  -3.966  0.00  0.00     0.014 A 
HETATM   35  C   UNK N   1      26.437  25.436  -4.746  0.00  0.00    -0.026 A 
HETATM   36  C   UNK N   1      25.398  25.959  -5.514  0.00  0.00     0.012 A 
HETATM   37  C   UNK N   1      27.714  26.042  -4.773  0.00  0.00    -0.025 A 
HETATM   38  C   UNK N   1      25.618  27.087  -6.305  0.00  0.00     0.001 A 
HETATM   39  C   UNK N   1      26.876  27.700  -6.322  0.00  0.00     0.001 A 
HETATM   40  C   UNK N   1      27.926  27.176  -5.561  0.00  0.00     0.012 A 
HETATM   41  C   UNK N   1      28.772  25.467  -4.064  0.00  0.00     0.037 A 
ENDBRANCH  29  32
ENDBRANCH  27  29
ENDBRANCH   1  27
TORSDOF 8
ENDMDL
MODEL 8
REMARK VINA RESULT:      -6.7      3.352      9.651
REMARK  8 active torsions:
REMARK  status: ('A' for Active; 'I' for Inactive)
REMARK       I    between atoms: C_2  and  N_4 
REMARK       I    between atoms: N_7  and  C_10 
REMARK    1  A    between atoms: C_10  and  C_12 
REMARK    2  A    between atoms: C_12  and  C_13 
REMARK    3  A    between atoms: C_12  and  N_24 
REMARK    4  A    between atoms: C_13  and  C_14 
REMARK    5  A    between atoms: C_18  and  C_20 
REMARK    6  A    between atoms: C_20  and  N_21 
REMARK    7  A    between atoms: N_24  and  S_25 
REMARK    8  A    between atoms: S_25  and  C_28 
ROOT
HETATM    1  C   UNK N   1      34.701  14.165   8.914  0.00  0.00     0.189 C 
ENDROOT
BRANCH   1   2
HETATM    2  C   UNK N   1      35.480  12.981   9.527  0.00  0.00     0.243 C 
HETATM    3  N   UNK N   1      35.525  12.654  10.865  0.00  0.00    -0.347 N 
HETATM    4  C   UNK N   1      34.930  13.460  11.916  0.00  0.00     0.145 C 
HETATM    5  C   UNK N   1      36.225  11.459  11.291  0.00  0.00     0.145 C 
HETATM    6  C   UNK N   1      36.031  13.857  12.908  0.00  0.00     0.145 C 
HETATM    7  N   UNK N   1      36.782  12.687  13.310  0.00  0.00    -0.349 N 
HETATM    8  C   UNK N   1      36.978  12.394  14.628  0.00  0.00     0.215 C 
HETATM    9  C   UNK N   1      37.331  11.835  12.270  0.00  0.00     0.145 C 
HETATM   10  C   UNK N   1      37.743  11.182  15.051  0.00  0.00     0.117 C 
HETATM   11  O   UNK N   1      36.533  13.141  15.493  0.00  0.00    -0.274 OA
HETATM   12  O   UNK N   1      36.127  12.283   8.752  0.00  0.00    -0.271 OA
ENDBRANCH   1   2
BRANCH   1  13
HETATM   13  C   UNK N   1      33.380  13.750   8.256  0.00  0.00     0.074 C 
BRANCH  13  14
HETATM   14  C   UNK N   1      33.327  13.773   6.775  0.00  0.00    -0.055 A 
HETATM   15  C   UNK N   1      34.483  14.038   6.037  0.00  0.00     0.007 A 
HETATM   16  C   UNK N   1      34.413  14.109   4.641  0.00  0.00     0.002 A 
HETATM   17  C   UNK N   1      33.188  13.916   3.990  0.00  0.00     0.015 A 
HETATM   18  C   UNK N   1      32.027  13.661   4.736  0.00  0.00     0.007 A 
HETATM   19  C   UNK N   1      32.110  13.609   6.123  0.00  0.00     0.022 A 
BRANCH  18  20
HETATM   20  C   UNK N   1      30.727  13.431   4.077  0.00  0.00     0.102 C 
HETATM   21  N   UNK N   1      30.637  13.453   2.797  0.00  0.00    -0.385 N 
HETATM   22  H   UNK N   1      31.411  13.676   2.230  0.00  0.00     0.157 HD
ATOM     23  HN  UNK N   1      29.743  13.234   2.355  1.00  0.00     0.157 HD
BRANCH  20  24
HETATM   24  N   UNK N   1      29.565  13.220   4.850  0.00  0.00    -0.385 N 
HETATM   25  H   UNK N   1      28.875  13.912   4.975  0.00  0.00     0.157 HD
HETATM   26  H   UNK N   1      29.438  12.344   5.282  0.00  0.00     0.157 HD
ENDBRANCH  20  24
ENDBRANCH  18  20
ENDBRANCH  13  14
ENDBRANCH   1  13
BRANCH   1  27
HETATM   27  N   UNK N   1      34.287  15.117   9.908  0.00  0.00    -0.301 N 
HETATM   28  H   UNK N   1      33.868  14.854  10.800  0.00  0.00     0.173 HD
BRANCH  27  29
HETATM   29  S   UNK N   1      34.578  16.786   9.429  0.00  0.00     0.259 S 
HETATM   30  O   UNK N   1      35.694  16.424   8.449  0.00  0.00    -0.201 OA
HETATM   31  O   UNK N   1      35.479  17.552  10.418  0.00  0.00    -0.201 OA
BRANCH  29  32
HETATM   32  C   UNK N   1      33.373  17.323   8.242  0.00  0.00     0.080 A 
HETATM   33  C   UNK N   1      32.039  17.086   8.574  0.00  0.00     0.026 A 
HETATM   34  C   UNK N   1      31.063  17.013   7.585  0.00  0.00     0.014 A 
HETATM   35  C   UNK N   1      31.423  17.145   6.248  0.00  0.00    -0.026 A 
HETATM   36  C   UNK N   1      30.460  16.993   5.251  0.00  0.00     0.012 A 
HETATM   37  C   UNK N   1      32.767  17.414   5.901  0.00  0.00    -0.025 A 
HETATM   38  C   UNK N   1      30.824  17.113   3.909  0.00  0.00     0.001 A 
HETATM   39  C   UNK N   1      32.150  17.397   3.563  0.00  0.00     0.001 A 
HETATM   40  C   UNK N   1      33.123  17.542   4.557  0.00  0.00     0.012 A 
HETATM   41  C   UNK N   1      33.741  17.487   6.901  0.00  0.00     0.037 A 
ENDBRANCH  29  32
ENDBRANCH  27  29
ENDBRANCH   1  27
TORSDOF 8
ENDMDL
MODEL 9
REMARK VINA RESULT:      -6.7      2.550      4.672
REMARK  8 active torsions:
REMARK  status: ('A' for Active; 'I' for Inactive)
REMARK       I    between atoms: C_2  and  N_4 
REMARK       I    between atoms: N_7  and  C_10 
REMARK    1  A    between atoms: C_10  and  C_12 
REMARK    2  A    between atoms: C_12  and  C_13 
REMARK    3  A    between atoms: C_12  and  N_24 
REMARK    4  A    between atoms: C_13  and  C_14 
REMARK    5  A    between atoms: C_18  and  C_20 
REMARK    6  A    between atoms: C_20  and  N_21 
REMARK    7  A    between atoms: N_24  and  S_25 
REMARK    8  A    between atoms: S_25  and  C_28 
ROOT
HETATM    1  C   UNK N   1      36.221  13.882  11.654  0.00  0.00     0.189 C 
ENDROOT
BRANCH   1   2
HETATM    2  C   UNK N   1      35.973  15.190  10.871  0.00  0.00     0.243 C 
HETATM    3  N   UNK N   1      34.818  15.513  10.191  0.00  0.00    -0.347 N 
HETATM    4  C   UNK N   1      33.699  14.605  10.016  0.00  0.00     0.145 C 
HETATM    5  C   UNK N   1      34.689  16.818   9.573  0.00  0.00     0.145 C 
HETATM    6  C   UNK N   1      33.452  14.420   8.513  0.00  0.00     0.145 C 
HETATM    7  N   UNK N   1      33.371  15.709   7.862  0.00  0.00    -0.349 N 
HETATM    8  C   UNK N   1      32.315  16.029   7.060  0.00  0.00     0.215 C 
HETATM    9  C   UNK N   1      34.453  16.654   8.076  0.00  0.00     0.145 C 
HETATM   10  C   UNK N   1      32.219  17.362   6.392  0.00  0.00     0.117 C 
HETATM   11  O   UNK N   1      31.424  15.208   6.865  0.00  0.00    -0.274 OA
HETATM   12  O   UNK N   1      36.893  16.001  10.841  0.00  0.00    -0.271 OA
ENDBRANCH   1   2
BRANCH   1  13
HETATM   13  C   UNK N   1      37.170  12.914  10.938  0.00  0.00     0.074 C 
BRANCH  13  14
HETATM   14  C   UNK N   1      36.583  11.657  10.415  0.00  0.00    -0.055 A 
HETATM   15  C   UNK N   1      37.411  10.666   9.882  0.00  0.00     0.007 A 
HETATM   16  C   UNK N   1      36.845   9.506   9.344  0.00  0.00     0.002 A 
HETATM   17  C   UNK N   1      35.454   9.342   9.339  0.00  0.00     0.015 A 
HETATM   18  C   UNK N   1      34.625  10.344   9.865  0.00  0.00     0.007 A 
HETATM   19  C   UNK N   1      35.202  11.499  10.382  0.00  0.00     0.022 A 
BRANCH  18  20
HETATM   20  C   UNK N   1      33.157  10.189   9.895  0.00  0.00     0.102 C 
HETATM   21  N   UNK N   1      32.395  11.180   9.605  0.00  0.00    -0.385 N 
HETATM   22  H   UNK N   1      32.763  12.072   9.411  0.00  0.00     0.157 HD
ATOM     23  HN  UNK N   1      31.385  11.040   9.574  1.00  0.00     0.157 HD
BRANCH  20  24
HETATM   24  N   UNK N   1      32.580   8.959  10.279  0.00  0.00    -0.385 N 
HETATM   25  H   UNK N   1      32.990   8.089  10.069  0.00  0.00     0.157 HD
HETATM   26  H   UNK N   1      31.731   8.972  10.778  0.00  0.00     0.157 HD
ENDBRANCH  20  24
ENDBRANCH  18  20
ENDBRANCH  13  14
ENDBRANCH   1  13
BRANCH   1  27
HETATM   27  N   UNK N   1      36.879  14.117  12.910  0.00  0.00    -0.301 N 
HETATM   28  H   UNK N   1      37.697  14.717  13.014  0.00  0.00     0.173 HD
BRANCH  27  29
HETATM   29  S   UNK N   1      36.128  13.261  14.253  0.00  0.00     0.259 S 
HETATM   30  O   UNK N   1      34.761  13.174  13.575  0.00  0.00    -0.201 OA
HETATM   31  O   UNK N   1      35.679  14.197  15.393  0.00  0.00    -0.201 OA
BRANCH  29  32
HETATM   32  C   UNK N   1      36.535  11.534  14.211  0.00  0.00     0.080 A 
HETATM   33  C   UNK N   1      37.889  11.228  14.066  0.00  0.00     0.026 A 
HETATM   34  C   UNK N   1      38.288   9.996  13.555  0.00  0.00     0.014 A 
HETATM   35  C   UNK N   1      37.330   9.072  13.154  0.00  0.00    -0.026 A 
HETATM   36  C   UNK N   1      37.726   7.870  12.569  0.00  0.00     0.012 A 
HETATM   37  C   UNK N   1      35.955   9.359  13.322  0.00  0.00    -0.025 A 
HETATM   38  C   UNK N   1      36.764   6.947  12.155  0.00  0.00     0.001 A 
HETATM   39  C   UNK N   1      35.403   7.221  12.335  0.00  0.00     0.001 A 
HETATM   40  C   UNK N   1      34.998   8.428  12.914  0.00  0.00     0.012 A 
HETATM   41  C   UNK N   1      35.563  10.598  13.836  0.00  0.00     0.037 A 
ENDBRANCH  29  32
ENDBRANCH  27  29
ENDBRANCH   1  27
TORSDOF 8
ENDMDL
