MODEL 1
REMARK VINA RESULT:      -4.6      0.000      0.000
REMARK  5 active torsions:
REMARK  status: ('A' for Active; 'I' for Inactive)
REMARK       I    between atoms: N_1  and  C_2 
REMARK       I    between atoms: C_2  and  N_3 
REMARK    1  A    between atoms: N_3  and  O_4 
REMARK    2  A    between atoms: N_5  and  C_7 
REMARK    3  A    between atoms: C_7  and  C_8 
REMARK    4  A    between atoms: C_8  and  C_9 
REMARK    5  A    between atoms: C_9  and  N_10 
ROOT
HETATM    1  N   UNK N   1      20.950  20.949   2.750  0.00  0.00    -0.233 N 
HETATM    2  C   UNK N   1      20.505  20.456   1.498  0.00  0.00     0.691 C 
HETATM    3  N   UNK N   1      20.290  21.370   0.441  0.00  0.00    -0.099 N 
HETATM    4  N   UNK N   1      20.288  19.195   1.294  0.00  0.00    -0.225 N 
ATOM      5  HN  UNK N   1      19.968  18.948   0.357  1.00  0.00     0.177 HD
HETATM    6  H   UNK N   1      21.103  20.327   3.498  0.00  0.00     0.174 HD
HETATM    7  H   UNK N   1      21.105  21.913   2.872  0.00  0.00     0.174 HD
HETATM    8  H   UNK N   1      19.981  21.041  -0.433  0.00  0.00     0.213 HD
ENDROOT
BRANCH   4   9
HETATM    9  C   UNK N   1      20.438  18.079   2.225  0.00  0.00     0.139 C 
BRANCH   9  10
HETATM   10  C   UNK N   1      20.062  16.706   1.684  0.00  0.00     0.047 C 
BRANCH  10  11
HETATM   11  C   UNK N   1      19.798  16.760   0.198  0.00  0.00     0.231 C 
BRANCH  11  12
HETATM   12  N   UNK N   1      18.380  16.555  -0.033  0.00  0.00    -0.079 N 
HETATM   13  H   UNK N   1      17.724  16.601   0.747  0.00  0.00     0.274 HD
HETATM   14  H   UNK N   1      18.039  16.366  -0.976  0.00  0.00     0.274 HD
HETATM   15  H   UNK N   1      17.383  16.412  -0.195  0.00  0.00     0.274 HD
ENDBRANCH  11  12
ENDBRANCH  10  11
ENDBRANCH   9  10
ENDBRANCH   4   9
BRANCH   3  16
HETATM   16  O   UNK N   1      20.503  22.680   0.621  0.00  0.00    -0.276 OA
HETATM   17  H   UNK N   1      21.197  23.132   0.117  0.00  0.00     0.245 HD
ENDBRANCH   3  16
TORSDOF 5
ENDMDL
MODEL 2
REMARK VINA RESULT:      -4.2     11.931     12.641
REMARK  5 active torsions:
REMARK  status: ('A' for Active; 'I' for Inactive)
REMARK       I    between atoms: N_1  and  C_2 
REMARK       I    between atoms: C_2  and  N_3 
REMARK    1  A    between atoms: N_3  and  O_4 
REMARK    2  A    between atoms: N_5  and  C_7 
REMARK    3  A    between atoms: C_7  and  C_8 
REMARK    4  A    between atoms: C_8  and  C_9 
REMARK    5  A    between atoms: C_9  and  N_10 
ROOT
HETATM    1  N   UNK N   1      24.667  12.374  11.497  0.00  0.00    -0.233 N 
HETATM    2  C   UNK N   1      23.368  11.873  11.762  0.00  0.00     0.691 C 
HETATM    3  N   UNK N   1      22.968  11.687  13.105  0.00  0.00    -0.099 N 
HETATM    4  N   UNK N   1      22.538  11.578  10.811  0.00  0.00    -0.225 N 
ATOM      5  HN  UNK N   1      21.630  11.223  11.113  1.00  0.00     0.177 HD
HETATM    6  H   UNK N   1      24.963  12.507  10.567  0.00  0.00     0.174 HD
HETATM    7  H   UNK N   1      25.273  12.587  12.243  0.00  0.00     0.174 HD
HETATM    8  H   UNK N   1      22.069  11.340  13.303  0.00  0.00     0.213 HD
ENDROOT
BRANCH   4   9
HETATM    9  C   UNK N   1      22.727  11.683   9.367  0.00  0.00     0.139 C 
BRANCH   9  10
HETATM   10  C   UNK N   1      21.749  12.588   8.632  0.00  0.00     0.047 C 
BRANCH  10  11
HETATM   11  C   UNK N   1      21.665  13.947   9.288  0.00  0.00     0.231 C 
BRANCH  11  12
HETATM   12  N   UNK N   1      20.312  14.149   9.772  0.00  0.00    -0.079 N 
HETATM   13  H   UNK N   1      19.864  15.059   9.671  0.00  0.00     0.274 HD
HETATM   14  H   UNK N   1      19.809  13.379  10.215  0.00  0.00     0.274 HD
HETATM   15  H   UNK N   1      19.361  14.291  10.113  0.00  0.00     0.274 HD
ENDBRANCH  11  12
ENDBRANCH  10  11
ENDBRANCH   9  10
ENDBRANCH   4   9
BRANCH   3  16
HETATM   16  O   UNK N   1      23.804  11.981  14.110  0.00  0.00    -0.276 OA
HETATM   17  H   UNK N   1      23.464  12.398  14.917  0.00  0.00     0.245 HD
ENDBRANCH   3  16
TORSDOF 5
ENDMDL
MODEL 3
REMARK VINA RESULT:      -4.0     12.943     14.053
REMARK  5 active torsions:
REMARK  status: ('A' for Active; 'I' for Inactive)
REMARK       I    between atoms: N_1  and  C_2 
REMARK       I    between atoms: C_2  and  N_3 
REMARK    1  A    between atoms: N_3  and  O_4 
REMARK    2  A    between atoms: N_5  and  C_7 
REMARK    3  A    between atoms: C_7  and  C_8 
REMARK    4  A    between atoms: C_8  and  C_9 
REMARK    5  A    between atoms: C_9  and  N_10 
ROOT
HETATM    1  N   UNK N   1      29.205  17.087   7.597  0.00  0.00    -0.233 N 
HETATM    2  C   UNK N   1      29.694  17.845   8.691  0.00  0.00     0.691 C 
HETATM    3  N   UNK N   1      28.768  18.477   9.552  0.00  0.00    -0.099 N 
HETATM    4  N   UNK N   1      30.962  17.977   8.923  0.00  0.00    -0.225 N 
ATOM      5  HN  UNK N   1      31.204  18.546   9.735  1.00  0.00     0.177 HD
HETATM    6  H   UNK N   1      29.836  16.641   6.987  0.00  0.00     0.174 HD
HETATM    7  H   UNK N   1      28.236  17.006   7.449  0.00  0.00     0.174 HD
HETATM    8  H   UNK N   1      29.094  19.007  10.314  0.00  0.00     0.213 HD
ENDROOT
BRANCH   4   9
HETATM    9  C   UNK N   1      32.091  17.424   8.179  0.00  0.00     0.139 C 
BRANCH   9  10
HETATM   10  C   UNK N   1      33.391  18.211   8.261  0.00  0.00     0.047 C 
BRANCH  10  11
HETATM   11  C   UNK N   1      34.551  17.311   8.615  0.00  0.00     0.231 C 
BRANCH  11  12
HETATM   12  N   UNK N   1      34.576  17.125  10.054  0.00  0.00    -0.079 N 
HETATM   13  H   UNK N   1      33.738  16.810  10.543  0.00  0.00     0.274 HD
HETATM   14  H   UNK N   1      35.432  17.309  10.578  0.00  0.00     0.274 HD
HETATM   15  H   UNK N   1      34.593  16.994  11.066  0.00  0.00     0.274 HD
ENDBRANCH  11  12
ENDBRANCH  10  11
ENDBRANCH   9  10
ENDBRANCH   4   9
BRANCH   3  16
HETATM   16  O   UNK N   1      27.451  18.361   9.336  0.00  0.00    -0.276 OA
HETATM   17  H   UNK N   1      27.021  18.906   8.659  0.00  0.00     0.245 HD
ENDBRANCH   3  16
TORSDOF 5
ENDMDL
MODEL 4
REMARK VINA RESULT:      -4.0     13.602     14.569
REMARK  5 active torsions:
REMARK  status: ('A' for Active; 'I' for Inactive)
REMARK       I    between atoms: N_1  and  C_2 
REMARK       I    between atoms: C_2  and  N_3 
REMARK    1  A    between atoms: N_3  and  O_4 
REMARK    2  A    between atoms: N_5  and  C_7 
REMARK    3  A    between atoms: C_7  and  C_8 
REMARK    4  A    between atoms: C_8  and  C_9 
REMARK    5  A    between atoms: C_9  and  N_10 
ROOT
HETATM    1  N   UNK N   1      33.695  18.332   7.894  0.00  0.00    -0.233 N 
HETATM    2  C   UNK N   1      33.315  17.429   8.918  0.00  0.00     0.691 C 
HETATM    3  N   UNK N   1      34.260  17.084   9.911  0.00  0.00    -0.099 N 
HETATM    4  N   UNK N   1      32.129  16.908   8.970  0.00  0.00    -0.225 N 
ATOM      5  HN  UNK N   1      31.961  16.269   9.747  1.00  0.00     0.177 HD
HETATM    6  H   UNK N   1      33.050  18.582   7.194  0.00  0.00     0.174 HD
HETATM    7  H   UNK N   1      34.604  18.709   7.885  0.00  0.00     0.174 HD
HETATM    8  H   UNK N   1      34.009  16.458  10.628  0.00  0.00     0.213 HD
ENDROOT
BRANCH   4   9
HETATM    9  C   UNK N   1      31.000  17.112   8.065  0.00  0.00     0.139 C 
BRANCH   9  10
HETATM   10  C   UNK N   1      30.030  18.220   8.449  0.00  0.00     0.047 C 
BRANCH  10  11
HETATM   11  C   UNK N   1      29.044  17.744   9.491  0.00  0.00     0.231 C 
BRANCH  11  12
HETATM   12  N   UNK N   1      27.737  18.293   9.181  0.00  0.00    -0.079 N 
HETATM   13  H   UNK N   1      27.319  18.132   8.265  0.00  0.00     0.274 HD
HETATM   14  H   UNK N   1      27.236  18.841   9.881  0.00  0.00     0.274 HD
HETATM   15  H   UNK N   1      26.818  18.680   8.964  0.00  0.00     0.274 HD
ENDBRANCH  11  12
ENDBRANCH  10  11
ENDBRANCH   9  10
ENDBRANCH   4   9
BRANCH   3  16
HETATM   16  O   UNK N   1      35.494  17.604   9.884  0.00  0.00    -0.276 OA
HETATM   17  H   UNK N   1      35.663  18.472  10.281  0.00  0.00     0.245 HD
ENDBRANCH   3  16
TORSDOF 5
ENDMDL
MODEL 5
REMARK VINA RESULT:      -4.0      2.627      3.883
REMARK  5 active torsions:
REMARK  status: ('A' for Active; 'I' for Inactive)
REMARK       I    between atoms: N_1  and  C_2 
REMARK       I    between atoms: C_2  and  N_3 
REMARK    1  A    between atoms: N_3  and  O_4 
REMARK    2  A    between atoms: N_5  and  C_7 
REMARK    3  A    between atoms: C_7  and  C_8 
REMARK    4  A    between atoms: C_8  and  C_9 
REMARK    5  A    between atoms: C_9  and  N_10 
ROOT
HETATM    1  N   UNK N   1      21.121  21.405   2.571  0.00  0.00    -0.233 N 
HETATM    2  C   UNK N   1      20.885  20.096   2.080  0.00  0.00     0.691 C 
HETATM    3  N   UNK N   1      20.641  19.917   0.700  0.00  0.00    -0.099 N 
HETATM    4  N   UNK N   1      20.884  19.060   2.860  0.00  0.00    -0.225 N 
ATOM      5  HN  UNK N   1      20.701  18.166   2.404  1.00  0.00     0.177 HD
HETATM    6  H   UNK N   1      21.291  21.548   3.530  0.00  0.00     0.174 HD
HETATM    7  H   UNK N   1      21.114  22.170   1.952  0.00  0.00     0.174 HD
HETATM    8  H   UNK N   1      20.475  19.014   0.346  0.00  0.00     0.213 HD
ENDROOT
BRANCH   4   9
HETATM    9  C   UNK N   1      21.107  19.001   4.302  0.00  0.00     0.139 C 
BRANCH   9  10
HETATM   10  C   UNK N   1      22.250  18.107   4.762  0.00  0.00     0.047 C 
BRANCH  10  11
HETATM   11  C   UNK N   1      23.572  18.585   4.209  0.00  0.00     0.231 C 
BRANCH  11  12
HETATM   12  N   UNK N   1      24.531  18.664   5.295  0.00  0.00    -0.079 N 
HETATM   13  H   UNK N   1      25.374  19.230   5.193  0.00  0.00     0.274 HD
HETATM   14  H   UNK N   1      24.363  18.152   6.162  0.00  0.00     0.274 HD
HETATM   15  H   UNK N   1      25.206  18.719   6.059  0.00  0.00     0.274 HD
ENDBRANCH  11  12
ENDBRANCH  10  11
ENDBRANCH   9  10
ENDBRANCH   4   9
BRANCH   3  16
HETATM   16  O   UNK N   1      20.633  20.968  -0.131  0.00  0.00    -0.276 OA
HETATM   17  H   UNK N   1      20.206  21.796   0.139  0.00  0.00     0.245 HD
ENDBRANCH   3  16
TORSDOF 5
ENDMDL
MODEL 6
REMARK VINA RESULT:      -4.0     22.154     22.950
REMARK  5 active torsions:
REMARK  status: ('A' for Active; 'I' for Inactive)
REMARK       I    between atoms: N_1  and  C_2 
REMARK       I    between atoms: C_2  and  N_3 
REMARK    1  A    between atoms: N_3  and  O_4 
REMARK    2  A    between atoms: N_5  and  C_7 
REMARK    3  A    between atoms: C_7  and  C_8 
REMARK    4  A    between atoms: C_8  and  C_9 
REMARK    5  A    between atoms: C_9  and  N_10 
ROOT
HETATM    1  N   UNK N   1      43.593  23.961   4.010  0.00  0.00    -0.233 N 
HETATM    2  C   UNK N   1      43.791  22.850   3.152  0.00  0.00     0.691 C 
HETATM    3  N   UNK N   1      44.962  22.071   3.302  0.00  0.00    -0.099 N 
HETATM    4  N   UNK N   1      42.934  22.529   2.234  0.00  0.00    -0.225 N 
ATOM      5  HN  UNK N   1      43.176  21.713   1.671  1.00  0.00     0.177 HD
HETATM    6  H   UNK N   1      42.784  24.515   3.918  0.00  0.00     0.174 HD
HETATM    7  H   UNK N   1      44.264  24.177   4.697  0.00  0.00     0.174 HD
HETATM    8  H   UNK N   1      45.112  21.298   2.712  0.00  0.00     0.213 HD
ENDROOT
BRANCH   4   9
HETATM    9  C   UNK N   1      41.670  23.178   1.896  0.00  0.00     0.139 C 
BRANCH   9  10
HETATM   10  C   UNK N   1      40.721  22.371   1.021  0.00  0.00     0.047 C 
BRANCH  10  11
HETATM   11  C   UNK N   1      40.593  20.951   1.522  0.00  0.00     0.231 C 
BRANCH  11  12
HETATM   12  N   UNK N   1      39.669  20.933   2.641  0.00  0.00    -0.079 N 
HETATM   13  H   UNK N   1      39.354  20.044   3.028  0.00  0.00     0.274 HD
HETATM   14  H   UNK N   1      39.335  21.810   3.041  0.00  0.00     0.274 HD
HETATM   15  H   UNK N   1      39.020  20.920   3.428  0.00  0.00     0.274 HD
ENDBRANCH  11  12
ENDBRANCH  10  11
ENDBRANCH   9  10
ENDBRANCH   4   9
BRANCH   3  16
HETATM   16  O   UNK N   1      45.867  22.379   4.239  0.00  0.00    -0.276 OA
HETATM   17  H   UNK N   1      46.196  23.288   4.316  0.00  0.00     0.245 HD
ENDBRANCH   3  16
TORSDOF 5
ENDMDL
MODEL 7
REMARK VINA RESULT:      -3.9     15.173     16.147
REMARK  5 active torsions:
REMARK  status: ('A' for Active; 'I' for Inactive)
REMARK       I    between atoms: N_1  and  C_2 
REMARK       I    between atoms: C_2  and  N_3 
REMARK    1  A    between atoms: N_3  and  O_4 
REMARK    2  A    between atoms: N_5  and  C_7 
REMARK    3  A    between atoms: C_7  and  C_8 
REMARK    4  A    between atoms: C_8  and  C_9 
REMARK    5  A    between atoms: C_9  and  N_10 
ROOT
HETATM    1  N   UNK N   1      35.044  15.516   8.824  0.00  0.00    -0.233 N 
HETATM    2  C   UNK N   1      34.694  16.622   9.638  0.00  0.00     0.691 C 
HETATM    3  N   UNK N   1      35.569  17.009  10.679  0.00  0.00    -0.099 N 
HETATM    4  N   UNK N   1      33.596  17.287   9.458  0.00  0.00    -0.225 N 
ATOM      5  HN  UNK N   1      33.440  18.064  10.102  1.00  0.00     0.177 HD
HETATM    6  H   UNK N   1      34.446  15.232   8.096  0.00  0.00     0.174 HD
HETATM    7  H   UNK N   1      35.886  15.033   8.987  0.00  0.00     0.174 HD
HETATM    8  H   UNK N   1      35.337  17.775  11.252  0.00  0.00     0.213 HD
ENDROOT
BRANCH   4   9
HETATM    9  C   UNK N   1      32.550  17.074   8.461  0.00  0.00     0.139 C 
BRANCH   9  10
HETATM   10  C   UNK N   1      31.415  18.088   8.459  0.00  0.00     0.047 C 
BRANCH  10  11
HETATM   11  C   UNK N   1      30.143  17.484   9.006  0.00  0.00     0.231 C 
BRANCH  11  12
HETATM   12  N   UNK N   1      29.782  18.181  10.226  0.00  0.00    -0.079 N 
HETATM   13  H   UNK N   1      30.507  18.477  10.880  0.00  0.00     0.274 HD
HETATM   14  H   UNK N   1      28.801  18.377  10.431  0.00  0.00     0.274 HD
HETATM   15  H   UNK N   1      29.527  18.672  11.084  0.00  0.00     0.274 HD
ENDBRANCH  11  12
ENDBRANCH  10  11
ENDBRANCH   9  10
ENDBRANCH   4   9
BRANCH   3  16
HETATM   16  O   UNK N   1      36.710  16.341  10.891  0.00  0.00    -0.276 OA
HETATM   17  H   UNK N   1      37.242  16.529  11.679  0.00  0.00     0.245 HD
ENDBRANCH   3  16
TORSDOF 5
ENDMDL
MODEL 8
REMARK VINA RESULT:      -3.9     19.066     20.006
REMARK  5 active torsions:
REMARK  status: ('A' for Active; 'I' for Inactive)
REMARK       I    between atoms: N_1  and  C_2 
REMARK       I    between atoms: C_2  and  N_3 
REMARK    1  A    between atoms: N_3  and  O_4 
REMARK    2  A    between atoms: N_5  and  C_7 
REMARK    3  A    between atoms: C_7  and  C_8 
REMARK    4  A    between atoms: C_8  and  C_9 
REMARK    5  A    between atoms: C_9  and  N_10 
ROOT
HETATM    1  N   UNK N   1      36.997  15.438  10.903  0.00  0.00    -0.233 N 
HETATM    2  C   UNK N   1      35.648  15.623  11.296  0.00  0.00     0.691 C 
HETATM    3  N   UNK N   1      34.975  16.800  10.896  0.00  0.00    -0.099 N 
HETATM    4  N   UNK N   1      35.015  14.748  12.012  0.00  0.00    -0.225 N 
ATOM      5  HN  UNK N   1      34.049  14.981  12.241  1.00  0.00     0.177 HD
HETATM    6  H   UNK N   1      37.482  14.625  11.174  0.00  0.00     0.174 HD
HETATM    7  H   UNK N   1      37.449  16.123  10.359  0.00  0.00     0.174 HD
HETATM    8  H   UNK N   1      34.038  16.941  11.163  0.00  0.00     0.213 HD
ENDROOT
BRANCH   4   9
HETATM    9  C   UNK N   1      35.499  13.474  12.538  0.00  0.00     0.139 C 
BRANCH   9  10
HETATM   10  C   UNK N   1      35.411  13.300  14.048  0.00  0.00     0.047 C 
BRANCH  10  11
HETATM   11  C   UNK N   1      36.781  13.103  14.654  0.00  0.00     0.231 C 
BRANCH  11  12
HETATM   12  N   UNK N   1      37.215  14.356  15.243  0.00  0.00    -0.079 N 
HETATM   13  H   UNK N   1      37.423  15.156  14.646  0.00  0.00     0.274 HD
HETATM   14  H   UNK N   1      37.313  14.437  16.256  0.00  0.00     0.274 HD
HETATM   15  H   UNK N   1      37.521  15.237  15.657  0.00  0.00     0.274 HD
ENDBRANCH  11  12
ENDBRANCH  10  11
ENDBRANCH   9  10
ENDBRANCH   4   9
BRANCH   3  16
HETATM   16  O   UNK N   1      35.603  17.724  10.157  0.00  0.00    -0.276 OA
HETATM   17  H   UNK N   1      36.088  17.460   9.360  0.00  0.00     0.245 HD
ENDBRANCH   3  16
TORSDOF 5
ENDMDL
MODEL 9
REMARK VINA RESULT:      -3.8     10.595     11.356
REMARK  5 active torsions:
REMARK  status: ('A' for Active; 'I' for Inactive)
REMARK       I    between atoms: N_1  and  C_2 
REMARK       I    between atoms: C_2  and  N_3 
REMARK    1  A    between atoms: N_3  and  O_4 
REMARK    2  A    between atoms: N_5  and  C_7 
REMARK    3  A    between atoms: C_7  and  C_8 
REMARK    4  A    between atoms: C_8  and  C_9 
REMARK    5  A    between atoms: C_9  and  N_10 
ROOT
HETATM    1  N   UNK N   1      22.466  11.612  11.106  0.00  0.00    -0.233 N 
HETATM    2  C   UNK N   1      23.175  12.649  10.449  0.00  0.00     0.691 C 
HETATM    3  N   UNK N   1      24.521  12.890  10.808  0.00  0.00    -0.099 N 
HETATM    4  N   UNK N   1      22.627  13.382   9.532  0.00  0.00    -0.225 N 
ATOM      5  HN  UNK N   1      23.226  14.102   9.125  1.00  0.00     0.177 HD
HETATM    6  H   UNK N   1      21.528  11.431  10.869  0.00  0.00     0.174 HD
HETATM    7  H   UNK N   1      22.913  11.074  11.798  0.00  0.00     0.174 HD
HETATM    8  H   UNK N   1      25.025  13.607  10.360  0.00  0.00     0.213 HD
ENDROOT
BRANCH   4   9
HETATM    9  C   UNK N   1      21.267  13.320   9.003  0.00  0.00     0.139 C 
BRANCH   9  10
HETATM   10  C   UNK N   1      20.296  14.364   9.537  0.00  0.00     0.047 C 
BRANCH  10  11
HETATM   11  C   UNK N   1      20.482  15.689   8.836  0.00  0.00     0.231 C 
BRANCH  11  12
HETATM   12  N   UNK N   1      19.226  16.415   8.871  0.00  0.00    -0.079 N 
HETATM   13  H   UNK N   1      19.128  17.292   8.359  0.00  0.00     0.274 HD
HETATM   14  H   UNK N   1      18.439  16.048   9.407  0.00  0.00     0.274 HD
HETATM   15  H   UNK N   1      18.342  16.926   8.895  0.00  0.00     0.274 HD
ENDBRANCH  11  12
ENDBRANCH  10  11
ENDBRANCH   9  10
ENDBRANCH   4   9
BRANCH   3  16
HETATM   16  O   UNK N   1      25.116  12.151  11.753  0.00  0.00    -0.276 OA
HETATM   17  H   UNK N   1      25.721  12.568  12.385  0.00  0.00     0.245 HD
ENDBRANCH   3  16
TORSDOF 5
ENDMDL
