REMARK  4 active torsions:
REMARK  status: ('A' for Active; 'I' for Inactive)
REMARK    1  A    between atoms: C_3  and  N_4 
REMARK    2  A    between atoms: C_9  and  C_10 
REMARK    3  A    between atoms: C_10  and  O_11 
REMARK    4  A    between atoms: C_12  and  N_13 
ROOT
HETATM    1  C   UNK N   1       1.645  -0.047  -0.195  0.00  0.00     0.054 C 
HETATM    2  C   UNK N   1       0.325   0.668  -0.169  0.00  0.00     0.015 A 
HETATM    3  C   UNK N   1      -0.826  -0.019  -0.329  0.00  0.00     0.072 A 
HETATM    4  C   UNK N   1      -2.128   0.724  -0.311  0.00  0.00     0.204 A 
HETATM    5  O   UNK N   1      -3.184   0.126  -0.448  0.00  0.00    -0.286 OA
HETATM    6  C   UNK N   1      -2.147   2.201  -0.124  0.00  0.00     0.042 A 
HETATM    7  C   UNK N   1      -0.987   2.884   0.050  0.00  0.00     0.074 A 
HETATM    8  C   UNK N   1       0.307   2.137   0.046  0.00  0.00     0.201 A 
HETATM    9  O   UNK N   1       1.358   2.731   0.222  0.00  0.00    -0.286 OA
ENDROOT
BRANCH   3  10
HETATM   10  N   UNK N   1      -0.767  -1.438  -0.515  0.00  0.00    -0.277 NA
HETATM   11  C   UNK N   1      -1.891  -2.272  -0.615  0.00  0.00     0.110 A 
HETATM   12  C   UNK N   1      -0.809  -2.313   0.580  0.00  0.00     0.110 A 
ENDBRANCH   3  10
BRANCH   6  13
HETATM   13  C   UNK N   1      -3.480   2.905  -0.148  0.00  0.00     0.208 C 
BRANCH  13  14
HETATM   14  O   UNK N   1      -3.734   3.530   1.073  0.00  0.00    -0.396 OA
HETATM   15  H   UNK N   1      -3.446   3.900   1.922  0.00  0.00     0.209 HD
ENDBRANCH  13  14
ENDBRANCH   6  13
BRANCH   7  16
HETATM   16  N   UNK N   1      -0.998   4.299   0.272  0.00  0.00    -0.277 NA
HETATM   17  C   UNK N   1      -1.573   5.228  -0.597  0.00  0.00     0.110 A 
HETATM   18  C   UNK N   1      -0.003   5.179  -0.159  0.00  0.00     0.110 A 
ENDBRANCH   7  16
TORSDOF 4
