REMARK WARNING: 32 MAX_TORS EXCEEDED!!!
REMARK  38 active torsions:
REMARK  status: ('A' for Active; 'I' for Inactive)
REMARK    1  A    between atoms: C_5  and  C_1 
REMARK    2  A    between atoms: C_9  and  C_1 
REMARK    3  A    between atoms: C_6  and  C_2 
REMARK    4  A    between atoms: C_10  and  C_2 
REMARK    5  A    between atoms: C_7  and  C_3 
REMARK    6  A    between atoms: C_11  and  C_3 
REMARK    7  A    between atoms: C_8  and  C_4 
REMARK    8  A    between atoms: C_12  and  C_4 
REMARK    9  A    between atoms: N_51  and  C_5 
REMARK   10  A    between atoms: N_52  and  C_6 
REMARK   11  A    between atoms: N_53  and  C_7 
REMARK   12  A    between atoms: N_55  and  C_8 
REMARK   13  A    between atoms: N_57  and  C_9 
REMARK   14  A    between atoms: N_58  and  C_10 
REMARK   15  A    between atoms: N_59  and  C_11 
REMARK   16  A    between atoms: N_60  and  C_12 
REMARK   17  A    between atoms: C_35  and  C_27 
REMARK   18  A    between atoms: O_63  and  C_27 
REMARK   19  A    between atoms: C_36  and  C_28 
REMARK   20  A    between atoms: O_64  and  C_28 
REMARK   21  A    between atoms: C_47  and  C_29 
REMARK   22  A    between atoms: C_48  and  C_30 
REMARK   23  A    between atoms: N_61  and  C_31 
REMARK   24  A    between atoms: N_62  and  C_32 
REMARK   25  A    between atoms: O_79  and  C_33 
REMARK   26  A    between atoms: O_80  and  C_34 
REMARK   27  A    between atoms: N_51  and  C_37 
REMARK   28  A    between atoms: N_52  and  C_38 
REMARK   29  A    between atoms: C_39  and  O_65 
REMARK   30  A    between atoms: O_66  and  C_40 
REMARK   31  A    between atoms: C_43  and  O_69 
REMARK   32  A    between atoms: O_70  and  C_44 
REMARK   33  A    between atoms: C_45  and  O_71 
REMARK   34  A    between atoms: O_72  and  C_46 
REMARK   35  A    between atoms: O_73  and  C_47 
REMARK   36  A    between atoms: O_74  and  C_48 
REMARK   37  A    between atoms: C_49  and  O_79 
REMARK   38  A    between atoms: O_80  and  C_50 
ROOT
HETATM    1  C   UNK N   1      10.358   9.008   1.238  0.00  0.00     0.114 A 
HETATM    2  C   UNK N   1       9.393   9.701   0.582  0.00  0.00     0.114 A 
HETATM    3  C   UNK N   1       9.378   8.095   1.798  0.00  0.00     0.252 A 
HETATM    4  C   UNK N   1       8.345   8.840   1.103  0.00  0.00     0.252 A 
HETATM    5  O   UNK N   1       9.452   7.087   2.478  0.00  0.00    -0.281 OA
HETATM    6  O   UNK N   1       7.138   8.761   0.945  0.00  0.00    -0.281 OA
ENDROOT
BRANCH   1   7
HETATM    7  N   UNK N   1      11.765   9.052   1.432  0.00  0.00    -0.385 N 
HETATM    8  H   UNK N   1      12.100   9.183   2.349  0.00  0.00     0.159 HD
BRANCH   7   9
HETATM    9  C   UNK N   1      12.733   8.919   0.374  0.00  0.00     0.121 C 
BRANCH   9  10
HETATM   10  C   UNK N   1      12.819   7.489  -0.120  0.00  0.00     0.050 C 
BRANCH  10  11
HETATM   11  C   UNK N   1      12.012   7.335  -1.399  0.00  0.00     0.274 C 
BRANCH  11  12
HETATM   12  N   UNK N   1      10.679   6.889  -1.058  0.00  0.00     0.091 N 
HETATM   13  C   UNK N   1       9.753   7.169  -2.134  0.00  0.00     0.302 C 
HETATM   14  C   UNK N   1       8.338   6.885  -1.628  0.00  0.00     0.302 C 
HETATM   15  N   UNK N   1       8.190   5.645  -0.836  0.00  0.00     0.091 N 
HETATM   16  C   UNK N   1       9.419   5.080  -0.230  0.00  0.00     0.302 C 
HETATM   17  C   UNK N   1      10.689   5.450  -0.948  0.00  0.00     0.302 C 
BRANCH  15  18
HETATM   18  C   UNK N   1       7.177   5.991   0.180  0.00  0.00     0.274 C 
BRANCH  18  19
HETATM   19  C   UNK N   1       7.364   5.432   1.610  0.00  0.00     0.050 C 
BRANCH  19  20
HETATM   20  C   UNK N   1       7.580   3.935   1.643  0.00  0.00     0.123 C 
BRANCH  20  21
HETATM   21  N   UNK N   1       6.819   3.346   0.579  0.00  0.00    -0.370 N 
HETATM   22  C   UNK N   1       7.110   2.228   0.031  0.00  0.00     0.146 C 
ATOM     23  HN  UNK N   1       5.999   3.848   0.239  1.00  0.00     0.161 HD
BRANCH  22  24
HETATM   24  C   UNK N   1       8.275   1.421   0.433  0.00  0.00     0.019 A 
HETATM   25  C   UNK N   1       9.601   1.908   0.527  0.00  0.00     0.052 A 
HETATM   26  C   UNK N   1      10.659   1.009   0.810  0.00  0.00     0.106 A 
HETATM   27  C   UNK N   1      10.360  -0.341   1.024  0.00  0.00     0.073 A 
HETATM   28  C   UNK N   1       9.051  -0.798   0.896  0.00  0.00     0.075 A 
HETATM   29  C   UNK N   1       8.036   0.076   0.582  0.00  0.00     0.052 A 
BRANCH  26  30
HETATM   30  N   UNK N   1      12.029   1.398   0.709  0.00  0.00    -0.116 N 
HETATM   31  O   UNK N   1      12.893   0.595   0.872  0.00  0.00    -0.532 OA
HETATM   32  O   UNK N   1      12.310   2.480   0.278  0.00  0.00    -0.532 OA
ENDBRANCH  26  30
BRANCH  28  33
HETATM   33  O   UNK N   1       8.807  -2.104   0.740  0.00  0.00    -0.318 OA
BRANCH  33  34
HETATM   34  C   UNK N   1       8.840  -2.571  -0.566  0.00  0.00     0.298 C 
HETATM   35  C   UNK N   1      10.293  -2.738  -1.052  0.00  0.00     0.205 C 
HETATM   36  C   UNK N   1      10.929  -3.866  -0.245  0.00  0.00     0.183 C 
HETATM   37  C   UNK N   1      10.081  -5.125  -0.442  0.00  0.00     0.180 C 
HETATM   38  C   UNK N   1       8.615  -4.848  -0.019  0.00  0.00     0.179 C 
HETATM   39  O   UNK N   1       8.073  -3.747  -0.721  0.00  0.00    -0.348 OA
BRANCH  35  40
HETATM   40  O   UNK N   1      10.300  -3.037  -2.417  0.00  0.00    -0.388 OA
HETATM   41  H   UNK N   1      10.123  -3.144  -3.364  0.00  0.00     0.210 HD
ENDBRANCH  35  40
BRANCH  36  42
HETATM   42  O   UNK N   1      12.241  -4.081  -0.672  0.00  0.00    -0.390 OA
HETATM   43  H   UNK N   1      12.567  -4.945  -0.969  0.00  0.00     0.210 HD
ENDBRANCH  36  42
BRANCH  37  44
HETATM   44  O   UNK N   1      10.622  -6.171   0.308  0.00  0.00    -0.390 OA
HETATM   45  H   UNK N   1      10.180  -6.860   0.830  0.00  0.00     0.210 HD
ENDBRANCH  37  44
BRANCH  38  46
HETATM   46  C   UNK N   1       7.717  -6.032  -0.372  0.00  0.00     0.198 C 
BRANCH  46  47
HETATM   47  O   UNK N   1       8.124  -7.203   0.264  0.00  0.00    -0.398 OA
HETATM   48  H   UNK N   1       7.559  -7.856   0.707  0.00  0.00     0.209 HD
ENDBRANCH  46  47
ENDBRANCH  38  46
ENDBRANCH  33  34
ENDBRANCH  28  33
ENDBRANCH  22  24
BRANCH  22  49
HETATM   49  O   UNK N   1       6.262   1.723  -0.885  0.00  0.00    -0.346 OA
HETATM   50  H   UNK N   1       5.662   2.058  -1.522  0.00  0.00     0.219 HD
ENDBRANCH  22  49
ENDBRANCH  20  21
ENDBRANCH  19  20
ENDBRANCH  18  19
ENDBRANCH  15  18
ENDBRANCH  11  12
ENDBRANCH  10  11
ENDBRANCH   9  10
ENDBRANCH   7   9
ENDBRANCH   1   7
BRANCH   2  51
HETATM   51  N   UNK N   1       9.321  10.818  -0.276  0.00  0.00    -0.385 N 
HETATM   52  H   UNK N   1       8.839  11.629   0.005  0.00  0.00     0.159 HD
BRANCH  51  53
HETATM   53  C   UNK N   1       9.956  10.764  -1.559  0.00  0.00     0.121 C 
BRANCH  53  54
HETATM   54  C   UNK N   1      11.104  11.731  -1.634  0.00  0.00     0.050 C 
BRANCH  54  55
HETATM   55  C   UNK N   1      12.105  11.495  -0.502  0.00  0.00     0.274 C 
BRANCH  55  56
HETATM   56  N   UNK N   1      11.800  12.161   0.786  0.00  0.00     0.091 N 
HETATM   57  C   UNK N   1      13.055  12.726   1.301  0.00  0.00     0.302 C 
HETATM   58  C   UNK N   1      13.550  13.912   0.444  0.00  0.00     0.302 C 
HETATM   59  N   UNK N   1      12.642  14.130  -0.691  0.00  0.00     0.091 N 
HETATM   60  C   UNK N   1      11.249  14.332  -0.280  0.00  0.00     0.302 C 
HETATM   61  C   UNK N   1      10.807  13.245   0.702  0.00  0.00     0.302 C 
BRANCH  59  62
HETATM   62  C   UNK N   1      13.070  15.093  -1.705  0.00  0.00     0.274 C 
BRANCH  62  63
HETATM   63  C   UNK N   1      13.697  16.386  -1.181  0.00  0.00     0.050 C 
BRANCH  63  64
HETATM   64  C   UNK N   1      13.222  16.825   0.196  0.00  0.00     0.123 C 
BRANCH  64  65
HETATM   65  N   UNK N   1      11.783  16.879   0.309  0.00  0.00    -0.370 N 
HETATM   66  C   UNK N   1      11.076  17.739  -0.320  0.00  0.00     0.146 C 
ATOM     67  HN  UNK N   1      11.313  16.205   0.914  1.00  0.00     0.161 HD
BRANCH  66  68
HETATM   68  C   UNK N   1       9.672  17.911   0.038  0.00  0.00     0.019 A 
HETATM   69  C   UNK N   1       8.704  16.887   0.182  0.00  0.00     0.052 A 
HETATM   70  C   UNK N   1       7.391  17.230   0.613  0.00  0.00     0.106 A 
HETATM   71  C   UNK N   1       7.116  18.559   0.955  0.00  0.00     0.073 A 
HETATM   72  C   UNK N   1       8.094  19.537   0.796  0.00  0.00     0.075 A 
HETATM   73  C   UNK N   1       9.335  19.208   0.322  0.00  0.00     0.052 A 
BRANCH  70  74
HETATM   74  N   UNK N   1       6.318  16.289   0.587  0.00  0.00    -0.116 N 
HETATM   75  O   UNK N   1       5.220  16.627   0.924  0.00  0.00    -0.532 OA
HETATM   76  O   UNK N   1       6.467  15.222   0.076  0.00  0.00    -0.532 OA
ENDBRANCH  70  74
BRANCH  72  77
HETATM   77  O   UNK N   1       7.784  20.834   0.851  0.00  0.00    -0.318 OA
BRANCH  77  78
HETATM   78  C   UNK N   1       7.493  21.449  -0.355  0.00  0.00     0.298 C 
HETATM   79  C   UNK N   1       6.145  20.927  -0.901  0.00  0.00     0.205 C 
HETATM   80  C   UNK N   1       5.055  21.347   0.090  0.00  0.00     0.183 C 
HETATM   81  C   UNK N   1       5.098  22.872   0.226  0.00  0.00     0.180 C 
HETATM   82  C   UNK N   1       6.515  23.315   0.667  0.00  0.00     0.179 C 
HETATM   83  O   UNK N   1       7.508  22.855  -0.229  0.00  0.00    -0.348 OA
BRANCH  79  84
HETATM   84  O   UNK N   1       5.907  21.462  -2.168  0.00  0.00    -0.388 OA
HETATM   85  H   UNK N   1       6.146  21.791  -3.049  0.00  0.00     0.210 HD
ENDBRANCH  79  84
BRANCH  80  86
HETATM   86  O   UNK N   1       3.804  20.921  -0.359  0.00  0.00    -0.390 OA
HETATM   87  H   UNK N   1       3.113  21.526  -0.671  0.00  0.00     0.210 HD
ENDBRANCH  80  86
BRANCH  81  88
HETATM   88  O   UNK N   1       4.150  23.296   1.158  0.00  0.00    -0.390 OA
HETATM   89  H   UNK N   1       4.075  24.014   1.806  0.00  0.00     0.210 HD
ENDBRANCH  81  88
BRANCH  82  90
HETATM   90  C   UNK N   1       6.612  24.835   0.705  0.00  0.00     0.198 C 
BRANCH  90  91
HETATM   91  O   UNK N   1       6.532  25.361  -0.588  0.00  0.00    -0.398 OA
HETATM   92  H   UNK N   1       6.820  25.592  -1.485  0.00  0.00     0.209 HD
ENDBRANCH  90  91
ENDBRANCH  82  90
ENDBRANCH  77  78
ENDBRANCH  72  77
ENDBRANCH  66  68
BRANCH  66  93
HETATM   93  O   UNK N   1      11.668  18.651  -1.125  0.00  0.00    -0.346 OA
HETATM   94  H   UNK N   1      12.420  18.611  -1.683  0.00  0.00     0.219 HD
ENDBRANCH  66  93
ENDBRANCH  64  65
ENDBRANCH  63  64
ENDBRANCH  62  63
ENDBRANCH  59  62
ENDBRANCH  55  56
ENDBRANCH  54  55
ENDBRANCH  53  54
ENDBRANCH  51  53
ENDBRANCH   2  51
TORSDOF 38
