MODEL 1
REMARK VINA RESULT:      -8.5      0.000      0.000
REMARK  8 active torsions:
REMARK  status: ('A' for Active; 'I' for Inactive)
REMARK    1  A    between atoms: O_1  and  C_2 
REMARK    2  A    between atoms: C_5  and  C_6 
REMARK    3  A    between atoms: C_6  and  C_7 
REMARK       I    between atoms: C_7  and  N_9 
REMARK    4  A    between atoms: N_9  and  C_10 
REMARK    5  A    between atoms: C_14  and  C_25 
REMARK    6  A    between atoms: C_17  and  C_18 
REMARK    7  A    between atoms: C_18  and  C_19 
REMARK    8  A    between atoms: C_28  and  O_29 
ROOT
HETATM    1  C   UNK N   1      21.774  15.510   6.674  0.00  0.00     0.131 A 
HETATM    2  N   UNK N   1      21.580  16.844   6.491  0.00  0.00    -0.348 N 
ATOM      3  HN  UNK N   1      22.130  17.330   5.783  1.00  0.00     0.167 HD
HETATM    4  C   UNK N   1      20.683  17.542   7.216  0.00  0.00     0.120 A 
HETATM    5  C   UNK N   1      19.921  16.895   8.183  0.00  0.00     0.058 A 
HETATM    6  N   UNK N   1      20.067  15.549   8.350  0.00  0.00    -0.354 N 
ATOM      7  HN  UNK N   1      19.490  15.072   9.043  1.00  0.00     0.166 HD
HETATM    8  C   UNK N   1      20.960  14.825   7.622  0.00  0.00     0.058 A 
ENDROOT
BRANCH   1   9
HETATM    9  N   UNK N   1      22.787  14.836   5.940  0.00  0.00    -0.311 N 
HETATM   10  C   UNK N   1      22.608  14.046   4.848  0.00  0.00     0.227 C 
HETATM   11  O   UNK N   1      23.583  13.531   4.328  0.00  0.00    -0.273 OA
HETATM   12  H   UNK N   1      23.712  14.953   6.255  0.00  0.00     0.170 HD
BRANCH  10  13
HETATM   13  C   UNK N   1      21.258  13.837   4.216  0.00  0.00     0.141 C 
BRANCH  13  14
HETATM   14  C   UNK N   1      20.978  14.761   3.068  0.00  0.00    -0.049 A 
HETATM   15  C   UNK N   1      21.034  14.256   1.764  0.00  0.00     0.010 A 
HETATM   16  C   UNK N   1      20.726  15.080   0.677  0.00  0.00     0.037 A 
HETATM   17  C   UNK N   1      20.359  16.412   0.890  0.00  0.00     0.065 A 
HETATM   18  C   UNK N   1      20.308  16.923   2.190  0.00  0.00     0.037 A 
HETATM   19  C   UNK N   1      20.608  16.098   3.277  0.00  0.00     0.010 A 
BRANCH  17  20
HETATM   20  O   UNK N   1      20.052  17.200  -0.153  0.00  0.00    -0.361 OA
HETATM   21  H   UNK N   1      20.222  18.117  -0.235  0.00  0.00     0.217 HD
ENDBRANCH  17  20
ENDBRANCH  13  14
ENDBRANCH  10  13
ENDBRANCH   1   9
BRANCH   8  22
HETATM   22  C   UNK N   1      21.058  13.340   7.941  0.00  0.00     0.099 C 
BRANCH  22  23
HETATM   23  C   UNK N   1      21.823  12.930   9.158  0.00  0.00    -0.052 A 
HETATM   24  C   UNK N   1      23.207  12.750   9.069  0.00  0.00     0.007 A 
HETATM   25  C   UNK N   1      23.932  12.319  10.184  0.00  0.00     0.001 A 
HETATM   26  C   UNK N   1      23.272  12.068  11.391  0.00  0.00     0.000 A 
HETATM   27  C   UNK N   1      21.890  12.261  11.487  0.00  0.00     0.001 A 
HETATM   28  C   UNK N   1      21.164  12.696  10.374  0.00  0.00     0.007 A 
ENDBRANCH  22  23
ENDBRANCH   8  22
BRANCH   5  29
HETATM   29  C   UNK N   1      19.086  17.685   9.108  0.00  0.00    -0.008 A 
HETATM   30  C   UNK N   1      19.634  18.798   9.770  0.00  0.00     0.016 A 
HETATM   31  C   UNK N   1      18.904  19.469  10.751  0.00  0.00     0.037 A 
HETATM   32  C   UNK N   1      17.624  19.029  11.088  0.00  0.00     0.065 A 
HETATM   33  C   UNK N   1      17.062  17.935  10.424  0.00  0.00     0.037 A 
HETATM   34  C   UNK N   1      17.791  17.263   9.438  0.00  0.00     0.016 A 
BRANCH  32  35
HETATM   35  O   UNK N   1      16.938  19.653  12.059  0.00  0.00    -0.361 OA
HETATM   36  H   UNK N   1      16.982  20.584  12.158  0.00  0.00     0.217 HD
ENDBRANCH  32  35
ENDBRANCH   5  29
TORSDOF 8
ENDMDL
MODEL 2
REMARK VINA RESULT:      -8.2      7.100      9.312
REMARK  8 active torsions:
REMARK  status: ('A' for Active; 'I' for Inactive)
REMARK    1  A    between atoms: O_1  and  C_2 
REMARK    2  A    between atoms: C_5  and  C_6 
REMARK    3  A    between atoms: C_6  and  C_7 
REMARK       I    between atoms: C_7  and  N_9 
REMARK    4  A    between atoms: N_9  and  C_10 
REMARK    5  A    between atoms: C_14  and  C_25 
REMARK    6  A    between atoms: C_17  and  C_18 
REMARK    7  A    between atoms: C_18  and  C_19 
REMARK    8  A    between atoms: C_28  and  O_29 
ROOT
HETATM    1  C   UNK N   1      27.036  15.530   4.803  0.00  0.00     0.131 A 
HETATM    2  N   UNK N   1      26.630  15.745   3.523  0.00  0.00    -0.348 N 
ATOM      3  HN  UNK N   1      27.067  15.214   2.770  1.00  0.00     0.167 HD
HETATM    4  C   UNK N   1      25.667  16.639   3.220  0.00  0.00     0.120 A 
HETATM    5  C   UNK N   1      25.057  17.370   4.234  0.00  0.00     0.058 A 
HETATM    6  N   UNK N   1      25.418  17.135   5.528  0.00  0.00    -0.354 N 
ATOM      7  HN  UNK N   1      24.953  17.655   6.273  1.00  0.00     0.166 HD
HETATM    8  C   UNK N   1      26.381  16.231   5.856  0.00  0.00     0.058 A 
ENDROOT
BRANCH   1   9
HETATM    9  N   UNK N   1      28.109  14.635   5.061  0.00  0.00    -0.311 N 
HETATM   10  C   UNK N   1      29.436  14.898   4.925  0.00  0.00     0.227 C 
HETATM   11  O   UNK N   1      30.241  14.019   5.183  0.00  0.00    -0.273 OA
HETATM   12  H   UNK N   1      27.867  13.732   5.370  0.00  0.00     0.170 HD
BRANCH  10  13
HETATM   13  C   UNK N   1      29.953  16.255   4.530  0.00  0.00     0.141 C 
BRANCH  13  14
HETATM   14  C   UNK N   1      31.195  16.667   5.264  0.00  0.00    -0.049 A 
HETATM   15  C   UNK N   1      32.297  17.116   4.528  0.00  0.00     0.010 A 
HETATM   16  C   UNK N   1      33.450  17.556   5.187  0.00  0.00     0.037 A 
HETATM   17  C   UNK N   1      33.505  17.548   6.583  0.00  0.00     0.065 A 
HETATM   18  C   UNK N   1      32.409  17.094   7.322  0.00  0.00     0.037 A 
HETATM   19  C   UNK N   1      31.254  16.661   6.666  0.00  0.00     0.010 A 
BRANCH  17  20
HETATM   20  O   UNK N   1      34.607  17.982   7.215  0.00  0.00    -0.361 OA
HETATM   21  H   UNK N   1      35.036  18.806   7.097  0.00  0.00     0.217 HD
ENDBRANCH  17  20
ENDBRANCH  13  14
ENDBRANCH  10  13
ENDBRANCH   1   9
BRANCH   8  22
HETATM   22  C   UNK N   1      26.723  16.100   7.333  0.00  0.00     0.099 C 
BRANCH  22  23
HETATM   23  C   UNK N   1      27.694  17.073   7.920  0.00  0.00    -0.052 A 
HETATM   24  C   UNK N   1      28.173  16.865   9.218  0.00  0.00     0.007 A 
HETATM   25  C   UNK N   1      29.042  17.790   9.802  0.00  0.00     0.001 A 
HETATM   26  C   UNK N   1      29.434  18.926   9.088  0.00  0.00     0.000 A 
HETATM   27  C   UNK N   1      28.969  19.130   7.784  0.00  0.00     0.001 A 
HETATM   28  C   UNK N   1      28.103  18.203   7.197  0.00  0.00     0.007 A 
ENDBRANCH  22  23
ENDBRANCH   8  22
BRANCH   5  29
HETATM   29  C   UNK N   1      24.150  18.483   3.893  0.00  0.00    -0.008 A 
HETATM   30  C   UNK N   1      22.758  18.291   3.937  0.00  0.00     0.016 A 
HETATM   31  C   UNK N   1      21.891  19.285   3.483  0.00  0.00     0.037 A 
HETATM   32  C   UNK N   1      22.406  20.476   2.971  0.00  0.00     0.065 A 
HETATM   33  C   UNK N   1      23.789  20.686   2.940  0.00  0.00     0.037 A 
HETATM   34  C   UNK N   1      24.659  19.691   3.397  0.00  0.00     0.016 A 
BRANCH  32  35
HETATM   35  O   UNK N   1      21.572  21.417   2.500  0.00  0.00    -0.361 OA
HETATM   36  H   UNK N   1      20.758  21.598   2.930  0.00  0.00     0.217 HD
ENDBRANCH  32  35
ENDBRANCH   5  29
TORSDOF 8
ENDMDL
MODEL 3
REMARK VINA RESULT:      -8.1     14.155     16.354
REMARK  8 active torsions:
REMARK  status: ('A' for Active; 'I' for Inactive)
REMARK    1  A    between atoms: O_1  and  C_2 
REMARK    2  A    between atoms: C_5  and  C_6 
REMARK    3  A    between atoms: C_6  and  C_7 
REMARK       I    between atoms: C_7  and  N_9 
REMARK    4  A    between atoms: N_9  and  C_10 
REMARK    5  A    between atoms: C_14  and  C_25 
REMARK    6  A    between atoms: C_17  and  C_18 
REMARK    7  A    between atoms: C_18  and  C_19 
REMARK    8  A    between atoms: C_28  and  O_29 
ROOT
HETATM    1  C   UNK N   1      36.848  13.471  12.764  0.00  0.00     0.131 A 
HETATM    2  N   UNK N   1      36.802  14.396  13.760  0.00  0.00    -0.348 N 
ATOM      3  HN  UNK N   1      37.131  15.343  13.571  1.00  0.00     0.167 HD
HETATM    4  C   UNK N   1      36.335  14.100  14.989  0.00  0.00     0.120 A 
HETATM    5  C   UNK N   1      35.878  12.815  15.266  0.00  0.00     0.058 A 
HETATM    6  N   UNK N   1      35.873  11.886  14.267  0.00  0.00    -0.354 N 
ATOM      7  HN  UNK N   1      35.515  10.951  14.464  1.00  0.00     0.166 HD
HETATM    8  C   UNK N   1      36.332  12.168  13.017  0.00  0.00     0.058 A 
ENDROOT
BRANCH   1   9
HETATM    9  N   UNK N   1      37.423  13.812  11.510  0.00  0.00    -0.311 N 
HETATM   10  C   UNK N   1      36.816  14.481  10.495  0.00  0.00     0.227 C 
HETATM   11  O   UNK N   1      37.444  14.696   9.472  0.00  0.00    -0.273 OA
HETATM   12  H   UNK N   1      38.356  13.534  11.362  0.00  0.00     0.170 HD
BRANCH  10  13
HETATM   13  C   UNK N   1      35.418  15.027  10.610  0.00  0.00     0.141 C 
BRANCH  13  14
HETATM   14  C   UNK N   1      34.962  15.783   9.398  0.00  0.00    -0.049 A 
HETATM   15  C   UNK N   1      34.928  17.181   9.445  0.00  0.00     0.010 A 
HETATM   16  C   UNK N   1      34.557  17.915   8.314  0.00  0.00     0.037 A 
HETATM   17  C   UNK N   1      34.219  17.253   7.130  0.00  0.00     0.065 A 
HETATM   18  C   UNK N   1      34.244  15.857   7.079  0.00  0.00     0.037 A 
HETATM   19  C   UNK N   1      34.622  15.123   8.207  0.00  0.00     0.010 A 
BRANCH  17  20
HETATM   20  O   UNK N   1      33.875  17.958   6.040  0.00  0.00    -0.361 OA
HETATM   21  H   UNK N   1      33.285  17.693   5.362  0.00  0.00     0.217 HD
ENDBRANCH  17  20
ENDBRANCH  13  14
ENDBRANCH  10  13
ENDBRANCH   1   9
BRANCH   8  22
HETATM   22  C   UNK N   1      36.316  11.027  12.009  0.00  0.00     0.099 C 
BRANCH  22  23
HETATM   23  C   UNK N   1      35.056  10.784  11.242  0.00  0.00    -0.052 A 
HETATM   24  C   UNK N   1      34.216   9.732  11.619  0.00  0.00     0.007 A 
HETATM   25  C   UNK N   1      33.060   9.458  10.884  0.00  0.00     0.001 A 
HETATM   26  C   UNK N   1      32.742  10.237   9.768  0.00  0.00     0.000 A 
HETATM   27  C   UNK N   1      33.571  11.300   9.396  0.00  0.00     0.001 A 
HETATM   28  C   UNK N   1      34.727  11.578  10.133  0.00  0.00     0.007 A 
ENDBRANCH  22  23
ENDBRANCH   8  22
BRANCH   5  29
HETATM   29  C   UNK N   1      35.553  12.435  16.654  0.00  0.00    -0.008 A 
HETATM   30  C   UNK N   1      35.268  13.430  17.605  0.00  0.00     0.016 A 
HETATM   31  C   UNK N   1      35.097  13.099  18.949  0.00  0.00     0.037 A 
HETATM   32  C   UNK N   1      35.220  11.771  19.358  0.00  0.00     0.065 A 
HETATM   33  C   UNK N   1      35.485  10.770  18.418  0.00  0.00     0.037 A 
HETATM   34  C   UNK N   1      35.653  11.101  17.070  0.00  0.00     0.016 A 
BRANCH  32  35
HETATM   35  O   UNK N   1      35.093  11.458  20.657  0.00  0.00    -0.361 OA
HETATM   36  H   UNK N   1      35.829  11.158  21.154  0.00  0.00     0.217 HD
ENDBRANCH  32  35
ENDBRANCH   5  29
TORSDOF 8
ENDMDL
MODEL 4
REMARK VINA RESULT:      -7.9      4.802      8.803
REMARK  8 active torsions:
REMARK  status: ('A' for Active; 'I' for Inactive)
REMARK    1  A    between atoms: O_1  and  C_2 
REMARK    2  A    between atoms: C_5  and  C_6 
REMARK    3  A    between atoms: C_6  and  C_7 
REMARK       I    between atoms: C_7  and  N_9 
REMARK    4  A    between atoms: N_9  and  C_10 
REMARK    5  A    between atoms: C_14  and  C_25 
REMARK    6  A    between atoms: C_17  and  C_18 
REMARK    7  A    between atoms: C_18  and  C_19 
REMARK    8  A    between atoms: C_28  and  O_29 
ROOT
HETATM    1  C   UNK N   1      23.648  16.968   5.089  0.00  0.00     0.131 A 
HETATM    2  N   UNK N   1      23.606  15.611   5.164  0.00  0.00    -0.348 N 
ATOM      3  HN  UNK N   1      22.988  15.172   5.846  1.00  0.00     0.167 HD
HETATM    4  C   UNK N   1      24.357  14.827   4.365  0.00  0.00     0.120 A 
HETATM    5  C   UNK N   1      25.205  15.407   3.426  0.00  0.00     0.058 A 
HETATM    6  N   UNK N   1      25.226  16.765   3.303  0.00  0.00    -0.354 N 
ATOM      7  HN  UNK N   1      25.830  17.187   2.597  1.00  0.00     0.166 HD
HETATM    8  C   UNK N   1      24.468  17.573   4.094  0.00  0.00     0.058 A 
ENDROOT
BRANCH   1   9
HETATM    9  N   UNK N   1      22.896  17.750   6.007  0.00  0.00    -0.311 N 
HETATM   10  C   UNK N   1      21.577  18.065   5.914  0.00  0.00     0.227 C 
HETATM   11  O   UNK N   1      21.073  18.752   6.786  0.00  0.00    -0.273 OA
HETATM   12  H   UNK N   1      23.381  18.099   6.790  0.00  0.00     0.170 HD
BRANCH  10  13
HETATM   13  C   UNK N   1      20.698  17.541   4.811  0.00  0.00     0.141 C 
BRANCH  13  14
HETATM   14  C   UNK N   1      20.744  18.363   3.558  0.00  0.00    -0.049 A 
HETATM   15  C   UNK N   1      20.451  17.749   2.335  0.00  0.00     0.010 A 
HETATM   16  C   UNK N   1      20.435  18.501   1.156  0.00  0.00     0.037 A 
HETATM   17  C   UNK N   1      20.711  19.870   1.196  0.00  0.00     0.065 A 
HETATM   18  C   UNK N   1      21.011  20.487   2.413  0.00  0.00     0.037 A 
HETATM   19  C   UNK N   1      21.020  19.738   3.593  0.00  0.00     0.010 A 
BRANCH  17  20
HETATM   20  O   UNK N   1      20.684  20.595   0.066  0.00  0.00    -0.361 OA
HETATM   21  H   UNK N   1      21.410  20.796  -0.492  0.00  0.00     0.217 HD
ENDBRANCH  17  20
ENDBRANCH  13  14
ENDBRANCH  10  13
ENDBRANCH   1   9
BRANCH   8  22
HETATM   22  C   UNK N   1      24.622  19.073   3.886  0.00  0.00     0.099 C 
BRANCH  22  23
HETATM   23  C   UNK N   1      25.763  19.763   4.562  0.00  0.00    -0.052 A 
HETATM   24  C   UNK N   1      27.060  19.585   4.069  0.00  0.00     0.007 A 
HETATM   25  C   UNK N   1      28.145  20.182   4.717  0.00  0.00     0.001 A 
HETATM   26  C   UNK N   1      27.934  20.960   5.860  0.00  0.00     0.000 A 
HETATM   27  C   UNK N   1      26.637  21.153   6.346  0.00  0.00     0.001 A 
HETATM   28  C   UNK N   1      25.550  20.559   5.697  0.00  0.00     0.007 A 
ENDBRANCH  22  23
ENDBRANCH   8  22
BRANCH   5  29
HETATM   29  C   UNK N   1      26.168  14.566   2.690  0.00  0.00    -0.008 A 
HETATM   30  C   UNK N   1      25.896  13.202   2.486  0.00  0.00     0.016 A 
HETATM   31  C   UNK N   1      26.856  12.364   1.919  0.00  0.00     0.037 A 
HETATM   32  C   UNK N   1      28.101  12.879   1.558  0.00  0.00     0.065 A 
HETATM   33  C   UNK N   1      28.377  14.238   1.739  0.00  0.00     0.037 A 
HETATM   34  C   UNK N   1      27.415  15.079   2.306  0.00  0.00     0.016 A 
BRANCH  32  35
HETATM   35  O   UNK N   1      29.038  12.064   1.047  0.00  0.00    -0.361 OA
HETATM   36  H   UNK N   1      29.258  11.257   1.471  0.00  0.00     0.217 HD
ENDBRANCH  32  35
ENDBRANCH   5  29
TORSDOF 8
ENDMDL
MODEL 5
REMARK VINA RESULT:      -7.8      3.933      5.992
REMARK  8 active torsions:
REMARK  status: ('A' for Active; 'I' for Inactive)
REMARK    1  A    between atoms: O_1  and  C_2 
REMARK    2  A    between atoms: C_5  and  C_6 
REMARK    3  A    between atoms: C_6  and  C_7 
REMARK       I    between atoms: C_7  and  N_9 
REMARK    4  A    between atoms: N_9  and  C_10 
REMARK    5  A    between atoms: C_14  and  C_25 
REMARK    6  A    between atoms: C_17  and  C_18 
REMARK    7  A    between atoms: C_18  and  C_19 
REMARK    8  A    between atoms: C_28  and  O_29 
ROOT
HETATM    1  C   UNK N   1      22.102  13.678   5.112  0.00  0.00     0.131 A 
HETATM    2  N   UNK N   1      21.008  13.534   5.908  0.00  0.00    -0.348 N 
ATOM      3  HN  UNK N   1      20.085  13.727   5.519  1.00  0.00     0.167 HD
HETATM    4  C   UNK N   1      21.107  13.146   7.195  0.00  0.00     0.120 A 
HETATM    5  C   UNK N   1      22.357  12.876   7.742  0.00  0.00     0.058 A 
HETATM    6  N   UNK N   1      23.462  12.969   6.948  0.00  0.00    -0.354 N 
ATOM      7  HN  UNK N   1      24.375  12.747   7.344  1.00  0.00     0.166 HD
HETATM    8  C   UNK N   1      23.382  13.351   5.644  0.00  0.00     0.058 A 
ENDROOT
BRANCH   1   9
HETATM    9  N   UNK N   1      21.951  14.167   3.786  0.00  0.00    -0.311 N 
HETATM   10  C   UNK N   1      21.795  15.464   3.413  0.00  0.00     0.227 C 
HETATM   11  O   UNK N   1      21.672  15.726   2.228  0.00  0.00    -0.273 OA
HETATM   12  H   UNK N   1      21.959  13.496   3.065  0.00  0.00     0.170 HD
BRANCH  10  13
HETATM   13  C   UNK N   1      21.834  16.599   4.401  0.00  0.00     0.141 C 
BRANCH  13  14
HETATM   14  C   UNK N   1      21.664  17.952   3.776  0.00  0.00    -0.049 A 
HETATM   15  C   UNK N   1      20.379  18.373   3.414  0.00  0.00     0.010 A 
HETATM   16  C   UNK N   1      20.182  19.649   2.879  0.00  0.00     0.037 A 
HETATM   17  C   UNK N   1      21.269  20.510   2.703  0.00  0.00     0.065 A 
HETATM   18  C   UNK N   1      22.555  20.092   3.057  0.00  0.00     0.037 A 
HETATM   19  C   UNK N   1      22.752  18.820   3.600  0.00  0.00     0.010 A 
BRANCH  17  20
HETATM   20  O   UNK N   1      21.078  21.740   2.200  0.00  0.00    -0.361 OA
HETATM   21  H   UNK N   1      20.262  22.124   1.945  0.00  0.00     0.217 HD
ENDBRANCH  17  20
ENDBRANCH  13  14
ENDBRANCH  10  13
ENDBRANCH   1   9
BRANCH   8  22
HETATM   22  C   UNK N   1      24.695  13.461   4.882  0.00  0.00     0.099 C 
BRANCH  22  23
HETATM   23  C   UNK N   1      25.184  14.825   4.515  0.00  0.00    -0.052 A 
HETATM   24  C   UNK N   1      25.317  15.796   5.514  0.00  0.00     0.007 A 
HETATM   25  C   UNK N   1      25.725  17.091   5.184  0.00  0.00     0.001 A 
HETATM   26  C   UNK N   1      26.000  17.418   3.852  0.00  0.00     0.000 A 
HETATM   27  C   UNK N   1      25.882  16.446   2.853  0.00  0.00     0.001 A 
HETATM   28  C   UNK N   1      25.478  15.149   3.183  0.00  0.00     0.007 A 
ENDBRANCH  22  23
ENDBRANCH   8  22
BRANCH   5  29
HETATM   29  C   UNK N   1      22.487  12.644   9.194  0.00  0.00    -0.008 A 
HETATM   30  C   UNK N   1      23.743  12.335   9.744  0.00  0.00     0.016 A 
HETATM   31  C   UNK N   1      23.860  11.975  11.087  0.00  0.00     0.037 A 
HETATM   32  C   UNK N   1      22.721  11.910  11.890  0.00  0.00     0.065 A 
HETATM   33  C   UNK N   1      21.469  12.233  11.358  0.00  0.00     0.037 A 
HETATM   34  C   UNK N   1      21.351  12.596  10.013  0.00  0.00     0.016 A 
BRANCH  32  35
HETATM   35  O   UNK N   1      22.830  11.528  13.172  0.00  0.00    -0.361 OA
HETATM   36  H   UNK N   1      23.142  10.672  13.395  0.00  0.00     0.217 HD
ENDBRANCH  32  35
ENDBRANCH   5  29
TORSDOF 8
ENDMDL
MODEL 6
REMARK VINA RESULT:      -7.8      7.719     10.504
REMARK  8 active torsions:
REMARK  status: ('A' for Active; 'I' for Inactive)
REMARK    1  A    between atoms: O_1  and  C_2 
REMARK    2  A    between atoms: C_5  and  C_6 
REMARK    3  A    between atoms: C_6  and  C_7 
REMARK       I    between atoms: C_7  and  N_9 
REMARK    4  A    between atoms: N_9  and  C_10 
REMARK    5  A    between atoms: C_14  and  C_25 
REMARK    6  A    between atoms: C_17  and  C_18 
REMARK    7  A    between atoms: C_18  and  C_19 
REMARK    8  A    between atoms: C_28  and  O_29 
ROOT
HETATM    1  C   UNK N   1      29.493  15.339   4.747  0.00  0.00     0.131 A 
HETATM    2  N   UNK N   1      30.238  14.431   5.434  0.00  0.00    -0.348 N 
ATOM      3  HN  UNK N   1      30.030  13.439   5.326  1.00  0.00     0.167 HD
HETATM    4  C   UNK N   1      31.243  14.804   6.251  0.00  0.00     0.120 A 
HETATM    5  C   UNK N   1      31.544  16.153   6.408  0.00  0.00     0.058 A 
HETATM    6  N   UNK N   1      30.839  17.076   5.693  0.00  0.00    -0.354 N 
ATOM      7  HN  UNK N   1      31.077  18.063   5.790  1.00  0.00     0.166 HD
HETATM    8  C   UNK N   1      29.827  16.720   4.855  0.00  0.00     0.058 A 
ENDROOT
BRANCH   1   9
HETATM    9  N   UNK N   1      28.394  14.900   3.960  0.00  0.00    -0.311 N 
HETATM   10  C   UNK N   1      27.086  14.888   4.329  0.00  0.00     0.227 C 
HETATM   11  O   UNK N   1      26.254  14.474   3.539  0.00  0.00    -0.273 OA
HETATM   12  H   UNK N   1      28.602  14.570   3.056  0.00  0.00     0.170 HD
BRANCH  10  13
HETATM   13  C   UNK N   1      26.615  15.429   5.653  0.00  0.00     0.141 C 
BRANCH  13  14
HETATM   14  C   UNK N   1      25.274  16.096   5.591  0.00  0.00    -0.049 A 
HETATM   15  C   UNK N   1      24.188  15.492   6.236  0.00  0.00     0.010 A 
HETATM   16  C   UNK N   1      22.937  16.117   6.241  0.00  0.00     0.037 A 
HETATM   17  C   UNK N   1      22.767  17.348   5.602  0.00  0.00     0.065 A 
HETATM   18  C   UNK N   1      23.846  17.952   4.951  0.00  0.00     0.037 A 
HETATM   19  C   UNK N   1      25.098  17.332   4.952  0.00  0.00     0.010 A 
BRANCH  17  20
HETATM   20  O   UNK N   1      21.568  17.954   5.617  0.00  0.00    -0.361 OA
HETATM   21  H   UNK N   1      21.084  18.225   6.372  0.00  0.00     0.217 HD
ENDBRANCH  17  20
ENDBRANCH  13  14
ENDBRANCH  10  13
ENDBRANCH   1   9
BRANCH   8  22
HETATM   22  C   UNK N   1      29.089  17.851   4.153  0.00  0.00     0.099 C 
BRANCH  22  23
HETATM   23  C   UNK N   1      28.336  18.829   4.996  0.00  0.00    -0.052 A 
HETATM   24  C   UNK N   1      27.705  19.917   4.384  0.00  0.00     0.007 A 
HETATM   25  C   UNK N   1      27.038  20.869   5.160  0.00  0.00     0.001 A 
HETATM   26  C   UNK N   1      27.002  20.734   6.551  0.00  0.00     0.000 A 
HETATM   27  C   UNK N   1      27.619  19.640   7.165  0.00  0.00     0.001 A 
HETATM   28  C   UNK N   1      28.282  18.684   6.390  0.00  0.00     0.007 A 
ENDBRANCH  22  23
ENDBRANCH   8  22
BRANCH   5  29
HETATM   29  C   UNK N   1      32.505  16.574   7.445  0.00  0.00    -0.008 A 
HETATM   30  C   UNK N   1      33.208  17.784   7.300  0.00  0.00     0.016 A 
HETATM   31  C   UNK N   1      34.219  18.128   8.196  0.00  0.00     0.037 A 
HETATM   32  C   UNK N   1      34.547  17.263   9.241  0.00  0.00     0.065 A 
HETATM   33  C   UNK N   1      33.842  16.066   9.406  0.00  0.00     0.037 A 
HETATM   34  C   UNK N   1      32.826  15.721   8.509  0.00  0.00     0.016 A 
BRANCH  32  35
HETATM   35  O   UNK N   1      35.546  17.577  10.080  0.00  0.00    -0.361 OA
HETATM   36  H   UNK N   1      35.368  17.851  10.959  0.00  0.00     0.217 HD
ENDBRANCH  32  35
ENDBRANCH   5  29
TORSDOF 8
ENDMDL
MODEL 7
REMARK VINA RESULT:      -7.8     12.831     17.009
REMARK  8 active torsions:
REMARK  status: ('A' for Active; 'I' for Inactive)
REMARK    1  A    between atoms: O_1  and  C_2 
REMARK    2  A    between atoms: C_5  and  C_6 
REMARK    3  A    between atoms: C_6  and  C_7 
REMARK       I    between atoms: C_7  and  N_9 
REMARK    4  A    between atoms: N_9  and  C_10 
REMARK    5  A    between atoms: C_14  and  C_25 
REMARK    6  A    between atoms: C_17  and  C_18 
REMARK    7  A    between atoms: C_18  and  C_19 
REMARK    8  A    between atoms: C_28  and  O_29 
ROOT
HETATM    1  C   UNK N   1      36.490  13.965  11.943  0.00  0.00     0.131 A 
HETATM    2  N   UNK N   1      36.244  15.293  12.106  0.00  0.00    -0.348 N 
ATOM      3  HN  UNK N   1      36.701  15.790  12.870  1.00  0.00     0.167 HD
HETATM    4  C   UNK N   1      35.415  15.971  11.288  0.00  0.00     0.120 A 
HETATM    5  C   UNK N   1      34.785  15.311  10.238  0.00  0.00     0.058 A 
HETATM    6  N   UNK N   1      35.054  13.990  10.030  0.00  0.00    -0.354 N 
ATOM      7  HN  UNK N   1      34.611  13.513   9.245  1.00  0.00     0.166 HD
HETATM    8  C   UNK N   1      35.896  13.289  10.839  0.00  0.00     0.058 A 
ENDROOT
BRANCH   1   9
HETATM    9  N   UNK N   1      37.309  13.279  12.880  0.00  0.00    -0.311 N 
HETATM   10  C   UNK N   1      36.956  12.886  14.133  0.00  0.00     0.227 C 
HETATM   11  O   UNK N   1      37.778  12.307  14.823  0.00  0.00    -0.273 OA
HETATM   12  H   UNK N   1      38.227  13.068  12.592  0.00  0.00     0.170 HD
BRANCH  10  13
HETATM   13  C   UNK N   1      35.566  13.080  14.677  0.00  0.00     0.141 C 
BRANCH  13  14
HETATM   14  C   UNK N   1      35.482  12.982  16.171  0.00  0.00    -0.049 A 
HETATM   15  C   UNK N   1      35.494  14.159  16.928  0.00  0.00     0.010 A 
HETATM   16  C   UNK N   1      35.364  14.103  18.319  0.00  0.00     0.037 A 
HETATM   17  C   UNK N   1      35.220  12.868  18.959  0.00  0.00     0.065 A 
HETATM   18  C   UNK N   1      35.214  11.690  18.209  0.00  0.00     0.037 A 
HETATM   19  C   UNK N   1      35.336  11.745  16.817  0.00  0.00     0.010 A 
BRANCH  17  20
HETATM   20  O   UNK N   1      35.083  12.815  20.293  0.00  0.00    -0.361 OA
HETATM   21  H   UNK N   1      34.282  12.838  20.778  0.00  0.00     0.217 HD
ENDBRANCH  17  20
ENDBRANCH  13  14
ENDBRANCH  10  13
ENDBRANCH   1   9
BRANCH   8  22
HETATM   22  C   UNK N   1      36.072  11.810  10.526  0.00  0.00     0.099 C 
BRANCH  22  23
HETATM   23  C   UNK N   1      35.775  10.822  11.607  0.00  0.00    -0.052 A 
HETATM   24  C   UNK N   1      36.758   9.899  11.981  0.00  0.00     0.007 A 
HETATM   25  C   UNK N   1      36.482   8.936  12.954  0.00  0.00     0.001 A 
HETATM   26  C   UNK N   1      35.221   8.893  13.557  0.00  0.00     0.000 A 
HETATM   27  C   UNK N   1      34.240   9.824  13.197  0.00  0.00     0.001 A 
HETATM   28  C   UNK N   1      34.516  10.791  12.226  0.00  0.00     0.007 A 
ENDBRANCH  22  23
ENDBRANCH   8  22
BRANCH   5  29
HETATM   29  C   UNK N   1      33.732  15.998   9.466  0.00  0.00    -0.008 A 
HETATM   30  C   UNK N   1      32.528  15.332   9.176  0.00  0.00     0.016 A 
HETATM   31  C   UNK N   1      31.583  15.913   8.331  0.00  0.00     0.037 A 
HETATM   32  C   UNK N   1      31.834  17.160   7.759  0.00  0.00     0.065 A 
HETATM   33  C   UNK N   1      33.020  17.840   8.056  0.00  0.00     0.037 A 
HETATM   34  C   UNK N   1      33.967  17.260   8.904  0.00  0.00     0.016 A 
BRANCH  32  35
HETATM   35  O   UNK N   1      30.940  17.701   6.916  0.00  0.00    -0.361 OA
HETATM   36  H   UNK N   1      30.818  18.630   6.875  0.00  0.00     0.217 HD
ENDBRANCH  32  35
ENDBRANCH   5  29
TORSDOF 8
ENDMDL
MODEL 8
REMARK VINA RESULT:      -7.8      7.343     10.602
REMARK  8 active torsions:
REMARK  status: ('A' for Active; 'I' for Inactive)
REMARK    1  A    between atoms: O_1  and  C_2 
REMARK    2  A    between atoms: C_5  and  C_6 
REMARK    3  A    between atoms: C_6  and  C_7 
REMARK       I    between atoms: C_7  and  N_9 
REMARK    4  A    between atoms: N_9  and  C_10 
REMARK    5  A    between atoms: C_14  and  C_25 
REMARK    6  A    between atoms: C_17  and  C_18 
REMARK    7  A    between atoms: C_18  and  C_19 
REMARK    8  A    between atoms: C_28  and  O_29 
ROOT
HETATM    1  C   UNK N   1      29.008  16.481   2.983  0.00  0.00     0.131 A 
HETATM    2  N   UNK N   1      28.784  15.360   2.246  0.00  0.00    -0.348 N 
ATOM      3  HN  UNK N   1      29.578  14.884   1.817  1.00  0.00     0.167 HD
HETATM    4  C   UNK N   1      27.546  14.859   2.065  0.00  0.00     0.120 A 
HETATM    5  C   UNK N   1      26.452  15.493   2.644  0.00  0.00     0.058 A 
HETATM    6  N   UNK N   1      26.660  16.592   3.425  0.00  0.00    -0.354 N 
ATOM      7  HN  UNK N   1      25.859  17.041   3.870  1.00  0.00     0.166 HD
HETATM    8  C   UNK N   1      27.903  17.107   3.628  0.00  0.00     0.058 A 
ENDROOT
BRANCH   1   9
HETATM    9  N   UNK N   1      30.322  17.013   3.077  0.00  0.00    -0.311 N 
HETATM   10  C   UNK N   1      31.214  16.800   4.081  0.00  0.00     0.227 C 
HETATM   11  O   UNK N   1      32.308  17.334   4.021  0.00  0.00    -0.273 OA
HETATM   12  H   UNK N   1      30.616  17.597   2.341  0.00  0.00     0.170 HD
BRANCH  10  13
HETATM   13  C   UNK N   1      30.925  15.875   5.233  0.00  0.00     0.141 C 
BRANCH  13  14
HETATM   14  C   UNK N   1      31.692  16.203   6.480  0.00  0.00    -0.049 A 
HETATM   15  C   UNK N   1      32.735  15.358   6.875  0.00  0.00     0.010 A 
HETATM   16  C   UNK N   1      33.502  15.666   8.003  0.00  0.00     0.037 A 
HETATM   17  C   UNK N   1      33.229  16.821   8.740  0.00  0.00     0.065 A 
HETATM   18  C   UNK N   1      32.185  17.666   8.354  0.00  0.00     0.037 A 
HETATM   19  C   UNK N   1      31.423  17.363   7.222  0.00  0.00     0.010 A 
BRANCH  17  20
HETATM   20  O   UNK N   1      33.974  17.124   9.816  0.00  0.00    -0.361 OA
HETATM   21  H   UNK N   1      34.845  17.467   9.819  0.00  0.00     0.217 HD
ENDBRANCH  17  20
ENDBRANCH  13  14
ENDBRANCH  10  13
ENDBRANCH   1   9
BRANCH   8  22
HETATM   22  C   UNK N   1      27.992  18.365   4.481  0.00  0.00     0.099 C 
BRANCH  22  23
HETATM   23  C   UNK N   1      27.972  18.210   5.967  0.00  0.00    -0.052 A 
HETATM   24  C   UNK N   1      28.164  19.335   6.776  0.00  0.00     0.007 A 
HETATM   25  C   UNK N   1      28.198  19.202   8.167  0.00  0.00     0.001 A 
HETATM   26  C   UNK N   1      28.042  17.942   8.752  0.00  0.00     0.000 A 
HETATM   27  C   UNK N   1      27.836  16.816   7.947  0.00  0.00     0.001 A 
HETATM   28  C   UNK N   1      27.796  16.948   6.555  0.00  0.00     0.007 A 
ENDBRANCH  22  23
ENDBRANCH   8  22
BRANCH   5  29
HETATM   29  C   UNK N   1      25.084  15.066   2.289  0.00  0.00    -0.008 A 
HETATM   30  C   UNK N   1      24.855  14.382   1.083  0.00  0.00     0.016 A 
HETATM   31  C   UNK N   1      23.555  14.097   0.666  0.00  0.00     0.037 A 
HETATM   32  C   UNK N   1      22.470  14.501   1.445  0.00  0.00     0.065 A 
HETATM   33  C   UNK N   1      22.687  15.165   2.657  0.00  0.00     0.037 A 
HETATM   34  C   UNK N   1      23.990  15.450   3.077  0.00  0.00     0.016 A 
BRANCH  32  35
HETATM   35  O   UNK N   1      21.219  14.259   1.025  0.00  0.00    -0.361 OA
HETATM   36  H   UNK N   1      20.654  13.680   1.500  0.00  0.00     0.217 HD
ENDBRANCH  32  35
ENDBRANCH   5  29
TORSDOF 8
ENDMDL
MODEL 9
REMARK VINA RESULT:      -7.8     11.112     14.231
REMARK  8 active torsions:
REMARK  status: ('A' for Active; 'I' for Inactive)
REMARK    1  A    between atoms: O_1  and  C_2 
REMARK    2  A    between atoms: C_5  and  C_6 
REMARK    3  A    between atoms: C_6  and  C_7 
REMARK       I    between atoms: C_7  and  N_9 
REMARK    4  A    between atoms: N_9  and  C_10 
REMARK    5  A    between atoms: C_14  and  C_25 
REMARK    6  A    between atoms: C_17  and  C_18 
REMARK    7  A    between atoms: C_18  and  C_19 
REMARK    8  A    between atoms: C_28  and  O_29 
ROOT
HETATM    1  C   UNK N   1      34.726  15.890   9.208  0.00  0.00     0.131 A 
HETATM    2  N   UNK N   1      35.691  16.322  10.064  0.00  0.00    -0.348 N 
ATOM      3  HN  UNK N   1      36.276  17.112   9.791  1.00  0.00     0.167 HD
HETATM    4  C   UNK N   1      35.899  15.738  11.261  0.00  0.00     0.120 A 
HETATM    5  C   UNK N   1      35.109  14.662  11.652  0.00  0.00     0.058 A 
HETATM    6  N   UNK N   1      34.106  14.243  10.828  0.00  0.00    -0.354 N 
ATOM      7  HN  UNK N   1      33.512  13.469  11.127  1.00  0.00     0.166 HD
HETATM    8  C   UNK N   1      33.874  14.825   9.620  0.00  0.00     0.058 A 
ENDROOT
BRANCH   1   9
HETATM    9  N   UNK N   1      34.600  16.488   7.925  0.00  0.00    -0.311 N 
HETATM   10  C   UNK N   1      33.747  17.487   7.576  0.00  0.00     0.227 C 
HETATM   11  O   UNK N   1      33.755  17.894   6.427  0.00  0.00    -0.273 OA
HETATM   12  H   UNK N   1      35.191  16.142   7.217  0.00  0.00     0.170 HD
BRANCH  10  13
HETATM   13  C   UNK N   1      32.839  18.157   8.572  0.00  0.00     0.141 C 
BRANCH  13  14
HETATM   14  C   UNK N   1      31.382  17.891   8.337  0.00  0.00    -0.049 A 
HETATM   15  C   UNK N   1      30.436  18.577   9.108  0.00  0.00     0.010 A 
HETATM   16  C   UNK N   1      29.070  18.388   8.876  0.00  0.00     0.037 A 
HETATM   17  C   UNK N   1      28.644  17.514   7.873  0.00  0.00     0.065 A 
HETATM   18  C   UNK N   1      29.584  16.821   7.106  0.00  0.00     0.037 A 
HETATM   19  C   UNK N   1      30.950  17.014   7.330  0.00  0.00     0.010 A 
BRANCH  17  20
HETATM   20  O   UNK N   1      27.333  17.342   7.643  0.00  0.00    -0.361 OA
HETATM   21  H   UNK N   1      26.937  16.689   7.100  0.00  0.00     0.217 HD
ENDBRANCH  17  20
ENDBRANCH  13  14
ENDBRANCH  10  13
ENDBRANCH   1   9
BRANCH   8  22
HETATM   22  C   UNK N   1      32.754  14.231   8.777  0.00  0.00     0.099 C 
BRANCH  22  23
HETATM   23  C   UNK N   1      33.128  13.471   7.546  0.00  0.00    -0.052 A 
HETATM   24  C   UNK N   1      34.007  12.387   7.649  0.00  0.00     0.007 A 
HETATM   25  C   UNK N   1      34.406  11.696   6.502  0.00  0.00     0.001 A 
HETATM   26  C   UNK N   1      33.927  12.088   5.249  0.00  0.00     0.000 A 
HETATM   27  C   UNK N   1      33.037  13.162   5.143  0.00  0.00     0.001 A 
HETATM   28  C   UNK N   1      32.633  13.852   6.290  0.00  0.00     0.007 A 
ENDBRANCH  22  23
ENDBRANCH   8  22
BRANCH   5  29
HETATM   29  C   UNK N   1      35.458  13.899  12.866  0.00  0.00    -0.008 A 
HETATM   30  C   UNK N   1      34.813  12.680  13.137  0.00  0.00     0.016 A 
HETATM   31  C   UNK N   1      35.028  12.018  14.346  0.00  0.00     0.037 A 
HETATM   32  C   UNK N   1      35.882  12.572  15.300  0.00  0.00     0.065 A 
HETATM   33  C   UNK N   1      36.543  13.775  15.033  0.00  0.00     0.037 A 
HETATM   34  C   UNK N   1      36.331  14.439  13.821  0.00  0.00     0.016 A 
BRANCH  32  35
HETATM   35  O   UNK N   1      36.059  11.954  16.478  0.00  0.00    -0.361 OA
HETATM   36  H   UNK N   1      36.872  11.537  16.686  0.00  0.00     0.217 HD
ENDBRANCH  32  35
ENDBRANCH   5  29
TORSDOF 8
ENDMDL
