MODEL 1
REMARK VINA RESULT:      -5.6      0.000      0.000
REMARK  5 active torsions:
REMARK  status: ('A' for Active; 'I' for Inactive)
REMARK    1  A    between atoms: C_2  and  N_1 
REMARK    2  A    between atoms: C_2  and  C_3 
REMARK    3  A    between atoms: C_2  and  C_13 
REMARK    4  A    between atoms: C_3  and  N_4 
REMARK    5  A    between atoms: C_13  and  O_14 
ROOT
HETATM    1  N   UNK N   1      35.058  15.350  10.022  0.00  0.00    -0.306 N 
HETATM    2  C   UNK N   1      34.836  14.052  10.363  0.00  0.00     0.120 A 
HETATM    3  C   UNK N   1      35.286  13.536  11.576  0.00  0.00     0.094 A 
HETATM    4 Br   UNK N   1      34.982  11.696  11.994  0.00  0.00    -0.044 Br
HETATM    5  C   UNK N   1      35.964  14.381  12.453  0.00  0.00     0.268 A 
HETATM    6  O   UNK N   1      36.357  13.969  13.529  0.00  0.00    -0.267 OA
HETATM    7  N   UNK N   1      36.199  15.676  12.097  0.00  0.00    -0.274 N 
HETATM    8  C   UNK N   1      35.770  16.170  10.893  0.00  0.00     0.329 A 
HETATM    9  O   UNK N   1      36.032  17.323  10.607  0.00  0.00    -0.246 OA
HETATM   10  H   UNK N   1      36.686  16.267  12.715  0.00  0.00     0.173 HD
ENDROOT
BRANCH   1  11
HETATM   11  C   UNK N   1      34.525  15.764   8.710  0.00  0.00     0.168 C 
BRANCH  11  12
HETATM   12  C   UNK N   1      33.719  17.064   8.675  0.00  0.00     0.192 C 
BRANCH  12  13
HETATM   13  N   UNK N   1      32.376  16.799   8.183  0.00  0.00    -0.416 N 
HETATM   14  H   UNK N   1      31.765  16.831   7.366  0.00  0.00     0.150 HD
HETATM   15  H   UNK N   1      31.826  16.441   8.965  0.00  0.00     0.150 HD
ENDBRANCH  12  13
BRANCH  12  16
HETATM   16  C   UNK N   1      34.362  18.117   7.822  0.00  0.00     0.164 C 
HETATM   17  O   UNK N   1      34.284  18.074   6.603  0.00  0.00    -0.648 OA
BRANCH  16  18
HETATM   18  O   UNK N   1      35.046  19.116   8.409  0.00  0.00    -0.775 OA
HETATM   19  H   UNK N   1      35.768  18.933   8.978  0.00  0.00     0.167 HD
ENDBRANCH  16  18
ENDBRANCH  12  16
ENDBRANCH  11  12
ENDBRANCH   1  11
TORSDOF 5
ENDMDL
MODEL 2
REMARK VINA RESULT:      -5.6     15.094     16.673
REMARK  5 active torsions:
REMARK  status: ('A' for Active; 'I' for Inactive)
REMARK    1  A    between atoms: C_2  and  N_1 
REMARK    2  A    between atoms: C_2  and  C_3 
REMARK    3  A    between atoms: C_2  and  C_13 
REMARK    4  A    between atoms: C_3  and  N_4 
REMARK    5  A    between atoms: C_13  and  O_14 
ROOT
HETATM    1  N   UNK N   1      30.274  23.198  -3.735  0.00  0.00    -0.306 N 
HETATM    2  C   UNK N   1      29.405  23.494  -4.739  0.00  0.00     0.120 A 
HETATM    3  C   UNK N   1      28.078  23.823  -4.472  0.00  0.00     0.094 A 
HETATM    4 Br   UNK N   1      26.885  24.196  -5.919  0.00  0.00    -0.044 Br
HETATM    5  C   UNK N   1      27.649  23.857  -3.147  0.00  0.00     0.268 A 
HETATM    6  O   UNK N   1      26.501  24.157  -2.875  0.00  0.00    -0.267 OA
HETATM    7  N   UNK N   1      28.521  23.542  -2.147  0.00  0.00    -0.274 N 
HETATM    8  C   UNK N   1      29.820  23.200  -2.419  0.00  0.00     0.329 A 
HETATM    9  O   UNK N   1      30.550  22.896  -1.496  0.00  0.00    -0.246 OA
HETATM   10  H   UNK N   1      28.212  23.559  -1.213  0.00  0.00     0.173 HD
ENDROOT
BRANCH   1  11
HETATM   11  C   UNK N   1      31.648  22.871  -4.159  0.00  0.00     0.168 C 
BRANCH  11  12
HETATM   12  C   UNK N   1      32.043  21.393  -4.128  0.00  0.00     0.192 C 
BRANCH  12  13
HETATM   13  N   UNK N   1      30.894  20.581  -3.760  0.00  0.00    -0.416 N 
HETATM   14  H   UNK N   1      30.210  20.386  -3.028  0.00  0.00     0.150 HD
HETATM   15  H   UNK N   1      30.691  19.960  -4.545  0.00  0.00     0.150 HD
ENDBRANCH  12  13
BRANCH  12  16
HETATM   16  C   UNK N   1      33.170  21.119  -3.175  0.00  0.00     0.164 C 
HETATM   17  O   UNK N   1      34.300  20.900  -3.584  0.00  0.00    -0.648 OA
BRANCH  16  18
HETATM   18  O   UNK N   1      32.927  21.102  -1.852  0.00  0.00    -0.775 OA
HETATM   19  H   UNK N   1      33.212  20.383  -1.322  0.00  0.00     0.167 HD
ENDBRANCH  16  18
ENDBRANCH  12  16
ENDBRANCH  11  12
ENDBRANCH   1  11
TORSDOF 5
ENDMDL
MODEL 3
REMARK VINA RESULT:      -5.5      2.543      3.620
REMARK  5 active torsions:
REMARK  status: ('A' for Active; 'I' for Inactive)
REMARK    1  A    between atoms: C_2  and  N_1 
REMARK    2  A    between atoms: C_2  and  C_3 
REMARK    3  A    between atoms: C_2  and  C_13 
REMARK    4  A    between atoms: C_3  and  N_4 
REMARK    5  A    between atoms: C_13  and  O_14 
ROOT
HETATM    1  N   UNK N   1      35.830  12.891  11.874  0.00  0.00    -0.306 N 
HETATM    2  C   UNK N   1      34.979  12.287  12.748  0.00  0.00     0.120 A 
HETATM    3  C   UNK N   1      35.456  11.496  13.790  0.00  0.00     0.094 A 
HETATM    4 Br   UNK N   1      34.220  10.639  14.970  0.00  0.00    -0.044 Br
HETATM    5  C   UNK N   1      36.833  11.340  13.938  0.00  0.00     0.268 A 
HETATM    6  O   UNK N   1      37.285  10.670  14.849  0.00  0.00    -0.267 OA
HETATM    7  N   UNK N   1      37.679  11.933  13.049  0.00  0.00    -0.274 N 
HETATM    8  C   UNK N   1      37.201  12.694  12.013  0.00  0.00     0.329 A 
HETATM    9  O   UNK N   1      37.994  13.176  11.228  0.00  0.00    -0.246 OA
HETATM   10  H   UNK N   1      38.650  11.814  13.151  0.00  0.00     0.173 HD
ENDROOT
BRANCH   1  11
HETATM   11  C   UNK N   1      35.191  13.700  10.820  0.00  0.00     0.168 C 
BRANCH  11  12
HETATM   12  C   UNK N   1      34.641  15.065  11.239  0.00  0.00     0.192 C 
BRANCH  12  13
HETATM   13  N   UNK N   1      33.312  15.257  10.680  0.00  0.00    -0.416 N 
HETATM   14  H   UNK N   1      32.338  14.956  10.724  0.00  0.00     0.150 HD
HETATM   15  H   UNK N   1      33.381  15.975   9.959  0.00  0.00     0.150 HD
ENDBRANCH  12  13
BRANCH  12  16
HETATM   16  C   UNK N   1      35.528  16.198  10.813  0.00  0.00     0.164 C 
HETATM   17  O   UNK N   1      35.056  17.235  10.374  0.00  0.00    -0.648 OA
BRANCH  16  18
HETATM   18  O   UNK N   1      36.863  16.062  10.906  0.00  0.00    -0.775 OA
HETATM   19  H   UNK N   1      37.396  16.026  10.135  0.00  0.00     0.167 HD
ENDBRANCH  16  18
ENDBRANCH  12  16
ENDBRANCH  11  12
ENDBRANCH   1  11
TORSDOF 5
ENDMDL
MODEL 4
REMARK VINA RESULT:      -5.4     16.419     16.912
REMARK  5 active torsions:
REMARK  status: ('A' for Active; 'I' for Inactive)
REMARK    1  A    between atoms: C_2  and  N_1 
REMARK    2  A    between atoms: C_2  and  C_3 
REMARK    3  A    between atoms: C_2  and  C_13 
REMARK    4  A    between atoms: C_3  and  N_4 
REMARK    5  A    between atoms: C_13  and  O_14 
ROOT
HETATM    1  N   UNK N   1      20.025  17.090   2.109  0.00  0.00    -0.306 N 
HETATM    2  C   UNK N   1      20.050  16.339   3.243  0.00  0.00     0.120 A 
HETATM    3  C   UNK N   1      20.426  14.999   3.214  0.00  0.00     0.094 A 
HETATM    4 Br   UNK N   1      20.411  13.975   4.828  0.00  0.00    -0.044 Br
HETATM    5  C   UNK N   1      20.795  14.432   1.995  0.00  0.00     0.268 A 
HETATM    6  O   UNK N   1      21.146  13.268   1.935  0.00  0.00    -0.267 OA
HETATM    7  N   UNK N   1      20.750  15.186   0.860  0.00  0.00    -0.274 N 
HETATM    8  C   UNK N   1      20.359  16.499   0.894  0.00  0.00     0.329 A 
HETATM    9  O   UNK N   1      20.305  17.120  -0.150  0.00  0.00    -0.246 OA
HETATM   10  H   UNK N   1      21.002  14.780  -0.001  0.00  0.00     0.173 HD
ENDROOT
BRANCH   1  11
HETATM   11  C   UNK N   1      19.609  18.494   2.284  0.00  0.00     0.168 C 
BRANCH  11  12
HETATM   12  C   UNK N   1      20.726  19.534   2.391  0.00  0.00     0.192 C 
BRANCH  12  13
HETATM   13  N   UNK N   1      20.553  20.324   3.600  0.00  0.00    -0.416 N 
HETATM   14  H   UNK N   1      20.003  21.059   4.044  0.00  0.00     0.150 HD
HETATM   15  H   UNK N   1      21.264  20.025   4.268  0.00  0.00     0.150 HD
ENDBRANCH  12  13
BRANCH  12  16
HETATM   16  C   UNK N   1      20.777  20.448   1.202  0.00  0.00     0.164 C 
HETATM   17  O   UNK N   1      20.905  21.655   1.342  0.00  0.00    -0.648 OA
BRANCH  16  18
HETATM   18  O   UNK N   1      20.667  19.930  -0.034  0.00  0.00    -0.775 OA
HETATM   19  H   UNK N   1      21.399  19.925  -0.619  0.00  0.00     0.167 HD
ENDBRANCH  16  18
ENDBRANCH  12  16
ENDBRANCH  11  12
ENDBRANCH   1  11
TORSDOF 5
ENDMDL
MODEL 5
REMARK VINA RESULT:      -5.3      1.957      2.396
REMARK  5 active torsions:
REMARK  status: ('A' for Active; 'I' for Inactive)
REMARK    1  A    between atoms: C_2  and  N_1 
REMARK    2  A    between atoms: C_2  and  C_3 
REMARK    3  A    between atoms: C_2  and  C_13 
REMARK    4  A    between atoms: C_3  and  N_4 
REMARK    5  A    between atoms: C_13  and  O_14 
ROOT
HETATM    1  N   UNK N   1      35.067  14.860  10.084  0.00  0.00    -0.306 N 
HETATM    2  C   UNK N   1      35.682  15.033  11.285  0.00  0.00     0.120 A 
HETATM    3  C   UNK N   1      35.568  14.084  12.298  0.00  0.00     0.094 A 
HETATM    4 Br   UNK N   1      36.420  14.389  13.982  0.00  0.00    -0.044 Br
HETATM    5  C   UNK N   1      34.818  12.934  12.059  0.00  0.00     0.268 A 
HETATM    6  O   UNK N   1      34.710  12.076  12.915  0.00  0.00    -0.267 OA
HETATM    7  N   UNK N   1      34.190  12.776  10.859  0.00  0.00    -0.274 N 
HETATM    8  C   UNK N   1      34.290  13.724   9.874  0.00  0.00     0.329 A 
HETATM    9  O   UNK N   1      33.686  13.552   8.833  0.00  0.00    -0.246 OA
HETATM   10  H   UNK N   1      33.654  11.967  10.696  0.00  0.00     0.173 HD
ENDROOT
BRANCH   1  11
HETATM   11  C   UNK N   1      35.274  15.941   9.102  0.00  0.00     0.168 C 
BRANCH  11  12
HETATM   12  C   UNK N   1      34.362  17.164   9.224  0.00  0.00     0.192 C 
BRANCH  12  13
HETATM   13  N   UNK N   1      32.974  16.766   9.049  0.00  0.00    -0.416 N 
HETATM   14  H   UNK N   1      32.061  16.706   9.499  0.00  0.00     0.150 HD
HETATM   15  H   UNK N   1      32.875  16.403   8.100  0.00  0.00     0.150 HD
ENDBRANCH  12  13
BRANCH  12  16
HETATM   16  C   UNK N   1      34.702  18.236   8.231  0.00  0.00     0.164 C 
HETATM   17  O   UNK N   1      35.295  19.247   8.575  0.00  0.00    -0.648 OA
BRANCH  16  18
HETATM   18  O   UNK N   1      34.335  18.085   6.946  0.00  0.00    -0.775 OA
HETATM   19  H   UNK N   1      34.676  18.651   6.280  0.00  0.00     0.167 HD
ENDBRANCH  16  18
ENDBRANCH  12  16
ENDBRANCH  11  12
ENDBRANCH   1  11
TORSDOF 5
ENDMDL
MODEL 6
REMARK VINA RESULT:      -5.3      5.590      7.727
REMARK  5 active torsions:
REMARK  status: ('A' for Active; 'I' for Inactive)
REMARK    1  A    between atoms: C_2  and  N_1 
REMARK    2  A    between atoms: C_2  and  C_3 
REMARK    3  A    between atoms: C_2  and  C_13 
REMARK    4  A    between atoms: C_3  and  N_4 
REMARK    5  A    between atoms: C_13  and  O_14 
ROOT
HETATM    1  N   UNK N   1      35.177  12.803  17.158  0.00  0.00    -0.306 N 
HETATM    2  C   UNK N   1      35.141  11.443  17.189  0.00  0.00     0.120 A 
HETATM    3  C   UNK N   1      35.223  10.746  18.392  0.00  0.00     0.094 A 
HETATM    4 Br   UNK N   1      35.204   8.835  18.382  0.00  0.00    -0.044 Br
HETATM    5  C   UNK N   1      35.330  11.467  19.580  0.00  0.00     0.268 A 
HETATM    6  O   UNK N   1      35.386  10.891  20.651  0.00  0.00    -0.267 OA
HETATM    7  N   UNK N   1      35.385  12.829  19.539  0.00  0.00    -0.274 N 
HETATM    8  C   UNK N   1      35.324  13.508  18.350  0.00  0.00     0.329 A 
HETATM    9  O   UNK N   1      35.408  14.720  18.364  0.00  0.00    -0.246 OA
HETATM   10  H   UNK N   1      35.469  13.335  20.379  0.00  0.00     0.173 HD
ENDROOT
BRANCH   1  11
HETATM   11  C   UNK N   1      35.079  13.412  15.819  0.00  0.00     0.168 C 
BRANCH  11  12
HETATM   12  C   UNK N   1      36.369  13.477  14.997  0.00  0.00     0.192 C 
BRANCH  12  13
HETATM   13  N   UNK N   1      37.216  14.552  15.491  0.00  0.00    -0.416 N 
HETATM   14  H   UNK N   1      38.082  15.069  15.336  0.00  0.00     0.150 HD
HETATM   15  H   UNK N   1      36.767  14.942  16.320  0.00  0.00     0.150 HD
ENDBRANCH  12  13
BRANCH  12  16
HETATM   16  C   UNK N   1      36.109  13.681  13.534  0.00  0.00     0.164 C 
HETATM   17  O   UNK N   1      34.971  13.805  13.108  0.00  0.00    -0.648 OA
BRANCH  16  18
HETATM   18  O   UNK N   1      37.147  13.714  12.678  0.00  0.00    -0.775 OA
HETATM   19  H   UNK N   1      37.825  13.068  12.720  0.00  0.00     0.167 HD
ENDBRANCH  16  18
ENDBRANCH  12  16
ENDBRANCH  11  12
ENDBRANCH   1  11
TORSDOF 5
ENDMDL
MODEL 7
REMARK VINA RESULT:      -5.3      1.915      2.199
REMARK  5 active torsions:
REMARK  status: ('A' for Active; 'I' for Inactive)
REMARK    1  A    between atoms: C_2  and  N_1 
REMARK    2  A    between atoms: C_2  and  C_3 
REMARK    3  A    between atoms: C_2  and  C_13 
REMARK    4  A    between atoms: C_3  and  N_4 
REMARK    5  A    between atoms: C_13  and  O_14 
ROOT
HETATM    1  N   UNK N   1      34.913  15.141   9.133  0.00  0.00    -0.306 N 
HETATM    2  C   UNK N   1      34.974  15.054  10.490  0.00  0.00     0.120 A 
HETATM    3  C   UNK N   1      36.038  14.420  11.126  0.00  0.00     0.094 A 
HETATM    4 Br   UNK N   1      36.061  14.291  13.033  0.00  0.00    -0.044 Br
HETATM    5  C   UNK N   1      37.060  13.880  10.346  0.00  0.00     0.268 A 
HETATM    6  O   UNK N   1      38.014  13.333  10.869  0.00  0.00    -0.267 OA
HETATM    7  N   UNK N   1      36.983  13.955   8.987  0.00  0.00    -0.274 N 
HETATM    8  C   UNK N   1      35.922  14.563   8.368  0.00  0.00     0.329 A 
HETATM    9  O   UNK N   1      35.884  14.576   7.153  0.00  0.00    -0.246 OA
HETATM   10  H   UNK N   1      37.702  13.565   8.440  0.00  0.00     0.173 HD
ENDROOT
BRANCH   1  11
HETATM   11  C   UNK N   1      33.733  15.841   8.593  0.00  0.00     0.168 C 
BRANCH  11  12
HETATM   12  C   UNK N   1      33.625  17.339   8.890  0.00  0.00     0.192 C 
BRANCH  12  13
HETATM   13  N   UNK N   1      32.240  17.768   8.775  0.00  0.00    -0.416 N 
HETATM   14  H   UNK N   1      31.479  17.961   8.124  0.00  0.00     0.150 HD
HETATM   15  H   UNK N   1      31.893  17.946   9.718  0.00  0.00     0.150 HD
ENDBRANCH  12  13
BRANCH  12  16
HETATM   16  C   UNK N   1      34.481  18.169   7.980  0.00  0.00     0.164 C 
HETATM   17  O   UNK N   1      34.507  17.959   6.777  0.00  0.00    -0.648 OA
BRANCH  16  18
HETATM   18  O   UNK N   1      35.239  19.151   8.500  0.00  0.00    -0.775 OA
HETATM   19  H   UNK N   1      35.055  19.499   9.351  0.00  0.00     0.167 HD
ENDBRANCH  16  18
ENDBRANCH  12  16
ENDBRANCH  11  12
ENDBRANCH   1  11
TORSDOF 5
ENDMDL
MODEL 8
REMARK VINA RESULT:      -5.3      3.609      6.308
REMARK  5 active torsions:
REMARK  status: ('A' for Active; 'I' for Inactive)
REMARK    1  A    between atoms: C_2  and  N_1 
REMARK    2  A    between atoms: C_2  and  C_3 
REMARK    3  A    between atoms: C_2  and  C_13 
REMARK    4  A    between atoms: C_3  and  N_4 
REMARK    5  A    between atoms: C_13  and  O_14 
ROOT
HETATM    1  N   UNK N   1      32.543  17.164   7.255  0.00  0.00    -0.306 N 
HETATM    2  C   UNK N   1      31.347  16.764   6.743  0.00  0.00     0.120 A 
HETATM    3  C   UNK N   1      31.109  16.775   5.371  0.00  0.00     0.094 A 
HETATM    4 Br   UNK N   1      29.401  16.238   4.702  0.00  0.00    -0.044 Br
HETATM    5  C   UNK N   1      32.128  17.193   4.517  0.00  0.00     0.268 A 
HETATM    6  O   UNK N   1      31.961  17.199   3.311  0.00  0.00    -0.267 OA
HETATM    7  N   UNK N   1      33.317  17.610   5.038  0.00  0.00    -0.274 N 
HETATM    8  C   UNK N   1      33.536  17.615   6.390  0.00  0.00     0.329 A 
HETATM    9  O   UNK N   1      34.602  18.026   6.808  0.00  0.00    -0.246 OA
HETATM   10  H   UNK N   1      34.031  17.913   4.432  0.00  0.00     0.173 HD
ENDROOT
BRANCH   1  11
HETATM   11  C   UNK N   1      32.659  17.099   8.724  0.00  0.00     0.168 C 
BRANCH  11  12
HETATM   12  C   UNK N   1      33.569  16.009   9.294  0.00  0.00     0.192 C 
BRANCH  12  13
HETATM   13  N   UNK N   1      32.802  15.130  10.163  0.00  0.00    -0.416 N 
HETATM   14  H   UNK N   1      32.621  14.158  10.416  0.00  0.00     0.150 HD
HETATM   15  H   UNK N   1      32.209  15.717  10.750  0.00  0.00     0.150 HD
ENDBRANCH  12  13
BRANCH  12  16
HETATM   16  C   UNK N   1      34.732  16.570  10.057  0.00  0.00     0.164 C 
HETATM   17  O   UNK N   1      35.175  15.997  11.040  0.00  0.00    -0.648 OA
BRANCH  16  18
HETATM   18  O   UNK N   1      35.287  17.729   9.657  0.00  0.00    -0.775 OA
HETATM   19  H   UNK N   1      35.395  18.441  10.256  0.00  0.00     0.167 HD
ENDBRANCH  16  18
ENDBRANCH  12  16
ENDBRANCH  11  12
ENDBRANCH   1  11
TORSDOF 5
ENDMDL
MODEL 9
REMARK VINA RESULT:      -5.3      2.531      5.255
REMARK  5 active torsions:
REMARK  status: ('A' for Active; 'I' for Inactive)
REMARK    1  A    between atoms: C_2  and  N_1 
REMARK    2  A    between atoms: C_2  and  C_3 
REMARK    3  A    between atoms: C_2  and  C_13 
REMARK    4  A    between atoms: C_3  and  N_4 
REMARK    5  A    between atoms: C_13  and  O_14 
ROOT
HETATM    1  N   UNK N   1      34.163  15.815   9.611  0.00  0.00    -0.306 N 
HETATM    2  C   UNK N   1      33.431  15.379   8.549  0.00  0.00     0.120 A 
HETATM    3  C   UNK N   1      33.384  16.101   7.359  0.00  0.00     0.094 A 
HETATM    4 Br   UNK N   1      32.312  15.468   5.909  0.00  0.00    -0.044 Br
HETATM    5  C   UNK N   1      34.116  17.283   7.263  0.00  0.00     0.268 A 
HETATM    6  O   UNK N   1      34.112  17.931   6.232  0.00  0.00    -0.267 OA
HETATM    7  N   UNK N   1      34.832  17.723   8.337  0.00  0.00    -0.274 N 
HETATM    8  C   UNK N   1      34.857  17.017   9.511  0.00  0.00     0.329 A 
HETATM    9  O   UNK N   1      35.485  17.466  10.450  0.00  0.00    -0.246 OA
HETATM   10  H   UNK N   1      35.341  18.563   8.268  0.00  0.00     0.173 HD
ENDROOT
BRANCH   1  11
HETATM   11  C   UNK N   1      34.125  14.952  10.806  0.00  0.00     0.168 C 
BRANCH  11  12
HETATM   12  C   UNK N   1      35.146  13.814  10.866  0.00  0.00     0.192 C 
BRANCH  12  13
HETATM   13  N   UNK N   1      34.491  12.583  11.277  0.00  0.00    -0.416 N 
HETATM   14  H   UNK N   1      33.787  11.888  11.025  0.00  0.00     0.150 HD
HETATM   15  H   UNK N   1      34.893  12.303  12.172  0.00  0.00     0.150 HD
ENDBRANCH  12  13
BRANCH  12  16
HETATM   16  C   UNK N   1      36.283  14.109  11.800  0.00  0.00     0.164 C 
HETATM   17  O   UNK N   1      37.054  13.229  12.150  0.00  0.00    -0.648 OA
BRANCH  16  18
HETATM   18  O   UNK N   1      36.445  15.360  12.267  0.00  0.00    -0.775 OA
HETATM   19  H   UNK N   1      36.803  16.033  11.722  0.00  0.00     0.167 HD
ENDBRANCH  16  18
ENDBRANCH  12  16
ENDBRANCH  11  12
ENDBRANCH   1  11
TORSDOF 5
ENDMDL
