MODEL 1
REMARK VINA RESULT:      -8.1      0.000      0.000
REMARK  8 active torsions:
REMARK  status: ('A' for Active; 'I' for Inactive)
REMARK    1  A    between atoms: C_20  and  C_17 
REMARK    2  A    between atoms: C_26  and  C_17 
REMARK    3  A    between atoms: C_21  and  C_18 
REMARK    4  A    between atoms: C_30  and  C_18 
REMARK    5  A    between atoms: C_27  and  C_23 
REMARK    6  A    between atoms: O_35  and  C_25 
REMARK    7  A    between atoms: C_30  and  O_38 
REMARK    8  A    between atoms: O_38  and  O_37 
ROOT
HETATM    1  C   UNK N   1      28.605  20.889  -8.972  0.00  0.00     0.131 C 
HETATM    2  C   UNK N   1      29.181  22.428  -6.616  0.00  0.00     0.154 C 
HETATM    3  C   UNK N   1      29.657  20.534  -8.186  0.00  0.00     0.055 C 
HETATM    4  C   UNK N   1      27.831  22.379  -7.195  0.00  0.00     0.112 A 
HETATM    5  C   UNK N   1      26.456  22.137  -8.876  0.00  0.00     0.288 A 
HETATM    6  C   UNK N   1      25.716  22.857  -7.760  0.00  0.00     0.255 A 
HETATM    7  N   UNK N   1      29.836  21.169  -6.910  0.00  0.00    -0.376 N 
HETATM    8  N   UNK N   1      26.779  22.964  -6.765  0.00  0.00    -0.336 N 
ATOM      9  HN  UNK N   1      26.696  23.433  -5.863  1.00  0.00     0.164 HD
HETATM   10  N   UNK N   1      27.670  21.821  -8.446  0.00  0.00    -0.274 N 
HETATM   11  O   UNK N   1      25.991  21.780  -9.948  0.00  0.00    -0.267 OA
HETATM   12  H   UNK N   1      30.407  20.746  -6.229  0.00  0.00     0.160 HD
ENDROOT
BRANCH   6  13
HETATM   13  C   UNK N   1      25.296  24.309  -8.129  0.00  0.00     0.113 C 
BRANCH  13  14
HETATM   14  C   UNK N   1      26.012  25.461  -7.476  0.00  0.00    -0.052 A 
HETATM   15  C   UNK N   1      27.024  26.147  -8.163  0.00  0.00     0.008 A 
HETATM   16  C   UNK N   1      27.556  27.331  -7.623  0.00  0.00     0.013 A 
HETATM   17  C   UNK N   1      27.058  27.830  -6.410  0.00  0.00    -0.026 A 
HETATM   18  C   UNK N   1      27.479  29.061  -5.905  0.00  0.00     0.012 A 
HETATM   19  C   UNK N   1      26.083  27.100  -5.708  0.00  0.00    -0.025 A 
HETATM   20  C   UNK N   1      26.919  29.554  -4.717  0.00  0.00     0.001 A 
HETATM   21  C   UNK N   1      25.961  28.809  -4.019  0.00  0.00     0.001 A 
HETATM   22  C   UNK N   1      25.547  27.577  -4.515  0.00  0.00     0.012 A 
HETATM   23  C   UNK N   1      25.590  25.939  -6.241  0.00  0.00     0.019 A 
ENDBRANCH  13  14
ENDBRANCH   6  13
BRANCH   6  24
HETATM   24  O   UNK N   1      24.668  22.034  -7.282  0.00  0.00    -0.199 OA
BRANCH  24  25
HETATM   25  O   UNK N   1      23.672  22.065  -8.151  0.00  0.00    -0.247 OA
HETATM   26  H   UNK N   1      22.974  21.428  -8.371  0.00  0.00     0.253 HD
ENDBRANCH  24  25
ENDBRANCH   6  24
BRANCH   2  27
HETATM   27  C   UNK N   1      29.311  22.838  -5.151  0.00  0.00     0.071 C 
BRANCH  27  28
HETATM   28  C   UNK N   1      29.563  24.316  -5.081  0.00  0.00    -0.056 A 
HETATM   29  C   UNK N   1      30.446  24.914  -5.986  0.00  0.00     0.007 A 
HETATM   30  C   UNK N   1      30.750  26.275  -5.868  0.00  0.00     0.001 A 
HETATM   31  C   UNK N   1      30.188  27.032  -4.836  0.00  0.00     0.000 A 
HETATM   32  C   UNK N   1      29.310  26.436  -3.927  0.00  0.00     0.001 A 
HETATM   33  C   UNK N   1      28.995  25.083  -4.052  0.00  0.00     0.007 A 
ENDBRANCH  27  28
ENDBRANCH   2  27
BRANCH   3  34
HETATM   34  C   UNK N   1      30.570  19.447  -8.578  0.00  0.00    -0.008 A 
HETATM   35  C   UNK N   1      31.930  19.488  -8.237  0.00  0.00     0.016 A 
HETATM   36  C   UNK N   1      32.784  18.455  -8.632  0.00  0.00     0.037 A 
HETATM   37  C   UNK N   1      32.281  17.372  -9.357  0.00  0.00     0.065 A 
HETATM   38  C   UNK N   1      30.929  17.328  -9.705  0.00  0.00     0.037 A 
HETATM   39  C   UNK N   1      30.079  18.367  -9.325  0.00  0.00     0.016 A 
BRANCH  37  40
HETATM   40  O   UNK N   1      33.099  16.370  -9.717  0.00  0.00    -0.361 OA
HETATM   41  H   UNK N   1      33.101  16.063 -10.602  0.00  0.00     0.217 HD
ENDBRANCH  37  40
ENDBRANCH   3  34
TORSDOF 8
ENDMDL
MODEL 2
REMARK VINA RESULT:      -8.1     13.207     16.247
REMARK  8 active torsions:
REMARK  status: ('A' for Active; 'I' for Inactive)
REMARK    1  A    between atoms: C_20  and  C_17 
REMARK    2  A    between atoms: C_26  and  C_17 
REMARK    3  A    between atoms: C_21  and  C_18 
REMARK    4  A    between atoms: C_30  and  C_18 
REMARK    5  A    between atoms: C_27  and  C_23 
REMARK    6  A    between atoms: O_35  and  C_25 
REMARK    7  A    between atoms: C_30  and  O_38 
REMARK    8  A    between atoms: O_38  and  O_37 
ROOT
HETATM    1  C   UNK N   1      27.151  19.261   5.944  0.00  0.00     0.131 C 
HETATM    2  C   UNK N   1      28.680  17.171   4.699  0.00  0.00     0.154 C 
HETATM    3  C   UNK N   1      26.710  18.719   4.777  0.00  0.00     0.055 C 
HETATM    4  C   UNK N   1      28.753  17.426   6.145  0.00  0.00     0.112 A 
HETATM    5  C   UNK N   1      28.613  18.738   7.887  0.00  0.00     0.288 A 
HETATM    6  C   UNK N   1      29.430  17.517   8.279  0.00  0.00     0.255 A 
HETATM    7  N   UNK N   1      27.354  17.547   4.250  0.00  0.00    -0.376 N 
HETATM    8  N   UNK N   1      29.452  16.796   7.011  0.00  0.00    -0.336 N 
ATOM      9  HN  UNK N   1      29.949  15.921   6.840  1.00  0.00     0.164 HD
HETATM   10  N   UNK N   1      28.185  18.581   6.641  0.00  0.00    -0.274 N 
HETATM   11  O   UNK N   1      28.279  19.658   8.618  0.00  0.00    -0.267 OA
HETATM   12  H   UNK N   1      26.891  16.995   3.580  0.00  0.00     0.160 HD
ENDROOT
BRANCH   6  13
HETATM   13  C   UNK N   1      30.907  17.848   8.636  0.00  0.00     0.113 C 
BRANCH  13  14
HETATM   14  C   UNK N   1      32.009  17.227   7.820  0.00  0.00    -0.052 A 
HETATM   15  C   UNK N   1      33.170  17.957   7.525  0.00  0.00     0.008 A 
HETATM   16  C   UNK N   1      34.267  17.314   6.925  0.00  0.00     0.013 A 
HETATM   17  C   UNK N   1      34.200  15.941   6.642  0.00  0.00    -0.026 A 
HETATM   18  C   UNK N   1      35.309  15.246   6.157  0.00  0.00     0.012 A 
HETATM   19  C   UNK N   1      33.009  15.238   6.893  0.00  0.00    -0.025 A 
HETATM   20  C   UNK N   1      35.223  13.863   5.937  0.00  0.00     0.001 A 
HETATM   21  C   UNK N   1      34.026  13.178   6.175  0.00  0.00     0.001 A 
HETATM   22  C   UNK N   1      32.916  13.870   6.650  0.00  0.00     0.012 A 
HETATM   23  C   UNK N   1      31.946  15.886   7.461  0.00  0.00     0.019 A 
ENDBRANCH  13  14
ENDBRANCH   6  13
BRANCH   6  24
HETATM   24  O   UNK N   1      28.729  16.777   9.262  0.00  0.00    -0.199 OA
BRANCH  24  25
HETATM   25  O   UNK N   1      27.467  17.170   9.273  0.00  0.00    -0.247 OA
HETATM   26  H   UNK N   1      27.031  17.981   8.967  0.00  0.00     0.253 HD
ENDBRANCH  24  25
ENDBRANCH   6  24
BRANCH   2  27
HETATM   27  C   UNK N   1      29.109  15.794   4.198  0.00  0.00     0.071 C 
BRANCH  27  28
HETATM   28  C   UNK N   1      30.574  15.831   3.874  0.00  0.00    -0.056 A 
HETATM   29  C   UNK N   1      31.265  17.047   3.914  0.00  0.00     0.007 A 
HETATM   30  C   UNK N   1      32.609  17.098   3.528  0.00  0.00     0.001 A 
HETATM   31  C   UNK N   1      33.256  15.941   3.083  0.00  0.00     0.000 A 
HETATM   32  C   UNK N   1      32.567  14.727   3.038  0.00  0.00     0.001 A 
HETATM   33  C   UNK N   1      31.231  14.671   3.436  0.00  0.00     0.007 A 
ENDBRANCH  27  28
ENDBRANCH   2  27
BRANCH   3  34
HETATM   34  C   UNK N   1      25.527  19.257   4.084  0.00  0.00    -0.008 A 
HETATM   35  C   UNK N   1      25.647  20.297   3.151  0.00  0.00     0.016 A 
HETATM   36  C   UNK N   1      24.511  20.805   2.516  0.00  0.00     0.037 A 
HETATM   37  C   UNK N   1      23.253  20.269   2.801  0.00  0.00     0.065 A 
HETATM   38  C   UNK N   1      23.126  19.237   3.734  0.00  0.00     0.037 A 
HETATM   39  C   UNK N   1      24.258  18.740   4.381  0.00  0.00     0.016 A 
BRANCH  37  40
HETATM   40  O   UNK N   1      22.165  20.744   2.175  0.00  0.00    -0.361 OA
HETATM   41  H   UNK N   1      21.322  20.663   2.575  0.00  0.00     0.217 HD
ENDBRANCH  37  40
ENDBRANCH   3  34
TORSDOF 8
ENDMDL
MODEL 3
REMARK VINA RESULT:      -7.7     12.755     15.861
REMARK  8 active torsions:
REMARK  status: ('A' for Active; 'I' for Inactive)
REMARK    1  A    between atoms: C_20  and  C_17 
REMARK    2  A    between atoms: C_26  and  C_17 
REMARK    3  A    between atoms: C_21  and  C_18 
REMARK    4  A    between atoms: C_30  and  C_18 
REMARK    5  A    between atoms: C_27  and  C_23 
REMARK    6  A    between atoms: O_35  and  C_25 
REMARK    7  A    between atoms: C_30  and  O_38 
REMARK    8  A    between atoms: O_38  and  O_37 
ROOT
HETATM    1  C   UNK N   1      26.243  19.096   5.255  0.00  0.00     0.131 C 
HETATM    2  C   UNK N   1      26.696  16.355   4.522  0.00  0.00     0.154 C 
HETATM    3  C   UNK N   1      25.358  18.472   4.433  0.00  0.00     0.055 C 
HETATM    4  C   UNK N   1      27.240  16.922   5.764  0.00  0.00     0.112 A 
HETATM    5  C   UNK N   1      27.975  18.591   6.968  0.00  0.00     0.288 A 
HETATM    6  C   UNK N   1      28.483  17.300   7.590  0.00  0.00     0.255 A 
HETATM    7  N   UNK N   1      25.464  17.055   4.218  0.00  0.00    -0.376 N 
HETATM    8  N   UNK N   1      27.941  16.324   6.650  0.00  0.00    -0.336 N 
ATOM      9  HN  UNK N   1      28.097  15.317   6.693  1.00  0.00     0.164 HD
HETATM   10  N   UNK N   1      27.190  18.289   5.942  0.00  0.00    -0.274 N 
HETATM   11  O   UNK N   1      28.137  19.723   7.399  0.00  0.00    -0.267 OA
HETATM   12  H   UNK N   1      24.694  16.555   3.862  0.00  0.00     0.160 HD
ENDROOT
BRANCH   6  13
HETATM   13  C   UNK N   1      30.031  17.158   7.547  0.00  0.00     0.113 C 
BRANCH  13  14
HETATM   14  C   UNK N   1      30.682  16.679   6.277  0.00  0.00    -0.052 A 
HETATM   15  C   UNK N   1      30.749  17.518   5.155  0.00  0.00     0.008 A 
HETATM   16  C   UNK N   1      31.517  17.137   4.042  0.00  0.00     0.013 A 
HETATM   17  C   UNK N   1      32.228  15.926   4.066  0.00  0.00    -0.026 A 
HETATM   18  C   UNK N   1      33.092  15.572   3.029  0.00  0.00     0.012 A 
HETATM   19  C   UNK N   1      32.104  15.072   5.176  0.00  0.00    -0.025 A 
HETATM   20  C   UNK N   1      33.828  14.380   3.113  0.00  0.00     0.001 A 
HETATM   21  C   UNK N   1      33.683  13.530   4.216  0.00  0.00     0.001 A 
HETATM   22  C   UNK N   1      32.814  13.877   5.247  0.00  0.00     0.012 A 
HETATM   23  C   UNK N   1      31.336  15.454   6.243  0.00  0.00     0.019 A 
ENDBRANCH  13  14
ENDBRANCH   6  13
BRANCH   6  24
HETATM   24  O   UNK N   1      27.902  17.134   8.870  0.00  0.00    -0.199 OA
BRANCH  24  25
HETATM   25  O   UNK N   1      27.475  18.309   9.301  0.00  0.00    -0.247 OA
HETATM   26  H   UNK N   1      26.732  18.569   9.869  0.00  0.00     0.253 HD
ENDBRANCH  24  25
ENDBRANCH   6  24
BRANCH   2  27
HETATM   27  C   UNK N   1      26.553  14.837   4.437  0.00  0.00     0.071 C 
BRANCH  27  28
HETATM   28  C   UNK N   1      27.843  14.257   3.935  0.00  0.00    -0.056 A 
HETATM   29  C   UNK N   1      28.421  14.756   2.764  0.00  0.00     0.007 A 
HETATM   30  C   UNK N   1      29.577  14.159   2.246  0.00  0.00     0.001 A 
HETATM   31  C   UNK N   1      30.141  13.052   2.887  0.00  0.00     0.000 A 
HETATM   32  C   UNK N   1      29.563  12.548   4.055  0.00  0.00     0.001 A 
HETATM   33  C   UNK N   1      28.420  13.151   4.580  0.00  0.00     0.007 A 
ENDBRANCH  27  28
ENDBRANCH   2  27
BRANCH   3  34
HETATM   34  C   UNK N   1      24.235  19.205   3.824  0.00  0.00    -0.008 A 
HETATM   35  C   UNK N   1      24.449  20.396   3.115  0.00  0.00     0.016 A 
HETATM   36  C   UNK N   1      23.369  21.087   2.558  0.00  0.00     0.037 A 
HETATM   37  C   UNK N   1      22.073  20.583   2.696  0.00  0.00     0.065 A 
HETATM   38  C   UNK N   1      21.852  19.400   3.405  0.00  0.00     0.037 A 
HETATM   39  C   UNK N   1      22.929  18.719   3.976  0.00  0.00     0.016 A 
BRANCH  37  40
HETATM   40  O   UNK N   1      21.039  21.236   2.143  0.00  0.00    -0.361 OA
HETATM   41  H   UNK N   1      20.881  21.167   1.222  0.00  0.00     0.217 HD
ENDBRANCH  37  40
ENDBRANCH   3  34
TORSDOF 8
ENDMDL
MODEL 4
REMARK VINA RESULT:      -7.7      2.298      3.454
REMARK  8 active torsions:
REMARK  status: ('A' for Active; 'I' for Inactive)
REMARK    1  A    between atoms: C_20  and  C_17 
REMARK    2  A    between atoms: C_26  and  C_17 
REMARK    3  A    between atoms: C_21  and  C_18 
REMARK    4  A    between atoms: C_30  and  C_18 
REMARK    5  A    between atoms: C_27  and  C_23 
REMARK    6  A    between atoms: O_35  and  C_25 
REMARK    7  A    between atoms: C_30  and  O_38 
REMARK    8  A    between atoms: O_38  and  O_37 
ROOT
HETATM    1  C   UNK N   1      29.573  21.975  -6.738  0.00  0.00     0.131 C 
HETATM    2  C   UNK N   1      28.348  23.734  -4.825  0.00  0.00     0.154 C 
HETATM    3  C   UNK N   1      30.083  22.048  -5.480  0.00  0.00     0.055 C 
HETATM    4  C   UNK N   1      27.596  23.189  -5.966  0.00  0.00     0.112 A 
HETATM    5  C   UNK N   1      27.471  22.400  -8.000  0.00  0.00     0.288 A 
HETATM    6  C   UNK N   1      26.085  22.873  -7.589  0.00  0.00     0.255 A 
HETATM    7  N   UNK N   1      29.367  22.769  -4.464  0.00  0.00    -0.376 N 
HETATM    8  N   UNK N   1      26.368  23.392  -6.255  0.00  0.00    -0.336 N 
ATOM      9  HN  UNK N   1      25.689  23.847  -5.645  1.00  0.00     0.164 HD
HETATM   10  N   UNK N   1      28.293  22.548  -6.969  0.00  0.00    -0.274 N 
HETATM   11  O   UNK N   1      27.774  21.850  -9.047  0.00  0.00    -0.267 OA
HETATM   12  H   UNK N   1      29.568  22.605  -3.514  0.00  0.00     0.160 HD
ENDROOT
BRANCH   6  13
HETATM   13  C   UNK N   1      25.560  24.067  -8.437  0.00  0.00     0.113 C 
BRANCH  13  14
HETATM   14  C   UNK N   1      26.124  25.440  -8.185  0.00  0.00    -0.052 A 
HETATM   15  C   UNK N   1      25.708  26.182  -7.069  0.00  0.00     0.008 A 
HETATM   16  C   UNK N   1      26.371  27.377  -6.739  0.00  0.00     0.013 A 
HETATM   17  C   UNK N   1      27.455  27.811  -7.517  0.00  0.00    -0.026 A 
HETATM   18  C   UNK N   1      28.209  28.927  -7.151  0.00  0.00     0.012 A 
HETATM   19  C   UNK N   1      27.822  27.084  -8.663  0.00  0.00    -0.025 A 
HETATM   20  C   UNK N   1      29.321  29.300  -7.922  0.00  0.00     0.001 A 
HETATM   21  C   UNK N   1      29.664  28.577  -9.071  0.00  0.00     0.001 A 
HETATM   22  C   UNK N   1      28.908  27.469  -9.443  0.00  0.00     0.012 A 
HETATM   23  C   UNK N   1      27.153  25.932  -8.978  0.00  0.00     0.019 A 
ENDBRANCH  13  14
ENDBRANCH   6  13
BRANCH   6  24
HETATM   24  O   UNK N   1      25.212  21.761  -7.517  0.00  0.00    -0.199 OA
BRANCH  24  25
HETATM   25  O   UNK N   1      24.105  22.044  -8.182  0.00  0.00    -0.247 OA
HETATM   26  H   UNK N   1      23.932  22.227  -9.119  0.00  0.00     0.253 HD
ENDBRANCH  24  25
ENDBRANCH   6  24
BRANCH   2  27
HETATM   27  C   UNK N   1      27.551  24.235  -3.624  0.00  0.00     0.071 C 
BRANCH  27  28
HETATM   28  C   UNK N   1      27.548  25.736  -3.636  0.00  0.00    -0.056 A 
HETATM   29  C   UNK N   1      28.721  26.432  -3.948  0.00  0.00     0.007 A 
HETATM   30  C   UNK N   1      28.743  27.829  -3.875  0.00  0.00     0.001 A 
HETATM   31  C   UNK N   1      27.602  28.529  -3.473  0.00  0.00     0.000 A 
HETATM   32  C   UNK N   1      26.430  27.837  -3.156  0.00  0.00     0.001 A 
HETATM   33  C   UNK N   1      26.402  26.445  -3.242  0.00  0.00     0.007 A 
ENDBRANCH  27  28
ENDBRANCH   2  27
BRANCH   3  34
HETATM   34  C   UNK N   1      31.314  21.328  -5.113  0.00  0.00    -0.008 A 
HETATM   35  C   UNK N   1      31.903  20.408  -5.992  0.00  0.00     0.016 A 
HETATM   36  C   UNK N   1      33.062  19.722  -5.619  0.00  0.00     0.037 A 
HETATM   37  C   UNK N   1      33.644  19.963  -4.372  0.00  0.00     0.065 A 
HETATM   38  C   UNK N   1      33.060  20.874  -3.490  0.00  0.00     0.037 A 
HETATM   39  C   UNK N   1      31.893  21.547  -3.855  0.00  0.00     0.016 A 
BRANCH  37  40
HETATM   40  O   UNK N   1      34.769  19.320  -4.024  0.00  0.00    -0.361 OA
HETATM   41  H   UNK N   1      34.724  18.446  -3.688  0.00  0.00     0.217 HD
ENDBRANCH  37  40
ENDBRANCH   3  34
TORSDOF 8
ENDMDL
MODEL 5
REMARK VINA RESULT:      -7.6     12.649     14.688
REMARK  8 active torsions:
REMARK  status: ('A' for Active; 'I' for Inactive)
REMARK    1  A    between atoms: C_20  and  C_17 
REMARK    2  A    between atoms: C_26  and  C_17 
REMARK    3  A    between atoms: C_21  and  C_18 
REMARK    4  A    between atoms: C_30  and  C_18 
REMARK    5  A    between atoms: C_27  and  C_23 
REMARK    6  A    between atoms: O_35  and  C_25 
REMARK    7  A    between atoms: C_30  and  O_38 
REMARK    8  A    between atoms: O_38  and  O_37 
ROOT
HETATM    1  C   UNK N   1      28.398  18.464   5.223  0.00  0.00     0.131 C 
HETATM    2  C   UNK N   1      27.360  16.399   3.517  0.00  0.00     0.154 C 
HETATM    3  C   UNK N   1      29.240  17.509   4.747  0.00  0.00     0.055 C 
HETATM    4  C   UNK N   1      26.705  17.711   3.629  0.00  0.00     0.112 A 
HETATM    5  C   UNK N   1      26.213  19.540   4.719  0.00  0.00     0.288 A 
HETATM    6  C   UNK N   1      25.202  19.372   3.596  0.00  0.00     0.255 A 
HETATM    7  N   UNK N   1      28.778  16.591   3.742  0.00  0.00    -0.376 N 
HETATM    8  N   UNK N   1      25.654  18.109   3.020  0.00  0.00    -0.336 N 
ATOM      9  HN  UNK N   1      25.200  17.618   2.249  1.00  0.00     0.164 HD
HETATM   10  N   UNK N   1      27.111  18.567   4.631  0.00  0.00    -0.274 N 
HETATM   11  O   UNK N   1      26.287  20.476   5.500  0.00  0.00    -0.267 OA
HETATM   12  H   UNK N   1      29.430  16.090   3.200  0.00  0.00     0.160 HD
ENDROOT
BRANCH   6  13
HETATM   13  C   UNK N   1      23.747  19.144   4.098  0.00  0.00     0.113 C 
BRANCH  13  14
HETATM   14  C   UNK N   1      23.281  17.737   4.361  0.00  0.00    -0.052 A 
HETATM   15  C   UNK N   1      23.630  17.086   5.554  0.00  0.00     0.008 A 
HETATM   16  C   UNK N   1      23.041  15.850   5.873  0.00  0.00     0.013 A 
HETATM   17  C   UNK N   1      22.094  15.285   5.007  0.00  0.00    -0.026 A 
HETATM   18  C   UNK N   1      21.403  14.120   5.347  0.00  0.00     0.012 A 
HETATM   19  C   UNK N   1      21.798  15.923   3.790  0.00  0.00    -0.025 A 
HETATM   20  C   UNK N   1      20.423  13.613   4.481  0.00  0.00     0.001 A 
HETATM   21  C   UNK N   1      20.150  14.250   3.265  0.00  0.00     0.001 A 
HETATM   22  C   UNK N   1      20.844  15.406   2.918  0.00  0.00     0.012 A 
HETATM   23  C   UNK N   1      22.395  17.118   3.488  0.00  0.00     0.019 A 
ENDBRANCH  13  14
ENDBRANCH   6  13
BRANCH   6  24
HETATM   24  O   UNK N   1      25.354  20.427   2.664  0.00  0.00    -0.199 OA
BRANCH  24  25
HETATM   25  O   UNK N   1      24.157  20.815   2.259  0.00  0.00    -0.247 OA
HETATM   26  H   UNK N   1      23.499  20.406   1.675  0.00  0.00     0.253 HD
ENDBRANCH  24  25
ENDBRANCH   6  24
BRANCH   2  27
HETATM   27  C   UNK N   1      27.062  15.561   2.276  0.00  0.00     0.071 C 
BRANCH  27  28
HETATM   28  C   UNK N   1      25.894  14.664   2.566  0.00  0.00    -0.056 A 
HETATM   29  C   UNK N   1      25.843  13.954   3.770  0.00  0.00     0.007 A 
HETATM   30  C   UNK N   1      24.800  13.052   4.004  0.00  0.00     0.001 A 
HETATM   31  C   UNK N   1      23.820  12.844   3.029  0.00  0.00     0.000 A 
HETATM   32  C   UNK N   1      23.871  13.548   1.823  0.00  0.00     0.001 A 
HETATM   33  C   UNK N   1      24.902  14.458   1.594  0.00  0.00     0.007 A 
ENDBRANCH  27  28
ENDBRANCH   2  27
BRANCH   3  34
HETATM   34  C   UNK N   1      30.648  17.449   5.176  0.00  0.00    -0.008 A 
HETATM   35  C   UNK N   1      30.984  17.211   6.517  0.00  0.00     0.016 A 
HETATM   36  C   UNK N   1      32.325  17.174   6.909  0.00  0.00     0.037 A 
HETATM   37  C   UNK N   1      33.335  17.361   5.961  0.00  0.00     0.065 A 
HETATM   38  C   UNK N   1      33.006  17.604   4.626  0.00  0.00     0.037 A 
HETATM   39  C   UNK N   1      31.667  17.657   4.237  0.00  0.00     0.016 A 
BRANCH  37  40
HETATM   40  O   UNK N   1      34.622  17.304   6.335  0.00  0.00    -0.361 OA
HETATM   41  H   UNK N   1      34.859  16.884   7.138  0.00  0.00     0.217 HD
ENDBRANCH  37  40
ENDBRANCH   3  34
TORSDOF 8
ENDMDL
MODEL 6
REMARK VINA RESULT:      -7.6     15.486     17.486
REMARK  8 active torsions:
REMARK  status: ('A' for Active; 'I' for Inactive)
REMARK    1  A    between atoms: C_20  and  C_17 
REMARK    2  A    between atoms: C_26  and  C_17 
REMARK    3  A    between atoms: C_21  and  C_18 
REMARK    4  A    between atoms: C_30  and  C_18 
REMARK    5  A    between atoms: C_27  and  C_23 
REMARK    6  A    between atoms: O_35  and  C_25 
REMARK    7  A    between atoms: C_30  and  O_38 
REMARK    8  A    between atoms: O_38  and  O_37 
ROOT
HETATM    1  C   UNK N   1      21.628  14.674   7.758  0.00  0.00     0.131 C 
HETATM    2  C   UNK N   1      24.128  15.112   6.411  0.00  0.00     0.154 C 
HETATM    3  C   UNK N   1      22.776  14.210   8.319  0.00  0.00     0.055 C 
HETATM    4  C   UNK N   1      22.970  15.993   6.198  0.00  0.00     0.112 A 
HETATM    5  C   UNK N   1      20.821  16.381   6.139  0.00  0.00     0.288 A 
HETATM    6  C   UNK N   1      21.519  17.459   5.325  0.00  0.00     0.255 A 
HETATM    7  N   UNK N   1      24.044  14.591   7.761  0.00  0.00    -0.376 N 
HETATM    8  N   UNK N   1      22.906  17.021   5.441  0.00  0.00    -0.336 N 
ATOM      9  HN  UNK N   1      23.703  17.467   4.988  1.00  0.00     0.164 HD
HETATM   10  N   UNK N   1      21.742  15.597   6.684  0.00  0.00    -0.274 N 
HETATM   11  O   UNK N   1      19.625  16.306   6.378  0.00  0.00    -0.267 OA
HETATM   12  H   UNK N   1      24.863  14.498   8.300  0.00  0.00     0.160 HD
ENDROOT
BRANCH   6  13
HETATM   13  C   UNK N   1      21.159  17.425   3.812  0.00  0.00     0.113 C 
BRANCH  13  14
HETATM   14  C   UNK N   1      21.164  16.102   3.094  0.00  0.00    -0.052 A 
HETATM   15  C   UNK N   1      19.962  15.419   2.857  0.00  0.00     0.008 A 
HETATM   16  C   UNK N   1      19.954  14.284   2.029  0.00  0.00     0.013 A 
HETATM   17  C   UNK N   1      21.146  13.851   1.427  0.00  0.00    -0.026 A 
HETATM   18  C   UNK N   1      21.155  12.802   0.507  0.00  0.00     0.012 A 
HETATM   19  C   UNK N   1      22.351  14.514   1.720  0.00  0.00    -0.025 A 
HETATM   20  C   UNK N   1      22.356  12.432  -0.116  0.00  0.00     0.001 A 
HETATM   21  C   UNK N   1      23.552  13.089   0.197  0.00  0.00     0.001 A 
HETATM   22  C   UNK N   1      23.547  14.130   1.121  0.00  0.00     0.012 A 
HETATM   23  C   UNK N   1      22.340  15.607   2.543  0.00  0.00     0.019 A 
ENDBRANCH  13  14
ENDBRANCH   6  13
BRANCH   6  24
HETATM   24  O   UNK N   1      21.338  18.715   5.954  0.00  0.00    -0.199 OA
BRANCH  24  25
HETATM   25  O   UNK N   1      21.039  18.516   7.226  0.00  0.00    -0.247 OA
HETATM   26  H   UNK N   1      20.238  18.194   7.668  0.00  0.00     0.253 HD
ENDBRANCH  24  25
ENDBRANCH   6  24
BRANCH   2  27
HETATM   27  C   UNK N   1      25.511  15.662   6.071  0.00  0.00     0.071 C 
BRANCH  27  28
HETATM   28  C   UNK N   1      25.893  15.194   4.697  0.00  0.00    -0.056 A 
HETATM   29  C   UNK N   1      26.146  13.837   4.468  0.00  0.00     0.007 A 
HETATM   30  C   UNK N   1      26.586  13.411   3.210  0.00  0.00     0.001 A 
HETATM   31  C   UNK N   1      26.794  14.342   2.188  0.00  0.00     0.000 A 
HETATM   32  C   UNK N   1      26.547  15.698   2.414  0.00  0.00     0.001 A 
HETATM   33  C   UNK N   1      26.094  16.123   3.664  0.00  0.00     0.007 A 
ENDBRANCH  27  28
ENDBRANCH   2  27
BRANCH   3  34
HETATM   34  C   UNK N   1      22.751  13.394   9.545  0.00  0.00    -0.008 A 
HETATM   35  C   UNK N   1      23.935  12.883  10.098  0.00  0.00     0.016 A 
HETATM   36  C   UNK N   1      23.890  12.097  11.252  0.00  0.00     0.037 A 
HETATM   37  C   UNK N   1      22.664  11.829  11.866  0.00  0.00     0.065 A 
HETATM   38  C   UNK N   1      21.481  12.329  11.318  0.00  0.00     0.037 A 
HETATM   39  C   UNK N   1      21.524  13.101  10.155  0.00  0.00     0.016 A 
BRANCH  37  40
HETATM   40  O   UNK N   1      22.624  11.091  12.986  0.00  0.00    -0.361 OA
HETATM   41  H   UNK N   1      22.381  10.187  12.943  0.00  0.00     0.217 HD
ENDBRANCH  37  40
ENDBRANCH   3  34
TORSDOF 8
ENDMDL
MODEL 7
REMARK VINA RESULT:      -7.4     13.451     15.797
REMARK  8 active torsions:
REMARK  status: ('A' for Active; 'I' for Inactive)
REMARK    1  A    between atoms: C_20  and  C_17 
REMARK    2  A    between atoms: C_26  and  C_17 
REMARK    3  A    between atoms: C_21  and  C_18 
REMARK    4  A    between atoms: C_30  and  C_18 
REMARK    5  A    between atoms: C_27  and  C_23 
REMARK    6  A    between atoms: O_35  and  C_25 
REMARK    7  A    between atoms: C_30  and  O_38 
REMARK    8  A    between atoms: O_38  and  O_37 
ROOT
HETATM    1  C   UNK N   1      30.198  17.746   7.380  0.00  0.00     0.131 C 
HETATM    2  C   UNK N   1      30.090  16.123   5.012  0.00  0.00     0.154 C 
HETATM    3  C   UNK N   1      31.290  17.020   7.021  0.00  0.00     0.055 C 
HETATM    4  C   UNK N   1      29.228  17.303   5.181  0.00  0.00     0.112 A 
HETATM    5  C   UNK N   1      28.131  18.736   6.413  0.00  0.00     0.288 A 
HETATM    6  C   UNK N   1      27.560  18.787   5.005  0.00  0.00     0.255 A 
HETATM    7  N   UNK N   1      31.318  16.364   5.743  0.00  0.00    -0.376 N 
HETATM    8  N   UNK N   1      28.367  17.760   4.354  0.00  0.00    -0.336 N 
ATOM      9  HN  UNK N   1      28.261  17.454   3.387  1.00  0.00     0.164 HD
HETATM   10  N   UNK N   1      29.158  17.896   6.424  0.00  0.00    -0.274 N 
HETATM   11  O   UNK N   1      27.807  19.437   7.359  0.00  0.00    -0.267 OA
HETATM   12  H   UNK N   1      32.178  16.076   5.360  0.00  0.00     0.160 HD
ENDROOT
BRANCH   6  13
HETATM   13  C   UNK N   1      26.079  18.319   4.919  0.00  0.00     0.113 C 
BRANCH  13  14
HETATM   14  C   UNK N   1      25.789  16.881   4.579  0.00  0.00    -0.052 A 
HETATM   15  C   UNK N   1      25.505  15.957   5.596  0.00  0.00     0.008 A 
HETATM   16  C   UNK N   1      25.056  14.667   5.262  0.00  0.00     0.013 A 
HETATM   17  C   UNK N   1      24.876  14.319   3.915  0.00  0.00    -0.026 A 
HETATM   18  C   UNK N   1      24.321  13.091   3.551  0.00  0.00     0.012 A 
HETATM   19  C   UNK N   1      25.219  15.238   2.908  0.00  0.00    -0.025 A 
HETATM   20  C   UNK N   1      24.105  12.798   2.196  0.00  0.00     0.001 A 
HETATM   21  C   UNK N   1      24.467  13.716   1.203  0.00  0.00     0.001 A 
HETATM   22  C   UNK N   1      25.029  14.938   1.563  0.00  0.00     0.012 A 
HETATM   23  C   UNK N   1      25.672  16.484   3.253  0.00  0.00     0.019 A 
ENDBRANCH  13  14
ENDBRANCH   6  13
BRANCH   6  24
HETATM   24  O   UNK N   1      27.819  20.058   4.437  0.00  0.00    -0.199 OA
BRANCH  24  25
HETATM   25  O   UNK N   1      27.032  20.951   5.013  0.00  0.00    -0.247 OA
HETATM   26  H   UNK N   1      26.158  20.883   5.428  0.00  0.00     0.253 HD
ENDBRANCH  24  25
ENDBRANCH   6  24
BRANCH   2  27
HETATM   27  C   UNK N   1      30.332  15.618   3.592  0.00  0.00     0.071 C 
BRANCH  27  28
HETATM   28  C   UNK N   1      29.376  14.497   3.307  0.00  0.00    -0.056 A 
HETATM   29  C   UNK N   1      28.920  13.688   4.352  0.00  0.00     0.007 A 
HETATM   30  C   UNK N   1      28.098  12.590   4.078  0.00  0.00     0.001 A 
HETATM   31  C   UNK N   1      27.749  12.287   2.758  0.00  0.00     0.000 A 
HETATM   32  C   UNK N   1      28.207  13.090   1.710  0.00  0.00     0.001 A 
HETATM   33  C   UNK N   1      29.015  14.194   1.984  0.00  0.00     0.007 A 
ENDBRANCH  27  28
ENDBRANCH   2  27
BRANCH   3  34
HETATM   34  C   UNK N   1      32.485  16.963   7.880  0.00  0.00    -0.008 A 
HETATM   35  C   UNK N   1      33.426  18.004   7.878  0.00  0.00     0.016 A 
HETATM   36  C   UNK N   1      34.563  17.924   8.687  0.00  0.00     0.037 A 
HETATM   37  C   UNK N   1      34.757  16.812   9.510  0.00  0.00     0.065 A 
HETATM   38  C   UNK N   1      33.828  15.770   9.512  0.00  0.00     0.037 A 
HETATM   39  C   UNK N   1      32.700  15.841   8.692  0.00  0.00     0.016 A 
BRANCH  37  40
HETATM   40  O   UNK N   1      35.838  16.747  10.302  0.00  0.00    -0.361 OA
HETATM   41  H   UNK N   1      36.580  17.293  10.128  0.00  0.00     0.217 HD
ENDBRANCH  37  40
ENDBRANCH   3  34
TORSDOF 8
ENDMDL
MODEL 8
REMARK VINA RESULT:      -7.3     22.455     25.282
REMARK  8 active torsions:
REMARK  status: ('A' for Active; 'I' for Inactive)
REMARK    1  A    between atoms: C_20  and  C_17 
REMARK    2  A    between atoms: C_26  and  C_17 
REMARK    3  A    between atoms: C_21  and  C_18 
REMARK    4  A    between atoms: C_30  and  C_18 
REMARK    5  A    between atoms: C_27  and  C_23 
REMARK    6  A    between atoms: O_35  and  C_25 
REMARK    7  A    between atoms: C_30  and  O_38 
REMARK    8  A    between atoms: O_38  and  O_37 
ROOT
HETATM    1  C   UNK N   1      35.645  14.590  11.736  0.00  0.00     0.131 C 
HETATM    2  C   UNK N   1      34.861  11.852  11.360  0.00  0.00     0.154 C 
HETATM    3  C   UNK N   1      35.009  14.232  10.589  0.00  0.00     0.055 C 
HETATM    4  C   UNK N   1      35.038  12.428  12.701  0.00  0.00     0.112 A 
HETATM    5  C   UNK N   1      35.946  13.848  14.092  0.00  0.00     0.288 A 
HETATM    6  C   UNK N   1      35.387  12.687  14.899  0.00  0.00     0.255 A 
HETATM    7  N   UNK N   1      34.440  12.917  10.473  0.00  0.00    -0.376 N 
HETATM    8  N   UNK N   1      34.873  11.843  13.826  0.00  0.00    -0.336 N 
ATOM      9  HN  UNK N   1      34.445  10.925  13.953  1.00  0.00     0.164 HD
HETATM   10  N   UNK N   1      35.638  13.664  12.814  0.00  0.00    -0.274 N 
HETATM   11  O   UNK N   1      36.474  14.857  14.533  0.00  0.00    -0.267 OA
HETATM   12  H   UNK N   1      33.758  12.739   9.786  0.00  0.00     0.160 HD
ENDROOT
BRANCH   6  13
HETATM   13  C   UNK N   1      36.480  11.863  15.638  0.00  0.00     0.113 C 
BRANCH  13  14
HETATM   14  C   UNK N   1      36.927  10.553  15.046  0.00  0.00    -0.052 A 
HETATM   15  C   UNK N   1      38.164  10.457  14.390  0.00  0.00     0.008 A 
HETATM   16  C   UNK N   1      38.655   9.198  14.005  0.00  0.00     0.013 A 
HETATM   17  C   UNK N   1      37.914   8.042  14.297  0.00  0.00    -0.026 A 
HETATM   18  C   UNK N   1      38.424   6.769  14.036  0.00  0.00     0.012 A 
HETATM   19  C   UNK N   1      36.652   8.161  14.904  0.00  0.00    -0.025 A 
HETATM   20  C   UNK N   1      37.680   5.634  14.391  0.00  0.00     0.001 A 
HETATM   21  C   UNK N   1      36.417   5.767  14.980  0.00  0.00     0.001 A 
HETATM   22  C   UNK N   1      35.902   7.036  15.232  0.00  0.00     0.012 A 
HETATM   23  C   UNK N   1      36.183   9.398  15.255  0.00  0.00     0.019 A 
ENDBRANCH  13  14
ENDBRANCH   6  13
BRANCH   6  24
HETATM   24  O   UNK N   1      34.330  13.150  15.720  0.00  0.00    -0.199 OA
BRANCH  24  25
HETATM   25  O   UNK N   1      34.822  13.483  16.901  0.00  0.00    -0.247 OA
HETATM   26  H   UNK N   1      34.569  13.246  17.807  0.00  0.00     0.253 HD
ENDBRANCH  24  25
ENDBRANCH   6  24
BRANCH   2  27
HETATM   27  C   UNK N   1      34.000  10.598  11.234  0.00  0.00     0.071 C 
BRANCH  27  28
HETATM   28  C   UNK N   1      34.894   9.392  11.253  0.00  0.00    -0.056 A 
HETATM   29  C   UNK N   1      36.207   9.492  10.782  0.00  0.00     0.007 A 
HETATM   30  C   UNK N   1      37.014   8.350  10.718  0.00  0.00     0.001 A 
HETATM   31  C   UNK N   1      36.503   7.107  11.104  0.00  0.00     0.000 A 
HETATM   32  C   UNK N   1      35.190   7.004  11.570  0.00  0.00     0.001 A 
HETATM   33  C   UNK N   1      34.389   8.143  11.648  0.00  0.00     0.007 A 
ENDBRANCH  27  28
ENDBRANCH   2  27
BRANCH   3  34
HETATM   34  C   UNK N   1      34.814  15.194   9.492  0.00  0.00    -0.008 A 
HETATM   35  C   UNK N   1      34.773  14.768   8.156  0.00  0.00     0.016 A 
HETATM   36  C   UNK N   1      34.604  15.698   7.127  0.00  0.00     0.037 A 
HETATM   37  C   UNK N   1      34.463  17.055   7.429  0.00  0.00     0.065 A 
HETATM   38  C   UNK N   1      34.509  17.487   8.756  0.00  0.00     0.037 A 
HETATM   39  C   UNK N   1      34.695  16.560   9.783  0.00  0.00     0.016 A 
BRANCH  37  40
HETATM   40  O   UNK N   1      34.279  17.945   6.441  0.00  0.00    -0.361 OA
HETATM   41  H   UNK N   1      33.418  18.258   6.246  0.00  0.00     0.217 HD
ENDBRANCH  37  40
ENDBRANCH   3  34
TORSDOF 8
ENDMDL
MODEL 9
REMARK VINA RESULT:      -7.2      2.638      3.715
REMARK  8 active torsions:
REMARK  status: ('A' for Active; 'I' for Inactive)
REMARK    1  A    between atoms: C_20  and  C_17 
REMARK    2  A    between atoms: C_26  and  C_17 
REMARK    3  A    between atoms: C_21  and  C_18 
REMARK    4  A    between atoms: C_30  and  C_18 
REMARK    5  A    between atoms: C_27  and  C_23 
REMARK    6  A    between atoms: O_35  and  C_25 
REMARK    7  A    between atoms: C_30  and  O_38 
REMARK    8  A    between atoms: O_38  and  O_37 
ROOT
HETATM    1  C   UNK N   1      30.163  22.252  -5.926  0.00  0.00     0.131 C 
HETATM    2  C   UNK N   1      30.325  24.752  -4.519  0.00  0.00     0.154 C 
HETATM    3  C   UNK N   1      31.132  22.426  -4.988  0.00  0.00     0.055 C 
HETATM    4  C   UNK N   1      29.066  24.279  -5.111  0.00  0.00     0.112 A 
HETATM    5  C   UNK N   1      27.933  23.133  -6.587  0.00  0.00     0.288 A 
HETATM    6  C   UNK N   1      27.009  24.185  -5.994  0.00  0.00     0.255 A 
HETATM    7  N   UNK N   1      31.103  23.588  -4.143  0.00  0.00    -0.376 N 
HETATM    8  N   UNK N   1      27.928  24.861  -5.084  0.00  0.00    -0.336 N 
ATOM      9  HN  UNK N   1      27.698  25.674  -4.513  1.00  0.00     0.164 HD
HETATM   10  N   UNK N   1      29.104  23.199  -5.968  0.00  0.00    -0.274 N 
HETATM   11  O   UNK N   1      27.633  22.274  -7.402  0.00  0.00    -0.267 OA
HETATM   12  H   UNK N   1      31.614  23.594  -3.302  0.00  0.00     0.160 HD
ENDROOT
BRANCH   6  13
HETATM   13  C   UNK N   1      26.532  25.246  -7.026  0.00  0.00     0.113 C 
BRANCH  13  14
HETATM   14  C   UNK N   1      26.840  26.697  -6.771  0.00  0.00    -0.052 A 
HETATM   15  C   UNK N   1      26.285  27.356  -5.664  0.00  0.00     0.008 A 
HETATM   16  C   UNK N   1      26.722  28.650  -5.330  0.00  0.00     0.013 A 
HETATM   17  C   UNK N   1      27.724  29.267  -6.094  0.00  0.00    -0.026 A 
HETATM   18  C   UNK N   1      28.264  30.499  -5.722  0.00  0.00     0.012 A 
HETATM   19  C   UNK N   1      28.229  28.615  -7.232  0.00  0.00    -0.025 A 
HETATM   20  C   UNK N   1      29.303  31.061  -6.479  0.00  0.00     0.001 A 
HETATM   21  C   UNK N   1      29.785  30.409  -7.620  0.00  0.00     0.001 A 
HETATM   22  C   UNK N   1      29.242  29.184  -7.998  0.00  0.00     0.012 A 
HETATM   23  C   UNK N   1      27.778  27.362  -7.552  0.00  0.00     0.019 A 
ENDBRANCH  13  14
ENDBRANCH   6  13
BRANCH   6  24
HETATM   24  O   UNK N   1      25.972  23.546  -5.271  0.00  0.00    -0.199 OA
BRANCH  24  25
HETATM   25  O   UNK N   1      25.122  23.008  -6.129  0.00  0.00    -0.247 OA
HETATM   26  H   UNK N   1      24.241  22.618  -6.021  0.00  0.00     0.253 HD
ENDBRANCH  24  25
ENDBRANCH   6  24
BRANCH   2  27
HETATM   27  C   UNK N   1      30.240  25.795  -3.407  0.00  0.00     0.071 C 
BRANCH  27  28
HETATM   28  C   UNK N   1      30.784  27.096  -3.920  0.00  0.00    -0.056 A 
HETATM   29  C   UNK N   1      31.421  27.142  -5.164  0.00  0.00     0.007 A 
HETATM   30  C   UNK N   1      32.006  28.334  -5.606  0.00  0.00     0.001 A 
HETATM   31  C   UNK N   1      31.971  29.474  -4.797  0.00  0.00     0.000 A 
HETATM   32  C   UNK N   1      31.340  29.430  -3.551  0.00  0.00     0.001 A 
HETATM   33  C   UNK N   1      30.744  28.246  -3.116  0.00  0.00     0.007 A 
ENDBRANCH  27  28
ENDBRANCH   2  27
BRANCH   3  34
HETATM   34  C   UNK N   1      32.164  21.401  -4.758  0.00  0.00    -0.008 A 
HETATM   35  C   UNK N   1      33.038  21.488  -3.663  0.00  0.00     0.016 A 
HETATM   36  C   UNK N   1      34.022  20.515  -3.471  0.00  0.00     0.037 A 
HETATM   37  C   UNK N   1      34.129  19.445  -4.363  0.00  0.00     0.065 A 
HETATM   38  C   UNK N   1      33.267  19.356  -5.458  0.00  0.00     0.037 A 
HETATM   39  C   UNK N   1      32.294  20.336  -5.660  0.00  0.00     0.016 A 
BRANCH  37  40
HETATM   40  O   UNK N   1      35.061  18.500  -4.165  0.00  0.00    -0.361 OA
HETATM   41  H   UNK N   1      35.220  17.853  -4.824  0.00  0.00     0.217 HD
ENDBRANCH  37  40
ENDBRANCH   3  34
TORSDOF 8
ENDMDL
