MODEL 1
REMARK VINA RESULT:      -6.6      0.000      0.000
REMARK  15 active torsions:
REMARK  status: ('A' for Active; 'I' for Inactive)
REMARK    1  A    between atoms: C_2  and  C_1 
REMARK    2  A    between atoms: C_5  and  C_1 
REMARK    3  A    between atoms: C_8  and  C_2 
REMARK    4  A    between atoms: C_6  and  C_3 
REMARK    5  A    between atoms: N_21  and  C_3 
REMARK    6  A    between atoms: C_7  and  C_4 
REMARK    7  A    between atoms: O_22  and  C_4 
REMARK    8  A    between atoms: C_10  and  C_6 
REMARK    9  A    between atoms: C_6  and  O_23 
REMARK   10  A    between atoms: C_10  and  C_7 
REMARK   11  A    between atoms: C_7  and  O_24 
REMARK   12  A    between atoms: O_26  and  C_8 
REMARK   13  A    between atoms: C_10  and  O_27 
REMARK   14  A    between atoms: O_28  and  C_12 
REMARK   15  A    between atoms: O_29  and  C_13 
ROOT
HETATM    1  C   UNK N   1      20.387  16.103   6.606  0.00  0.00     0.062 A 
HETATM    2  C   UNK N   1      19.854  15.218   4.480  0.00  0.00     0.129 A 
HETATM    3  C   UNK N   1      20.790  16.076   3.879  0.00  0.00     0.145 A 
HETATM    4  C   UNK N   1      19.132  14.339   3.666  0.00  0.00     0.175 A 
HETATM    5  C   UNK N   1      21.338  16.960   6.009  0.00  0.00     0.167 A 
HETATM    6  C   UNK N   1      20.254  15.182   1.750  0.00  0.00     0.327 A 
HETATM    7  N   UNK N   1      19.676  15.248   5.824  0.00  0.00    -0.350 N 
ATOM      8  HN  UNK N   1      18.999  14.620   6.256  1.00  0.00     0.166 HD
HETATM    9  N   UNK N   1      20.970  16.041   2.533  0.00  0.00    -0.292 N 
ATOM     10  HN  UNK N   1      21.651  16.666   2.101  1.00  0.00     0.172 HD
HETATM   11  N   UNK N   1      19.341  14.335   2.323  0.00  0.00    -0.287 N 
ATOM     12  HN  UNK N   1      18.811  13.692   1.734  1.00  0.00     0.172 HD
HETATM   13  N   UNK N   1      21.525  16.924   4.651  0.00  0.00    -0.308 N 
HETATM   14  O   UNK N   1      20.430  15.168   0.547  0.00  0.00    -0.247 OA
ENDROOT
BRANCH  13  15
HETATM   15  C   UNK N   1      22.528  17.758   3.978  0.00  0.00     0.167 C 
BRANCH  15  16
HETATM   16  C   UNK N   1      22.136  19.236   4.031  0.00  0.00     0.167 C 
BRANCH  16  17
HETATM   17  C   UNK N   1      20.784  19.511   3.331  0.00  0.00     0.179 C 
BRANCH  17  18
HETATM   18  C   UNK N   1      20.865  19.526   1.785  0.00  0.00     0.173 C 
BRANCH  18  19
HETATM   19  C   UNK N   1      20.581  20.928   1.253  0.00  0.00     0.198 C 
BRANCH  19  20
HETATM   20  O   UNK N   1      20.749  20.969  -0.133  0.00  0.00    -0.398 OA
HETATM   21  H   UNK N   1      21.614  21.128  -0.542  0.00  0.00     0.209 HD
ENDBRANCH  19  20
ENDBRANCH  18  19
BRANCH  18  22
HETATM   22  O   UNK N   1      19.966  18.619   1.222  0.00  0.00    -0.391 OA
HETATM   23  H   UNK N   1      20.131  17.808   0.716  0.00  0.00     0.210 HD
ENDBRANCH  18  22
ENDBRANCH  17  18
BRANCH  17  24
HETATM   24  O   UNK N   1      20.329  20.764   3.748  0.00  0.00    -0.390 OA
HETATM   25  H   UNK N   1      20.645  21.657   3.535  0.00  0.00     0.210 HD
ENDBRANCH  17  24
ENDBRANCH  16  17
BRANCH  16  26
HETATM   26  O   UNK N   1      23.146  20.034   3.481  0.00  0.00    -0.391 OA
HETATM   27  H   UNK N   1      23.391  20.919   3.169  0.00  0.00     0.210 HD
ENDBRANCH  16  26
ENDBRANCH  15  16
ENDBRANCH  13  15
BRANCH   5  28
HETATM   28  O   UNK N   1      22.060  17.800   6.776  0.00  0.00    -0.344 OA
HETATM   29  H   UNK N   1      21.830  18.707   6.837  0.00  0.00     0.219 HD
ENDBRANCH   5  28
BRANCH   1  30
HETATM   30  C   UNK N   1      20.164  16.093   8.087  0.00  0.00     0.072 C 
BRANCH  30  31
HETATM   31  C   UNK N   1      18.874  16.815   8.446  0.00  0.00     0.116 C 
BRANCH  31  32
HETATM   32  C   UNK N   1      19.167  18.095   9.158  0.00  0.00     0.139 C 
HETATM   33  O   UNK N   1      20.168  18.735   8.879  0.00  0.00    -0.650 OA
BRANCH  32  34
HETATM   34  O   UNK N   1      18.313  18.559  10.088  0.00  0.00    -0.776 OA
HETATM   35  H   UNK N   1      17.628  18.008  10.411  0.00  0.00     0.167 HD
ENDBRANCH  32  34
ENDBRANCH  31  32
ENDBRANCH  30  31
ENDBRANCH   1  30
BRANCH   4  36
HETATM   36  O   UNK N   1      18.237  13.494   4.205  0.00  0.00    -0.344 OA
HETATM   37  H   UNK N   1      18.443  12.701   4.660  0.00  0.00     0.219 HD
ENDBRANCH   4  36
TORSDOF 15
ENDMDL
MODEL 2
REMARK VINA RESULT:      -6.6     11.589     14.431
REMARK  15 active torsions:
REMARK  status: ('A' for Active; 'I' for Inactive)
REMARK    1  A    between atoms: C_2  and  C_1 
REMARK    2  A    between atoms: C_5  and  C_1 
REMARK    3  A    between atoms: C_8  and  C_2 
REMARK    4  A    between atoms: C_6  and  C_3 
REMARK    5  A    between atoms: N_21  and  C_3 
REMARK    6  A    between atoms: C_7  and  C_4 
REMARK    7  A    between atoms: O_22  and  C_4 
REMARK    8  A    between atoms: C_10  and  C_6 
REMARK    9  A    between atoms: C_6  and  O_23 
REMARK   10  A    between atoms: C_10  and  C_7 
REMARK   11  A    between atoms: C_7  and  O_24 
REMARK   12  A    between atoms: O_26  and  C_8 
REMARK   13  A    between atoms: C_10  and  O_27 
REMARK   14  A    between atoms: O_28  and  C_12 
REMARK   15  A    between atoms: O_29  and  C_13 
ROOT
HETATM    1  C   UNK N   1      32.261  17.365   5.287  0.00  0.00     0.062 A 
HETATM    2  C   UNK N   1      30.479  17.305   6.840  0.00  0.00     0.129 A 
HETATM    3  C   UNK N   1      31.396  17.269   7.903  0.00  0.00     0.145 A 
HETATM    4  C   UNK N   1      29.111  17.301   7.133  0.00  0.00     0.175 A 
HETATM    5  C   UNK N   1      33.187  17.341   6.352  0.00  0.00     0.167 A 
HETATM    6  C   UNK N   1      29.604  17.214   9.455  0.00  0.00     0.327 A 
HETATM    7  N   UNK N   1      30.930  17.355   5.561  0.00  0.00    -0.350 N 
ATOM      8  HN  UNK N   1      30.259  17.386   4.793  1.00  0.00     0.166 HD
HETATM    9  N   UNK N   1      30.942  17.224   9.182  0.00  0.00    -0.292 N 
ATOM     10  HN  UNK N   1      31.612  17.199   9.951  1.00  0.00     0.172 HD
HETATM   11  N   UNK N   1      28.698  17.254   8.427  0.00  0.00    -0.287 N 
ATOM     12  HN  UNK N   1      27.699  17.250   8.636  1.00  0.00     0.172 HD
HETATM   13  N   UNK N   1      32.733  17.299   7.646  0.00  0.00    -0.308 N 
HETATM   14  O   UNK N   1      29.220  17.172  10.607  0.00  0.00    -0.247 OA
ENDROOT
BRANCH  13  15
HETATM   15  C   UNK N   1      33.645  17.317   8.795  0.00  0.00     0.167 C 
BRANCH  15  16
HETATM   16  C   UNK N   1      34.111  15.902   9.146  0.00  0.00     0.167 C 
BRANCH  16  17
HETATM   17  C   UNK N   1      34.498  15.763  10.638  0.00  0.00     0.179 C 
BRANCH  17  18
HETATM   18  C   UNK N   1      35.891  15.132  10.872  0.00  0.00     0.173 C 
BRANCH  18  19
HETATM   19  C   UNK N   1      35.918  14.385  12.204  0.00  0.00     0.198 C 
BRANCH  19  20
HETATM   20  O   UNK N   1      36.474  15.186  13.203  0.00  0.00    -0.398 OA
HETATM   21  H   UNK N   1      35.942  15.549  13.928  0.00  0.00     0.209 HD
ENDBRANCH  19  20
ENDBRANCH  18  19
BRANCH  18  22
HETATM   22  O   UNK N   1      36.897  16.100  10.857  0.00  0.00    -0.391 OA
HETATM   23  H   UNK N   1      37.592  16.289  11.507  0.00  0.00     0.210 HD
ENDBRANCH  18  22
ENDBRANCH  17  18
BRANCH  17  24
HETATM   24  O   UNK N   1      33.548  14.947  11.256  0.00  0.00    -0.390 OA
HETATM   25  H   UNK N   1      33.142  14.115  10.967  0.00  0.00     0.210 HD
ENDBRANCH  17  24
ENDBRANCH  16  17
BRANCH  16  26
HETATM   26  O   UNK N   1      35.176  15.516   8.323  0.00  0.00    -0.391 OA
HETATM   27  H   UNK N   1      36.121  15.619   8.131  0.00  0.00     0.210 HD
ENDBRANCH  16  26
ENDBRANCH  15  16
ENDBRANCH  13  15
BRANCH   5  28
HETATM   28  O   UNK N   1      34.510  17.366   6.093  0.00  0.00    -0.344 OA
HETATM   29  H   UNK N   1      35.131  17.434   6.792  0.00  0.00     0.219 HD
ENDBRANCH   5  28
BRANCH   1  30
HETATM   30  C   UNK N   1      32.711  17.431   3.860  0.00  0.00     0.072 C 
BRANCH  30  31
HETATM   31  C   UNK N   1      32.418  16.125   3.138  0.00  0.00     0.116 C 
BRANCH  31  32
HETATM   32  C   UNK N   1      33.660  15.304   3.008  0.00  0.00     0.139 C 
HETATM   33  O   UNK N   1      34.101  15.032   1.904  0.00  0.00    -0.650 OA
BRANCH  32  34
HETATM   34  O   UNK N   1      34.309  14.887   4.110  0.00  0.00    -0.776 OA
HETATM   35  H   UNK N   1      35.029  14.294   4.033  0.00  0.00     0.167 HD
ENDBRANCH  32  34
ENDBRANCH  31  32
ENDBRANCH  30  31
ENDBRANCH   1  30
BRANCH   4  36
HETATM   36  O   UNK N   1      28.204  17.347   6.144  0.00  0.00    -0.344 OA
HETATM   37  H   UNK N   1      27.305  17.091   6.218  0.00  0.00     0.219 HD
ENDBRANCH   4  36
TORSDOF 15
ENDMDL
MODEL 3
REMARK VINA RESULT:      -6.4      1.685      5.766
REMARK  15 active torsions:
REMARK  status: ('A' for Active; 'I' for Inactive)
REMARK    1  A    between atoms: C_2  and  C_1 
REMARK    2  A    between atoms: C_5  and  C_1 
REMARK    3  A    between atoms: C_8  and  C_2 
REMARK    4  A    between atoms: C_6  and  C_3 
REMARK    5  A    between atoms: N_21  and  C_3 
REMARK    6  A    between atoms: C_7  and  C_4 
REMARK    7  A    between atoms: O_22  and  C_4 
REMARK    8  A    between atoms: C_10  and  C_6 
REMARK    9  A    between atoms: C_6  and  O_23 
REMARK   10  A    between atoms: C_10  and  C_7 
REMARK   11  A    between atoms: C_7  and  O_24 
REMARK   12  A    between atoms: O_26  and  C_8 
REMARK   13  A    between atoms: C_10  and  O_27 
REMARK   14  A    between atoms: O_28  and  C_12 
REMARK   15  A    between atoms: O_29  and  C_13 
ROOT
HETATM    1  C   UNK N   1      20.634  18.558   3.288  0.00  0.00     0.062 A 
HETATM    2  C   UNK N   1      20.433  16.525   2.097  0.00  0.00     0.129 A 
HETATM    3  C   UNK N   1      20.777  15.805   3.252  0.00  0.00     0.145 A 
HETATM    4  C   UNK N   1      20.154  15.817   0.924  0.00  0.00     0.175 A 
HETATM    5  C   UNK N   1      20.970  17.838   4.456  0.00  0.00     0.167 A 
HETATM    6  C   UNK N   1      20.570  13.770   2.053  0.00  0.00     0.327 A 
HETATM    7  N   UNK N   1      20.366  17.880   2.141  0.00  0.00    -0.350 N 
ATOM      8  HN  UNK N   1      20.110  18.398   1.300  1.00  0.00     0.166 HD
HETATM    9  N   UNK N   1      20.839  14.449   3.207  0.00  0.00    -0.292 N 
ATOM     10  HN  UNK N   1      21.089  13.930   4.049  1.00  0.00     0.172 HD
HETATM   11  N   UNK N   1      20.227  14.460   0.920  0.00  0.00    -0.287 N 
ATOM     12  HN  UNK N   1      20.024  13.948   0.061  1.00  0.00     0.172 HD
HETATM   13  N   UNK N   1      21.029  16.468   4.415  0.00  0.00    -0.308 N 
HETATM   14  O   UNK N   1      20.633  12.556   2.035  0.00  0.00    -0.247 OA
ENDROOT
BRANCH  13  15
HETATM   15  C   UNK N   1      21.329  15.664   5.605  0.00  0.00     0.167 C 
BRANCH  15  16
HETATM   16  C   UNK N   1      20.051  15.340   6.382  0.00  0.00     0.167 C 
BRANCH  16  17
HETATM   17  C   UNK N   1      20.104  15.852   7.841  0.00  0.00     0.179 C 
BRANCH  17  18
HETATM   18  C   UNK N   1      19.009  16.890   8.187  0.00  0.00     0.173 C 
BRANCH  18  19
HETATM   19  C   UNK N   1      19.592  18.013   9.041  0.00  0.00     0.198 C 
BRANCH  19  20
HETATM   20  O   UNK N   1      20.273  18.932   8.242  0.00  0.00    -0.398 OA
HETATM   21  H   UNK N   1      19.881  19.305   7.436  0.00  0.00     0.209 HD
ENDBRANCH  19  20
ENDBRANCH  18  19
BRANCH  18  22
HETATM   22  O   UNK N   1      17.941  16.295   8.861  0.00  0.00    -0.391 OA
HETATM   23  H   UNK N   1      17.409  15.518   8.627  0.00  0.00     0.210 HD
ENDBRANCH  18  22
ENDBRANCH  17  18
BRANCH  17  24
HETATM   24  O   UNK N   1      21.346  16.459   8.041  0.00  0.00    -0.390 OA
HETATM   25  H   UNK N   1      21.595  17.396   8.090  0.00  0.00     0.210 HD
ENDBRANCH  17  24
ENDBRANCH  16  17
BRANCH  16  26
HETATM   26  O   UNK N   1      19.791  13.965   6.353  0.00  0.00    -0.391 OA
HETATM   27  H   UNK N   1      19.122  13.276   6.218  0.00  0.00     0.210 HD
ENDBRANCH  16  26
ENDBRANCH  15  16
ENDBRANCH  13  15
BRANCH   5  28
HETATM   28  O   UNK N   1      21.222  18.499   5.603  0.00  0.00    -0.344 OA
HETATM   29  H   UNK N   1      20.521  18.866   6.105  0.00  0.00     0.219 HD
ENDBRANCH   5  28
BRANCH   1  30
HETATM   30  C   UNK N   1      20.537  20.052   3.291  0.00  0.00     0.072 C 
BRANCH  30  31
HETATM   31  C   UNK N   1      21.539  20.663   2.323  0.00  0.00     0.116 C 
BRANCH  31  32
HETATM   32  C   UNK N   1      20.882  20.995   1.024  0.00  0.00     0.139 C 
HETATM   33  O   UNK N   1      20.539  22.142   0.787  0.00  0.00    -0.650 OA
BRANCH  32  34
HETATM   34  O   UNK N   1      20.691  20.035   0.101  0.00  0.00    -0.776 OA
HETATM   35  H   UNK N   1      20.090  19.337   0.269  0.00  0.00     0.167 HD
ENDBRANCH  32  34
ENDBRANCH  31  32
ENDBRANCH  30  31
ENDBRANCH   1  30
BRANCH   4  36
HETATM   36  O   UNK N   1      19.808  16.470  -0.198  0.00  0.00    -0.344 OA
HETATM   37  H   UNK N   1      20.226  17.242  -0.529  0.00  0.00     0.219 HD
ENDBRANCH   4  36
TORSDOF 15
ENDMDL
MODEL 4
REMARK VINA RESULT:      -6.4      1.459      5.944
REMARK  15 active torsions:
REMARK  status: ('A' for Active; 'I' for Inactive)
REMARK    1  A    between atoms: C_2  and  C_1 
REMARK    2  A    between atoms: C_5  and  C_1 
REMARK    3  A    between atoms: C_8  and  C_2 
REMARK    4  A    between atoms: C_6  and  C_3 
REMARK    5  A    between atoms: N_21  and  C_3 
REMARK    6  A    between atoms: C_7  and  C_4 
REMARK    7  A    between atoms: O_22  and  C_4 
REMARK    8  A    between atoms: C_10  and  C_6 
REMARK    9  A    between atoms: C_6  and  O_23 
REMARK   10  A    between atoms: C_10  and  C_7 
REMARK   11  A    between atoms: C_7  and  O_24 
REMARK   12  A    between atoms: O_26  and  C_8 
REMARK   13  A    between atoms: C_10  and  O_27 
REMARK   14  A    between atoms: O_28  and  C_12 
REMARK   15  A    between atoms: O_29  and  C_13 
ROOT
HETATM    1  C   UNK N   1      21.293  18.126   4.249  0.00  0.00     0.062 A 
HETATM    2  C   UNK N   1      20.254  16.044   3.831  0.00  0.00     0.129 A 
HETATM    3  C   UNK N   1      20.402  15.690   5.182  0.00  0.00     0.145 A 
HETATM    4  C   UNK N   1      19.635  15.137   2.965  0.00  0.00     0.175 A 
HETATM    5  C   UNK N   1      21.434  17.781   5.610  0.00  0.00     0.167 A 
HETATM    6  C   UNK N   1      19.356  13.605   4.758  0.00  0.00     0.327 A 
HETATM    7  N   UNK N   1      20.698  17.250   3.397  0.00  0.00    -0.350 N 
ATOM      8  HN  UNK N   1      20.583  17.504   2.416  1.00  0.00     0.166 HD
HETATM    9  N   UNK N   1      19.953  14.484   5.616  0.00  0.00    -0.292 N 
ATOM     10  HN  UNK N   1      20.062  14.231   6.598  1.00  0.00     0.172 HD
HETATM   11  N   UNK N   1      19.199  13.940   3.438  0.00  0.00    -0.287 N 
ATOM     12  HN  UNK N   1      18.750  13.281   2.801  1.00  0.00     0.172 HD
HETATM   13  N   UNK N   1      20.978  16.565   6.053  0.00  0.00    -0.308 N 
HETATM   14  O   UNK N   1      18.962  12.531   5.167  0.00  0.00    -0.247 OA
ENDROOT
BRANCH  13  15
HETATM   15  C   UNK N   1      21.056  16.167   7.463  0.00  0.00     0.167 C 
BRANCH  15  16
HETATM   16  C   UNK N   1      19.661  16.085   8.086  0.00  0.00     0.167 C 
BRANCH  16  17
HETATM   17  C   UNK N   1      19.400  17.227   9.097  0.00  0.00     0.179 C 
BRANCH  17  18
HETATM   18  C   UNK N   1      17.907  17.600   9.257  0.00  0.00     0.173 C 
BRANCH  18  19
HETATM   19  C   UNK N   1      17.674  18.298  10.595  0.00  0.00     0.198 C 
BRANCH  19  20
HETATM   20  O   UNK N   1      18.344  19.522  10.632  0.00  0.00    -0.398 OA
HETATM   21  H   UNK N   1      17.884  20.357  10.810  0.00  0.00     0.209 HD
ENDBRANCH  19  20
ENDBRANCH  18  19
BRANCH  18  22
HETATM   22  O   UNK N   1      17.089  16.472   9.168  0.00  0.00    -0.391 OA
HETATM   23  H   UNK N   1      17.230  15.571   9.498  0.00  0.00     0.210 HD
ENDBRANCH  18  22
ENDBRANCH  17  18
BRANCH  17  24
HETATM   24  O   UNK N   1      20.080  18.362   8.652  0.00  0.00    -0.390 OA
HETATM   25  H   UNK N   1      19.879  19.306   8.759  0.00  0.00     0.210 HD
ENDBRANCH  17  24
ENDBRANCH  16  17
BRANCH  16  26
HETATM   26  O   UNK N   1      19.465  14.838   8.692  0.00  0.00    -0.391 OA
HETATM   27  H   UNK N   1      18.873  14.075   8.788  0.00  0.00     0.210 HD
ENDBRANCH  16  26
ENDBRANCH  15  16
ENDBRANCH  13  15
BRANCH   5  28
HETATM   28  O   UNK N   1      22.008  18.648   6.468  0.00  0.00    -0.344 OA
HETATM   29  H   UNK N   1      22.928  18.822   6.425  0.00  0.00     0.219 HD
ENDBRANCH   5  28
BRANCH   1  30
HETATM   30  C   UNK N   1      21.758  19.450   3.725  0.00  0.00     0.072 C 
BRANCH  30  31
HETATM   31  C   UNK N   1      20.587  20.265   3.197  0.00  0.00     0.116 C 
BRANCH  31  32
HETATM   32  C   UNK N   1      20.755  20.544   1.739  0.00  0.00     0.139 C 
HETATM   33  O   UNK N   1      20.843  19.622   0.946  0.00  0.00    -0.650 OA
BRANCH  32  34
HETATM   34  O   UNK N   1      20.780  21.814   1.295  0.00  0.00    -0.776 OA
HETATM   35  H   UNK N   1      21.477  22.102   0.740  0.00  0.00     0.167 HD
ENDBRANCH  32  34
ENDBRANCH  31  32
ENDBRANCH  30  31
ENDBRANCH   1  30
BRANCH   4  36
HETATM   36  O   UNK N   1      19.464  15.445   1.669  0.00  0.00    -0.344 OA
HETATM   37  H   UNK N   1      19.775  16.223   1.249  0.00  0.00     0.219 HD
ENDBRANCH   4  36
TORSDOF 15
ENDMDL
MODEL 5
REMARK VINA RESULT:      -6.3      2.574      7.225
REMARK  15 active torsions:
REMARK  status: ('A' for Active; 'I' for Inactive)
REMARK    1  A    between atoms: C_2  and  C_1 
REMARK    2  A    between atoms: C_5  and  C_1 
REMARK    3  A    between atoms: C_8  and  C_2 
REMARK    4  A    between atoms: C_6  and  C_3 
REMARK    5  A    between atoms: N_21  and  C_3 
REMARK    6  A    between atoms: C_7  and  C_4 
REMARK    7  A    between atoms: O_22  and  C_4 
REMARK    8  A    between atoms: C_10  and  C_6 
REMARK    9  A    between atoms: C_6  and  O_23 
REMARK   10  A    between atoms: C_10  and  C_7 
REMARK   11  A    between atoms: C_7  and  O_24 
REMARK   12  A    between atoms: O_26  and  C_8 
REMARK   13  A    between atoms: C_10  and  O_27 
REMARK   14  A    between atoms: O_28  and  C_12 
REMARK   15  A    between atoms: O_29  and  C_13 
ROOT
HETATM    1  C   UNK N   1      20.844  18.593   3.636  0.00  0.00     0.062 A 
HETATM    2  C   UNK N   1      23.005  18.090   4.453  0.00  0.00     0.129 A 
HETATM    3  C   UNK N   1      22.525  16.891   5.006  0.00  0.00     0.145 A 
HETATM    4  C   UNK N   1      24.360  18.402   4.602  0.00  0.00     0.175 A 
HETATM    5  C   UNK N   1      20.359  17.384   4.180  0.00  0.00     0.167 A 
HETATM    6  C   UNK N   1      24.695  16.391   5.819  0.00  0.00     0.327 A 
HETATM    7  N   UNK N   1      22.158  18.909   3.780  0.00  0.00    -0.350 N 
ATOM      8  HN  UNK N   1      22.512  19.776   3.376  1.00  0.00     0.166 HD
HETATM    9  N   UNK N   1      23.376  16.070   5.675  0.00  0.00    -0.292 N 
ATOM     10  HN  UNK N   1      23.023  15.200   6.074  1.00  0.00     0.172 HD
HETATM   11  N   UNK N   1      25.178  17.555   5.279  0.00  0.00    -0.287 N 
ATOM     12  HN  UNK N   1      26.166  17.788   5.387  1.00  0.00     0.172 HD
HETATM   13  N   UNK N   1      21.216  16.550   4.853  0.00  0.00    -0.308 N 
HETATM   14  O   UNK N   1      25.439  15.642   6.422  0.00  0.00    -0.247 OA
ENDROOT
BRANCH  13  15
HETATM   15  C   UNK N   1      20.781  15.260   5.401  0.00  0.00     0.167 C 
BRANCH  15  16
HETATM   16  C   UNK N   1      20.346  15.406   6.861  0.00  0.00     0.167 C 
BRANCH  16  17
HETATM   17  C   UNK N   1      20.771  14.195   7.725  0.00  0.00     0.179 C 
BRANCH  17  18
HETATM   18  C   UNK N   1      20.615  14.420   9.249  0.00  0.00     0.173 C 
BRANCH  18  19
HETATM   19  C   UNK N   1      21.264  13.275  10.023  0.00  0.00     0.198 C 
BRANCH  19  20
HETATM   20  O   UNK N   1      22.620  13.532  10.233  0.00  0.00    -0.398 OA
HETATM   21  H   UNK N   1      22.998  13.610  11.123  0.00  0.00     0.209 HD
ENDBRANCH  19  20
ENDBRANCH  18  19
BRANCH  18  22
HETATM   22  O   UNK N   1      19.272  14.529   9.611  0.00  0.00    -0.391 OA
HETATM   23  H   UNK N   1      18.867  14.625  10.487  0.00  0.00     0.210 HD
ENDBRANCH  18  22
ENDBRANCH  17  18
BRANCH  17  24
HETATM   24  O   UNK N   1      22.119  13.932   7.467  0.00  0.00    -0.390 OA
HETATM   25  H   UNK N   1      22.910  14.082   8.009  0.00  0.00     0.210 HD
ENDBRANCH  17  24
ENDBRANCH  16  17
BRANCH  16  26
HETATM   26  O   UNK N   1      18.963  15.608   6.945  0.00  0.00    -0.391 OA
HETATM   27  H   UNK N   1      18.088  15.312   6.647  0.00  0.00     0.210 HD
ENDBRANCH  16  26
ENDBRANCH  15  16
ENDBRANCH  13  15
BRANCH   5  28
HETATM   28  O   UNK N   1      19.061  17.052   4.029  0.00  0.00    -0.344 OA
HETATM   29  H   UNK N   1      18.734  16.242   4.369  0.00  0.00     0.219 HD
ENDBRANCH   5  28
BRANCH   1  30
HETATM   30  C   UNK N   1      19.950  19.523   2.876  0.00  0.00     0.072 C 
BRANCH  30  31
HETATM   31  C   UNK N   1      20.761  20.593   2.162  0.00  0.00     0.116 C 
BRANCH  31  32
HETATM   32  C   UNK N   1      20.850  20.299   0.700  0.00  0.00     0.139 C 
HETATM   33  O   UNK N   1      21.292  21.139  -0.067  0.00  0.00    -0.650 OA
BRANCH  32  34
HETATM   34  O   UNK N   1      20.467  19.098   0.230  0.00  0.00    -0.776 OA
HETATM   35  H   UNK N   1      20.236  19.000  -0.672  0.00  0.00     0.167 HD
ENDBRANCH  32  34
ENDBRANCH  31  32
ENDBRANCH  30  31
ENDBRANCH   1  30
BRANCH   4  36
HETATM   36  O   UNK N   1      24.858  19.533   4.077  0.00  0.00    -0.344 OA
HETATM   37  H   UNK N   1      25.448  19.581   3.350  0.00  0.00     0.219 HD
ENDBRANCH   4  36
TORSDOF 15
ENDMDL
MODEL 6
REMARK VINA RESULT:      -6.3     15.572     17.010
REMARK  15 active torsions:
REMARK  status: ('A' for Active; 'I' for Inactive)
REMARK    1  A    between atoms: C_2  and  C_1 
REMARK    2  A    between atoms: C_5  and  C_1 
REMARK    3  A    between atoms: C_8  and  C_2 
REMARK    4  A    between atoms: C_6  and  C_3 
REMARK    5  A    between atoms: N_21  and  C_3 
REMARK    6  A    between atoms: C_7  and  C_4 
REMARK    7  A    between atoms: O_22  and  C_4 
REMARK    8  A    between atoms: C_10  and  C_6 
REMARK    9  A    between atoms: C_6  and  O_23 
REMARK   10  A    between atoms: C_10  and  C_7 
REMARK   11  A    between atoms: C_7  and  O_24 
REMARK   12  A    between atoms: O_26  and  C_8 
REMARK   13  A    between atoms: C_10  and  O_27 
REMARK   14  A    between atoms: O_28  and  C_12 
REMARK   15  A    between atoms: O_29  and  C_13 
ROOT
HETATM    1  C   UNK N   1      35.777  13.469  14.343  0.00  0.00     0.062 A 
HETATM    2  C   UNK N   1      34.818  11.727  13.064  0.00  0.00     0.129 A 
HETATM    3  C   UNK N   1      34.956  12.496  11.898  0.00  0.00     0.145 A 
HETATM    4  C   UNK N   1      34.261  10.448  12.962  0.00  0.00     0.175 A 
HETATM    5  C   UNK N   1      35.929  14.242  13.172  0.00  0.00     0.167 A 
HETATM    6  C   UNK N   1      33.996  10.744  10.621  0.00  0.00     0.327 A 
HETATM    7  N   UNK N   1      35.233  12.227  14.256  0.00  0.00    -0.350 N 
ATOM      8  HN  UNK N   1      35.135  11.661  15.099  1.00  0.00     0.166 HD
HETATM    9  N   UNK N   1      34.544  11.992  10.706  0.00  0.00    -0.292 N 
ATOM     10  HN  UNK N   1      34.647  12.554   9.860  1.00  0.00     0.172 HD
HETATM   11  N   UNK N   1      33.861   9.980  11.751  0.00  0.00    -0.287 N 
ATOM     12  HN  UNK N   1      33.455   9.046  11.681  1.00  0.00     0.172 HD
HETATM   13  N   UNK N   1      35.518  13.735  11.965  0.00  0.00    -0.308 N 
HETATM   14  O   UNK N   1      33.634  10.313   9.544  0.00  0.00    -0.247 OA
ENDROOT
BRANCH  13  15
HETATM   15  C   UNK N   1      35.689  14.472  10.708  0.00  0.00     0.167 C 
BRANCH  15  16
HETATM   16  C   UNK N   1      34.380  15.139  10.282  0.00  0.00     0.167 C 
BRANCH  16  17
HETATM   17  C   UNK N   1      34.566  16.638   9.944  0.00  0.00     0.179 C 
BRANCH  17  18
HETATM   18  C   UNK N   1      34.693  16.932   8.430  0.00  0.00     0.173 C 
BRANCH  18  19
HETATM   19  C   UNK N   1      34.320  18.384   8.139  0.00  0.00     0.198 C 
BRANCH  19  20
HETATM   20  O   UNK N   1      35.332  19.245   8.565  0.00  0.00    -0.398 OA
HETATM   21  H   UNK N   1      35.846  19.077   9.371  0.00  0.00     0.209 HD
ENDBRANCH  19  20
ENDBRANCH  18  19
BRANCH  18  22
HETATM   22  O   UNK N   1      33.884  16.080   7.677  0.00  0.00    -0.391 OA
HETATM   23  H   UNK N   1      34.084  15.219   7.278  0.00  0.00     0.210 HD
ENDBRANCH  18  22
ENDBRANCH  17  18
BRANCH  17  24
HETATM   24  O   UNK N   1      35.736  17.079  10.566  0.00  0.00    -0.390 OA
HETATM   25  H   UNK N   1      36.643  16.734  10.530  0.00  0.00     0.210 HD
ENDBRANCH  17  24
ENDBRANCH  16  17
BRANCH  16  26
HETATM   26  O   UNK N   1      33.400  14.976  11.269  0.00  0.00    -0.391 OA
HETATM   27  H   UNK N   1      32.594  15.339  11.669  0.00  0.00     0.210 HD
ENDBRANCH  16  26
ENDBRANCH  15  16
ENDBRANCH  13  15
BRANCH   5  28
HETATM   28  O   UNK N   1      36.482  15.469  13.243  0.00  0.00    -0.344 OA
HETATM   29  H   UNK N   1      36.982  15.809  12.527  0.00  0.00     0.219 HD
ENDBRANCH   5  28
BRANCH   1  30
HETATM   30  C   UNK N   1      36.230  13.974  15.678  0.00  0.00     0.072 C 
BRANCH  30  31
HETATM   31  C   UNK N   1      35.303  13.491  16.783  0.00  0.00     0.116 C 
BRANCH  31  32
HETATM   32  C   UNK N   1      35.604  14.194  18.067  0.00  0.00     0.139 C 
HETATM   33  O   UNK N   1      36.126  15.296  18.054  0.00  0.00    -0.650 OA
BRANCH  32  34
HETATM   34  O   UNK N   1      35.274  13.623  19.240  0.00  0.00    -0.776 OA
HETATM   35  H   UNK N   1      35.837  12.978  19.621  0.00  0.00     0.167 HD
ENDBRANCH  32  34
ENDBRANCH  31  32
ENDBRANCH  30  31
ENDBRANCH   1  30
BRANCH   4  36
HETATM   36  O   UNK N   1      34.125   9.677  14.054  0.00  0.00    -0.344 OA
HETATM   37  H   UNK N   1      34.803   9.159  14.442  0.00  0.00     0.219 HD
ENDBRANCH   4  36
TORSDOF 15
ENDMDL
MODEL 7
REMARK VINA RESULT:      -6.3     13.534     14.541
REMARK  15 active torsions:
REMARK  status: ('A' for Active; 'I' for Inactive)
REMARK    1  A    between atoms: C_2  and  C_1 
REMARK    2  A    between atoms: C_5  and  C_1 
REMARK    3  A    between atoms: C_8  and  C_2 
REMARK    4  A    between atoms: C_6  and  C_3 
REMARK    5  A    between atoms: N_21  and  C_3 
REMARK    6  A    between atoms: C_7  and  C_4 
REMARK    7  A    between atoms: O_22  and  C_4 
REMARK    8  A    between atoms: C_10  and  C_6 
REMARK    9  A    between atoms: C_6  and  O_23 
REMARK   10  A    between atoms: C_10  and  C_7 
REMARK   11  A    between atoms: C_7  and  O_24 
REMARK   12  A    between atoms: O_26  and  C_8 
REMARK   13  A    between atoms: C_10  and  O_27 
REMARK   14  A    between atoms: O_28  and  C_12 
REMARK   15  A    between atoms: O_29  and  C_13 
ROOT
HETATM    1  C   UNK N   1      29.380  22.962  -5.327  0.00  0.00     0.062 A 
HETATM    2  C   UNK N   1      27.767  22.273  -6.913  0.00  0.00     0.129 A 
HETATM    3  C   UNK N   1      26.796  23.067  -6.282  0.00  0.00     0.145 A 
HETATM    4  C   UNK N   1      27.401  21.540  -8.046  0.00  0.00     0.175 A 
HETATM    5  C   UNK N   1      28.411  23.771  -4.695  0.00  0.00     0.167 A 
HETATM    6  C   UNK N   1      25.185  22.376  -7.877  0.00  0.00     0.327 A 
HETATM    7  N   UNK N   1      29.033  22.241  -6.426  0.00  0.00    -0.350 N 
ATOM      8  HN  UNK N   1      29.736  21.667  -6.891  1.00  0.00     0.166 HD
HETATM    9  N   UNK N   1      25.531  23.102  -6.774  0.00  0.00    -0.292 N 
ATOM     10  HN  UNK N   1      24.828  23.681  -6.312  1.00  0.00     0.172 HD
HETATM   11  N   UNK N   1      26.124  21.602  -8.507  0.00  0.00    -0.287 N 
ATOM     12  HN  UNK N   1      25.861  21.064  -9.333  1.00  0.00     0.172 HD
HETATM   13  N   UNK N   1      27.132  23.811  -5.192  0.00  0.00    -0.308 N 
HETATM   14  O   UNK N   1      24.046  22.421  -8.300  0.00  0.00    -0.247 OA
ENDROOT
BRANCH  13  15
HETATM   15  C   UNK N   1      26.093  24.666  -4.606  0.00  0.00     0.167 C 
BRANCH  15  16
HETATM   16  C   UNK N   1      26.017  26.011  -5.332  0.00  0.00     0.167 C 
BRANCH  16  17
HETATM   17  C   UNK N   1      26.226  27.209  -4.375  0.00  0.00     0.179 C 
BRANCH  17  18
HETATM   18  C   UNK N   1      27.149  28.316  -4.941  0.00  0.00     0.173 C 
BRANCH  18  19
HETATM   19  C   UNK N   1      26.758  29.676  -4.368  0.00  0.00     0.198 C 
BRANCH  19  20
HETATM   20  O   UNK N   1      25.960  29.518  -3.233  0.00  0.00    -0.398 OA
HETATM   21  H   UNK N   1      26.296  29.111  -2.419  0.00  0.00     0.209 HD
ENDBRANCH  19  20
ENDBRANCH  18  19
BRANCH  18  22
HETATM   22  O   UNK N   1      27.092  28.360  -6.334  0.00  0.00    -0.391 OA
HETATM   23  H   UNK N   1      26.683  27.745  -6.963  0.00  0.00     0.210 HD
ENDBRANCH  18  22
ENDBRANCH  17  18
BRANCH  17  24
HETATM   24  O   UNK N   1      26.807  26.727  -3.200  0.00  0.00    -0.390 OA
HETATM   25  H   UNK N   1      26.650  25.907  -2.704  0.00  0.00     0.210 HD
ENDBRANCH  17  24
ENDBRANCH  16  17
BRANCH  16  26
HETATM   26  O   UNK N   1      24.802  26.134  -6.015  0.00  0.00    -0.391 OA
HETATM   27  H   UNK N   1      23.835  26.077  -5.953  0.00  0.00     0.210 HD
ENDBRANCH  16  26
ENDBRANCH  15  16
ENDBRANCH  13  15
BRANCH   5  28
HETATM   28  O   UNK N   1      28.747  24.503  -3.614  0.00  0.00    -0.344 OA
HETATM   29  H   UNK N   1      28.087  24.933  -3.106  0.00  0.00     0.219 HD
ENDBRANCH   5  28
BRANCH   1  30
HETATM   30  C   UNK N   1      30.792  22.903  -4.832  0.00  0.00     0.072 C 
BRANCH  30  31
HETATM   31  C   UNK N   1      31.022  21.653  -3.995  0.00  0.00     0.116 C 
BRANCH  31  32
HETATM   32  C   UNK N   1      31.481  22.016  -2.621  0.00  0.00     0.139 C 
HETATM   33  O   UNK N   1      30.916  22.902  -2.001  0.00  0.00    -0.650 OA
BRANCH  32  34
HETATM   34  O   UNK N   1      32.501  21.347  -2.053  0.00  0.00    -0.776 OA
HETATM   35  H   UNK N   1      32.331  20.706  -1.392  0.00  0.00     0.167 HD
ENDBRANCH  32  34
ENDBRANCH  31  32
ENDBRANCH  30  31
ENDBRANCH   1  30
BRANCH   4  36
HETATM   36  O   UNK N   1      28.305  20.780  -8.685  0.00  0.00    -0.344 OA
HETATM   37  H   UNK N   1      29.025  21.101  -9.191  0.00  0.00     0.219 HD
ENDBRANCH   4  36
TORSDOF 15
ENDMDL
MODEL 8
REMARK VINA RESULT:      -6.2      3.164      5.152
REMARK  15 active torsions:
REMARK  status: ('A' for Active; 'I' for Inactive)
REMARK    1  A    between atoms: C_2  and  C_1 
REMARK    2  A    between atoms: C_5  and  C_1 
REMARK    3  A    between atoms: C_8  and  C_2 
REMARK    4  A    between atoms: C_6  and  C_3 
REMARK    5  A    between atoms: N_21  and  C_3 
REMARK    6  A    between atoms: C_7  and  C_4 
REMARK    7  A    between atoms: O_22  and  C_4 
REMARK    8  A    between atoms: C_10  and  C_6 
REMARK    9  A    between atoms: C_6  and  O_23 
REMARK   10  A    between atoms: C_10  and  C_7 
REMARK   11  A    between atoms: C_7  and  O_24 
REMARK   12  A    between atoms: O_26  and  C_8 
REMARK   13  A    between atoms: C_10  and  O_27 
REMARK   14  A    between atoms: O_28  and  C_12 
REMARK   15  A    between atoms: O_29  and  C_13 
ROOT
HETATM    1  C   UNK N   1      22.407  16.787   4.851  0.00  0.00     0.062 A 
HETATM    2  C   UNK N   1      21.219  18.172   3.347  0.00  0.00     0.129 A 
HETATM    3  C   UNK N   1      22.231  19.143   3.429  0.00  0.00     0.145 A 
HETATM    4  C   UNK N   1      20.119  18.420   2.519  0.00  0.00     0.175 A 
HETATM    5  C   UNK N   1      23.432  17.754   4.928  0.00  0.00     0.167 A 
HETATM    6  C   UNK N   1      21.037  20.525   1.917  0.00  0.00     0.327 A 
HETATM    7  N   UNK N   1      21.330  17.019   4.054  0.00  0.00    -0.350 N 
ATOM      8  HN  UNK N   1      20.595  16.316   3.986  1.00  0.00     0.166 HD
HETATM    9  N   UNK N   1      22.120  20.294   2.717  0.00  0.00    -0.292 N 
ATOM     10  HN  UNK N   1      22.858  20.996   2.779  1.00  0.00     0.172 HD
HETATM   11  N   UNK N   1      20.045  19.584   1.823  0.00  0.00    -0.287 N 
ATOM     12  HN  UNK N   1      19.239  19.761   1.222  1.00  0.00     0.172 HD
HETATM   13  N   UNK N   1      23.325  18.916   4.207  0.00  0.00    -0.308 N 
HETATM   14  O   UNK N   1      20.957  21.563   1.290  0.00  0.00    -0.247 OA
ENDROOT
BRANCH  13  15
HETATM   15  C   UNK N   1      24.378  19.938   4.212  0.00  0.00     0.167 C 
BRANCH  15  16
HETATM   16  C   UNK N   1      25.412  19.664   3.118  0.00  0.00     0.167 C 
BRANCH  16  17
HETATM   17  C   UNK N   1      26.865  19.811   3.630  0.00  0.00     0.179 C 
BRANCH  17  18
HETATM   18  C   UNK N   1      27.436  18.532   4.287  0.00  0.00     0.173 C 
BRANCH  18  19
HETATM   19  C   UNK N   1      27.981  18.848   5.678  0.00  0.00     0.198 C 
BRANCH  19  20
HETATM   20  O   UNK N   1      26.975  18.720   6.638  0.00  0.00    -0.398 OA
HETATM   21  H   UNK N   1      26.072  19.038   6.484  0.00  0.00     0.209 HD
ENDBRANCH  19  20
ENDBRANCH  18  19
BRANCH  18  22
HETATM   22  O   UNK N   1      28.445  17.967   3.506  0.00  0.00    -0.391 OA
HETATM   23  H   UNK N   1      28.387  17.345   2.764  0.00  0.00     0.210 HD
ENDBRANCH  18  22
ENDBRANCH  17  18
BRANCH  17  24
HETATM   24  O   UNK N   1      26.884  20.829   4.587  0.00  0.00    -0.390 OA
HETATM   25  H   UNK N   1      26.296  21.591   4.715  0.00  0.00     0.210 HD
ENDBRANCH  17  24
ENDBRANCH  16  17
BRANCH  16  26
HETATM   26  O   UNK N   1      25.194  20.496   2.013  0.00  0.00    -0.391 OA
HETATM   27  H   UNK N   1      25.367  20.642   1.070  0.00  0.00     0.210 HD
ENDBRANCH  16  26
ENDBRANCH  15  16
ENDBRANCH  13  15
BRANCH   5  28
HETATM   28  O   UNK N   1      24.512  17.528   5.702  0.00  0.00    -0.344 OA
HETATM   29  H   UNK N   1      24.480  16.894   6.391  0.00  0.00     0.219 HD
ENDBRANCH   5  28
BRANCH   1  30
HETATM   30  C   UNK N   1      22.490  15.496   5.604  0.00  0.00     0.072 C 
BRANCH  30  31
HETATM   31  C   UNK N   1      21.780  15.602   6.944  0.00  0.00     0.116 C 
BRANCH  31  32
HETATM   32  C   UNK N   1      20.481  14.865   6.913  0.00  0.00     0.139 C 
HETATM   33  O   UNK N   1      19.570  15.261   6.204  0.00  0.00    -0.650 OA
BRANCH  32  34
HETATM   34  O   UNK N   1      20.323  13.748   7.645  0.00  0.00    -0.776 OA
HETATM   35  H   UNK N   1      20.235  13.807   8.576  0.00  0.00     0.167 HD
ENDBRANCH  32  34
ENDBRANCH  31  32
ENDBRANCH  30  31
ENDBRANCH   1  30
BRANCH   4  36
HETATM   36  O   UNK N   1      19.137  17.510   2.405  0.00  0.00    -0.344 OA
HETATM   37  H   UNK N   1      19.134  16.785   1.811  0.00  0.00     0.219 HD
ENDBRANCH   4  36
TORSDOF 15
ENDMDL
MODEL 9
REMARK VINA RESULT:      -6.2      2.832      6.092
REMARK  15 active torsions:
REMARK  status: ('A' for Active; 'I' for Inactive)
REMARK    1  A    between atoms: C_2  and  C_1 
REMARK    2  A    between atoms: C_5  and  C_1 
REMARK    3  A    between atoms: C_8  and  C_2 
REMARK    4  A    between atoms: C_6  and  C_3 
REMARK    5  A    between atoms: N_21  and  C_3 
REMARK    6  A    between atoms: C_7  and  C_4 
REMARK    7  A    between atoms: O_22  and  C_4 
REMARK    8  A    between atoms: C_10  and  C_6 
REMARK    9  A    between atoms: C_6  and  O_23 
REMARK   10  A    between atoms: C_10  and  C_7 
REMARK   11  A    between atoms: C_7  and  O_24 
REMARK   12  A    between atoms: O_26  and  C_8 
REMARK   13  A    between atoms: C_10  and  O_27 
REMARK   14  A    between atoms: O_28  and  C_12 
REMARK   15  A    between atoms: O_29  and  C_13 
ROOT
HETATM    1  C   UNK N   1      20.979  18.811   3.736  0.00  0.00     0.062 A 
HETATM    2  C   UNK N   1      23.062  18.059   4.564  0.00  0.00     0.129 A 
HETATM    3  C   UNK N   1      22.523  16.781   4.784  0.00  0.00     0.145 A 
HETATM    4  C   UNK N   1      24.407  18.282   4.879  0.00  0.00     0.175 A 
HETATM    5  C   UNK N   1      20.434  17.525   3.944  0.00  0.00     0.167 A 
HETATM    6  C   UNK N   1      24.615  16.032   5.610  0.00  0.00     0.327 A 
HETATM    7  N   UNK N   1      22.283  19.040   4.044  0.00  0.00    -0.350 N 
ATOM      8  HN  UNK N   1      22.682  19.965   3.881  1.00  0.00     0.166 HD
HETATM    9  N   UNK N   1      23.306  15.799   5.300  0.00  0.00    -0.292 N 
ATOM     10  HN  UNK N   1      22.910  14.872   5.458  1.00  0.00     0.172 HD
HETATM   11  N   UNK N   1      25.156  17.273   5.395  0.00  0.00    -0.287 N 
ATOM     12  HN  UNK N   1      26.136  17.441   5.624  1.00  0.00     0.172 HD
HETATM   13  N   UNK N   1      21.224  16.529   4.462  0.00  0.00    -0.308 N 
HETATM   14  O   UNK N   1      25.298  15.139   6.072  0.00  0.00    -0.247 OA
ENDROOT
BRANCH  13  15
HETATM   15  C   UNK N   1      20.727  15.163   4.660  0.00  0.00     0.167 C 
BRANCH  15  16
HETATM   16  C   UNK N   1      20.970  14.307   3.414  0.00  0.00     0.167 C 
BRANCH  16  17
HETATM   17  C   UNK N   1      19.657  13.730   2.832  0.00  0.00     0.179 C 
BRANCH  17  18
HETATM   18  C   UNK N   1      19.462  14.006   1.321  0.00  0.00     0.173 C 
BRANCH  18  19
HETATM   19  C   UNK N   1      20.180  15.291   0.919  0.00  0.00     0.198 C 
BRANCH  19  20
HETATM   20  O   UNK N   1      19.278  16.354   0.845  0.00  0.00    -0.398 OA
HETATM   21  H   UNK N   1      19.221  17.031   1.537  0.00  0.00     0.209 HD
ENDBRANCH  19  20
ENDBRANCH  18  19
BRANCH  18  22
HETATM   22  O   UNK N   1      18.108  14.103   0.995  0.00  0.00    -0.391 OA
HETATM   23  H   UNK N   1      17.666  14.026   0.135  0.00  0.00     0.210 HD
ENDBRANCH  18  22
ENDBRANCH  17  18
BRANCH  17  24
HETATM   24  O   UNK N   1      18.589  14.314   3.516  0.00  0.00    -0.390 OA
HETATM   25  H   UNK N   1      18.489  15.199   3.901  0.00  0.00     0.210 HD
ENDBRANCH  17  24
ENDBRANCH  16  17
BRANCH  16  26
HETATM   26  O   UNK N   1      21.878  13.279   3.692  0.00  0.00    -0.391 OA
HETATM   27  H   UNK N   1      22.019  12.319   3.730  0.00  0.00     0.210 HD
ENDBRANCH  16  26
ENDBRANCH  15  16
ENDBRANCH  13  15
BRANCH   5  28
HETATM   28  O   UNK N   1      19.147  17.281   3.627  0.00  0.00    -0.344 OA
HETATM   29  H   UNK N   1      18.661  16.622   4.083  0.00  0.00     0.219 HD
ENDBRANCH   5  28
BRANCH   1  30
HETATM   30  C   UNK N   1      20.161  19.922   3.154  0.00  0.00     0.072 C 
BRANCH  30  31
HETATM   31  C   UNK N   1      21.006  20.795   2.238  0.00  0.00     0.116 C 
BRANCH  31  32
HETATM   32  C   UNK N   1      20.889  20.337   0.820  0.00  0.00     0.139 C 
HETATM   33  O   UNK N   1      21.235  21.072  -0.090  0.00  0.00    -0.650 OA
BRANCH  32  34
HETATM   34  O   UNK N   1      20.427  19.104   0.547  0.00  0.00    -0.776 OA
HETATM   35  H   UNK N   1      19.650  18.791   0.966  0.00  0.00     0.167 HD
ENDBRANCH  32  34
ENDBRANCH  31  32
ENDBRANCH  30  31
ENDBRANCH   1  30
BRANCH   4  36
HETATM   36  O   UNK N   1      24.962  19.487   4.671  0.00  0.00    -0.344 OA
HETATM   37  H   UNK N   1      24.725  20.085   3.989  0.00  0.00     0.219 HD
ENDBRANCH   4  36
TORSDOF 15
ENDMDL
