MODEL 1
REMARK VINA RESULT:      -5.5      0.000      0.000
REMARK  15 active torsions:
REMARK  status: ('A' for Active; 'I' for Inactive)
REMARK    1  A    between atoms: S_1  and  C_14 
REMARK    2  A    between atoms: S_1  and  C_15 
REMARK    3  A    between atoms: O_2  and  C_14 
REMARK    4  A    between atoms: O_3  and  C_19 
REMARK    5  A    between atoms: O_4  and  C_20 
REMARK    6  A    between atoms: C_13  and  N_9 
REMARK       I    between atoms: N_9  and  C_22 
REMARK    7  A    between atoms: N_10  and  C_17 
REMARK       I    between atoms: N_10  and  C_21 
REMARK    8  A    between atoms: C_12  and  N_11 
REMARK    9  A    between atoms: C_12  and  C_16 
REMARK   10  A    between atoms: C_12  and  C_19 
REMARK   11  A    between atoms: C_13  and  C_15 
REMARK   12  A    between atoms: C_13  and  C_21 
REMARK   13  A    between atoms: C_16  and  C_18 
REMARK   14  A    between atoms: C_17  and  C_20 
REMARK   15  A    between atoms: C_18  and  C_22 
ROOT
HETATM    1  C   UNK N   1      19.683  15.453   4.272  0.00  0.00     0.185 C 
ENDROOT
BRANCH   1   2
HETATM    2  N   UNK N   1      19.518  16.566   3.356  0.00  0.00    -0.347 N 
HETATM    3  C   UNK N   1      20.561  17.207   2.775  0.00  0.00     0.218 C 
HETATM    4  O   UNK N   1      21.711  16.891   3.035  0.00  0.00    -0.274 OA
HETATM    5  H   UNK N   1      18.605  16.872   3.147  0.00  0.00     0.163 HD
BRANCH   3   6
HETATM    6  C   UNK N   1      20.296  18.285   1.774  0.00  0.00     0.105 C 
BRANCH   6   7
HETATM    7  C   UNK N   1      19.747  19.538   2.438  0.00  0.00     0.044 C 
BRANCH   7   8
HETATM    8  C   UNK N   1      20.772  20.663   2.331  0.00  0.00     0.173 C 
BRANCH   8   9
HETATM    9  N   UNK N   1      22.094  20.143   2.637  0.00  0.00    -0.418 N 
HETATM   10  H   UNK N   1      22.380  19.480   3.356  0.00  0.00     0.150 HD
HETATM   11  H   UNK N   1      22.847  20.493   2.044  0.00  0.00     0.150 HD
ENDBRANCH   8   9
BRANCH   8  12
HETATM   12  C   UNK N   1      20.794  21.318   0.974  0.00  0.00     0.163 C 
HETATM   13  O   UNK N   1      21.172  20.706  -0.014  0.00  0.00    -0.648 OA
BRANCH  12  14
HETATM   14  O   UNK N   1      20.392  22.597   0.846  0.00  0.00    -0.775 OA
HETATM   15  H   UNK N   1      20.107  23.125   1.565  0.00  0.00     0.167 HD
ENDBRANCH  12  14
ENDBRANCH   8  12
ENDBRANCH   7   8
ENDBRANCH   6   7
ENDBRANCH   3   6
ENDBRANCH   1   2
BRANCH   1  16
HETATM   16  C   UNK N   1      19.103  14.197   3.634  0.00  0.00     0.111 C 
BRANCH  16  17
HETATM   17  S   UNK N   1      20.379  13.349   2.651  0.00  0.00    -0.141 SA
BRANCH  17  18
HETATM   18  C   UNK N   1      19.696  13.914   1.066  0.00  0.00     0.238 C 
BRANCH  18  19
HETATM   19  O   UNK N   1      18.396  14.380   1.250  0.00  0.00    -0.391 OA
HETATM   20  H   UNK N   1      17.582  14.129   0.787  0.00  0.00     0.210 HD
ENDBRANCH  18  19
ENDBRANCH  17  18
ENDBRANCH  16  17
ENDBRANCH   1  16
BRANCH   1  21
HETATM   21  C   UNK N   1      19.009  15.764   5.599  0.00  0.00     0.241 C 
HETATM   22  O   UNK N   1      17.814  15.549   5.728  0.00  0.00    -0.271 OA
HETATM   23  N   UNK N   1      19.686  16.302   6.648  0.00  0.00    -0.349 N 
HETATM   24  H   UNK N   1      19.176  16.533   7.458  0.00  0.00     0.163 HD
BRANCH  23  25
HETATM   25  C   UNK N   1      21.107  16.555   6.648  0.00  0.00     0.232 C 
BRANCH  25  26
HETATM   26  C   UNK N   1      21.377  18.020   6.457  0.00  0.00     0.158 C 
HETATM   27  O   UNK N   1      20.871  18.830   7.213  0.00  0.00    -0.649 OA
BRANCH  26  28
HETATM   28  O   UNK N   1      22.184  18.449   5.464  0.00  0.00    -0.775 OA
HETATM   29  H   UNK N   1      22.033  19.124   4.833  0.00  0.00     0.167 HD
ENDBRANCH  26  28
ENDBRANCH  25  26
ENDBRANCH  23  25
ENDBRANCH   1  21
TORSDOF 15
ENDMDL
MODEL 2
REMARK VINA RESULT:      -5.3      2.754      3.750
REMARK  15 active torsions:
REMARK  status: ('A' for Active; 'I' for Inactive)
REMARK    1  A    between atoms: S_1  and  C_14 
REMARK    2  A    between atoms: S_1  and  C_15 
REMARK    3  A    between atoms: O_2  and  C_14 
REMARK    4  A    between atoms: O_3  and  C_19 
REMARK    5  A    between atoms: O_4  and  C_20 
REMARK    6  A    between atoms: C_13  and  N_9 
REMARK       I    between atoms: N_9  and  C_22 
REMARK    7  A    between atoms: N_10  and  C_17 
REMARK       I    between atoms: N_10  and  C_21 
REMARK    8  A    between atoms: C_12  and  N_11 
REMARK    9  A    between atoms: C_12  and  C_16 
REMARK   10  A    between atoms: C_12  and  C_19 
REMARK   11  A    between atoms: C_13  and  C_15 
REMARK   12  A    between atoms: C_13  and  C_21 
REMARK   13  A    between atoms: C_16  and  C_18 
REMARK   14  A    between atoms: C_17  and  C_20 
REMARK   15  A    between atoms: C_18  and  C_22 
ROOT
HETATM    1  C   UNK N   1      21.241  15.817   7.221  0.00  0.00     0.185 C 
ENDROOT
BRANCH   1   2
HETATM    2  N   UNK N   1      20.643  15.853   5.899  0.00  0.00    -0.347 N 
HETATM    3  C   UNK N   1      20.635  16.961   5.120  0.00  0.00     0.218 C 
HETATM    4  O   UNK N   1      21.109  18.012   5.525  0.00  0.00    -0.274 OA
HETATM    5  H   UNK N   1      20.221  15.033   5.552  0.00  0.00     0.163 HD
BRANCH   3   6
HETATM    6  C   UNK N   1      20.077  16.883   3.736  0.00  0.00     0.105 C 
BRANCH   6   7
HETATM    7  C   UNK N   1      20.979  17.584   2.732  0.00  0.00     0.044 C 
BRANCH   7   8
HETATM    8  C   UNK N   1      20.259  18.803   2.164  0.00  0.00     0.173 C 
BRANCH   8   9
HETATM    9  N   UNK N   1      18.834  18.690   2.426  0.00  0.00    -0.418 N 
HETATM   10  H   UNK N   1      18.044  18.893   1.814  0.00  0.00     0.150 HD
HETATM   11  H   UNK N   1      18.589  18.357   3.358  0.00  0.00     0.150 HD
ENDBRANCH   8   9
BRANCH   8  12
HETATM   12  C   UNK N   1      20.768  20.108   2.724  0.00  0.00     0.163 C 
HETATM   13  O   UNK N   1      21.510  20.825   2.069  0.00  0.00    -0.648 OA
BRANCH  12  14
HETATM   14  O   UNK N   1      20.401  20.489   3.962  0.00  0.00    -0.775 OA
HETATM   15  H   UNK N   1      20.979  20.911   4.566  0.00  0.00     0.167 HD
ENDBRANCH  12  14
ENDBRANCH   8  12
ENDBRANCH   7   8
ENDBRANCH   6   7
ENDBRANCH   3   6
ENDBRANCH   1   2
BRANCH   1  16
HETATM   16  C   UNK N   1      22.353  14.776   7.233  0.00  0.00     0.111 C 
BRANCH  16  17
HETATM   17  S   UNK N   1      22.286  13.772   5.715  0.00  0.00    -0.141 SA
BRANCH  17  18
HETATM   18  C   UNK N   1      22.043  12.215   6.618  0.00  0.00     0.238 C 
BRANCH  18  19
HETATM   19  O   UNK N   1      20.718  12.116   7.040  0.00  0.00    -0.391 OA
HETATM   20  H   UNK N   1      20.357  11.689   7.833  0.00  0.00     0.210 HD
ENDBRANCH  18  19
ENDBRANCH  17  18
ENDBRANCH  16  17
ENDBRANCH   1  16
BRANCH   1  21
HETATM   21  C   UNK N   1      20.181  15.508   8.267  0.00  0.00     0.241 C 
HETATM   22  O   UNK N   1      19.959  14.346   8.567  0.00  0.00    -0.271 OA
HETATM   23  N   UNK N   1      19.447  16.484   8.864  0.00  0.00    -0.349 N 
HETATM   24  H   UNK N   1      18.736  16.210   9.488  0.00  0.00     0.163 HD
BRANCH  23  25
HETATM   25  C   UNK N   1      19.644  17.896   8.640  0.00  0.00     0.232 C 
BRANCH  25  26
HETATM   26  C   UNK N   1      19.133  18.687   9.809  0.00  0.00     0.158 C 
HETATM   27  O   UNK N   1      19.843  19.537  10.319  0.00  0.00    -0.649 OA
BRANCH  26  28
HETATM   28  O   UNK N   1      17.892  18.478  10.295  0.00  0.00    -0.775 OA
HETATM   29  H   UNK N   1      17.065  18.642   9.888  0.00  0.00     0.167 HD
ENDBRANCH  26  28
ENDBRANCH  25  26
ENDBRANCH  23  25
ENDBRANCH   1  21
TORSDOF 15
ENDMDL
MODEL 3
REMARK VINA RESULT:      -5.3      2.385      3.488
REMARK  15 active torsions:
REMARK  status: ('A' for Active; 'I' for Inactive)
REMARK    1  A    between atoms: S_1  and  C_14 
REMARK    2  A    between atoms: S_1  and  C_15 
REMARK    3  A    between atoms: O_2  and  C_14 
REMARK    4  A    between atoms: O_3  and  C_19 
REMARK    5  A    between atoms: O_4  and  C_20 
REMARK    6  A    between atoms: C_13  and  N_9 
REMARK       I    between atoms: N_9  and  C_22 
REMARK    7  A    between atoms: N_10  and  C_17 
REMARK       I    between atoms: N_10  and  C_21 
REMARK    8  A    between atoms: C_12  and  N_11 
REMARK    9  A    between atoms: C_12  and  C_16 
REMARK   10  A    between atoms: C_12  and  C_19 
REMARK   11  A    between atoms: C_13  and  C_15 
REMARK   12  A    between atoms: C_13  and  C_21 
REMARK   13  A    between atoms: C_16  and  C_18 
REMARK   14  A    between atoms: C_17  and  C_20 
REMARK   15  A    between atoms: C_18  and  C_22 
ROOT
HETATM    1  C   UNK N   1      20.430  15.886   6.053  0.00  0.00     0.185 C 
ENDROOT
BRANCH   1   2
HETATM    2  N   UNK N   1      20.824  16.826   5.021  0.00  0.00    -0.347 N 
HETATM    3  C   UNK N   1      21.561  17.934   5.272  0.00  0.00     0.218 C 
HETATM    4  O   UNK N   1      21.899  18.214   6.412  0.00  0.00    -0.274 OA
HETATM    5  H   UNK N   1      20.542  16.652   4.093  0.00  0.00     0.163 HD
BRANCH   3   6
HETATM    6  C   UNK N   1      21.999  18.800   4.135  0.00  0.00     0.105 C 
BRANCH   6   7
HETATM    7  C   UNK N   1      20.876  19.713   3.668  0.00  0.00     0.044 C 
BRANCH   7   8
HETATM    8  C   UNK N   1      20.500  19.365   2.231  0.00  0.00     0.173 C 
BRANCH   8   9
HETATM    9  N   UNK N   1      19.091  19.017   2.170  0.00  0.00    -0.418 N 
HETATM   10  H   UNK N   1      18.400  18.975   2.919  0.00  0.00     0.150 HD
HETATM   11  H   UNK N   1      18.741  18.780   1.242  0.00  0.00     0.150 HD
ENDBRANCH   8   9
BRANCH   8  12
HETATM   12  C   UNK N   1      20.783  20.480   1.256  0.00  0.00     0.163 C 
HETATM   13  O   UNK N   1      21.204  21.561   1.643  0.00  0.00    -0.648 OA
BRANCH  12  14
HETATM   14  O   UNK N   1      20.568  20.285  -0.058  0.00  0.00    -0.775 OA
HETATM   15  H   UNK N   1      20.722  19.469  -0.493  0.00  0.00     0.167 HD
ENDBRANCH  12  14
ENDBRANCH   8  12
ENDBRANCH   7   8
ENDBRANCH   6   7
ENDBRANCH   3   6
ENDBRANCH   1   2
BRANCH   1  16
HETATM   16  C   UNK N   1      20.579  14.468   5.514  0.00  0.00     0.111 C 
BRANCH  16  17
HETATM   17  S   UNK N   1      22.227  13.813   5.925  0.00  0.00    -0.141 SA
BRANCH  17  18
HETATM   18  C   UNK N   1      22.355  14.778   7.458  0.00  0.00     0.238 C 
BRANCH  18  19
HETATM   19  O   UNK N   1      22.192  13.940   8.559  0.00  0.00    -0.391 OA
HETATM   20  H   UNK N   1      21.376  13.598   8.955  0.00  0.00     0.210 HD
ENDBRANCH  18  19
ENDBRANCH  17  18
ENDBRANCH  16  17
ENDBRANCH   1  16
BRANCH   1  21
HETATM   21  C   UNK N   1      19.001  16.163   6.495  0.00  0.00     0.241 C 
HETATM   22  O   UNK N   1      18.078  15.881   5.748  0.00  0.00    -0.271 OA
HETATM   23  N   UNK N   1      18.713  16.744   7.690  0.00  0.00    -0.349 N 
HETATM   24  H   UNK N   1      17.771  16.949   7.889  0.00  0.00     0.163 HD
BRANCH  23  25
HETATM   25  C   UNK N   1      19.703  17.077   8.687  0.00  0.00     0.232 C 
BRANCH  25  26
HETATM   26  C   UNK N   1      19.278  18.292   9.460  0.00  0.00     0.158 C 
HETATM   27  O   UNK N   1      20.090  19.171   9.696  0.00  0.00    -0.649 OA
BRANCH  26  28
HETATM   28  O   UNK N   1      18.006  18.429   9.886  0.00  0.00    -0.775 OA
HETATM   29  H   UNK N   1      17.591  19.176  10.270  0.00  0.00     0.167 HD
ENDBRANCH  26  28
ENDBRANCH  25  26
ENDBRANCH  23  25
ENDBRANCH   1  21
TORSDOF 15
ENDMDL
MODEL 4
REMARK VINA RESULT:      -5.1      2.630      3.891
REMARK  15 active torsions:
REMARK  status: ('A' for Active; 'I' for Inactive)
REMARK    1  A    between atoms: S_1  and  C_14 
REMARK    2  A    between atoms: S_1  and  C_15 
REMARK    3  A    between atoms: O_2  and  C_14 
REMARK    4  A    between atoms: O_3  and  C_19 
REMARK    5  A    between atoms: O_4  and  C_20 
REMARK    6  A    between atoms: C_13  and  N_9 
REMARK       I    between atoms: N_9  and  C_22 
REMARK    7  A    between atoms: N_10  and  C_17 
REMARK       I    between atoms: N_10  and  C_21 
REMARK    8  A    between atoms: C_12  and  N_11 
REMARK    9  A    between atoms: C_12  and  C_16 
REMARK   10  A    between atoms: C_12  and  C_19 
REMARK   11  A    between atoms: C_13  and  C_15 
REMARK   12  A    between atoms: C_13  and  C_21 
REMARK   13  A    between atoms: C_16  and  C_18 
REMARK   14  A    between atoms: C_17  and  C_20 
REMARK   15  A    between atoms: C_18  and  C_22 
ROOT
HETATM    1  C   UNK N   1      21.018  16.693   5.330  0.00  0.00     0.185 C 
ENDROOT
BRANCH   1   2
HETATM    2  N   UNK N   1      20.384  17.241   4.146  0.00  0.00    -0.347 N 
HETATM    3  C   UNK N   1      20.745  16.895   2.886  0.00  0.00     0.218 C 
HETATM    4  O   UNK N   1      21.667  16.120   2.692  0.00  0.00    -0.274 OA
HETATM    5  H   UNK N   1      19.657  17.895   4.262  0.00  0.00     0.163 HD
BRANCH   3   6
HETATM    6  C   UNK N   1      19.977  17.441   1.726  0.00  0.00     0.105 C 
BRANCH   6   7
HETATM    7  C   UNK N   1      19.560  18.884   1.964  0.00  0.00     0.044 C 
BRANCH   7   8
HETATM    8  C   UNK N   1      20.735  19.810   1.663  0.00  0.00     0.173 C 
BRANCH   8   9
HETATM    9  N   UNK N   1      20.351  20.761   0.634  0.00  0.00    -0.418 N 
HETATM   10  H   UNK N   1      20.057  21.733   0.727  0.00  0.00     0.150 HD
HETATM   11  H   UNK N   1      20.379  20.403  -0.321  0.00  0.00     0.150 HD
ENDBRANCH   8   9
BRANCH   8  12
HETATM   12  C   UNK N   1      21.227  20.558   2.877  0.00  0.00     0.163 C 
HETATM   13  O   UNK N   1      22.158  21.346   2.795  0.00  0.00    -0.648 OA
BRANCH  12  14
HETATM   14  O   UNK N   1      20.634  20.357   4.068  0.00  0.00    -0.775 OA
HETATM   15  H   UNK N   1      20.060  19.638   4.247  0.00  0.00     0.167 HD
ENDBRANCH  12  14
ENDBRANCH   8  12
ENDBRANCH   7   8
ENDBRANCH   6   7
ENDBRANCH   3   6
ENDBRANCH   1   2
BRANCH   1  16
HETATM   16  C   UNK N   1      19.940  16.161   6.268  0.00  0.00     0.111 C 
BRANCH  16  17
HETATM   17  S   UNK N   1      20.612  14.811   7.289  0.00  0.00    -0.141 SA
BRANCH  17  18
HETATM   18  C   UNK N   1      20.272  15.670   8.852  0.00  0.00     0.238 C 
BRANCH  18  19
HETATM   19  O   UNK N   1      18.907  15.627   9.129  0.00  0.00    -0.391 OA
HETATM   20  H   UNK N   1      18.380  16.193   9.714  0.00  0.00     0.210 HD
ENDBRANCH  18  19
ENDBRANCH  17  18
ENDBRANCH  16  17
ENDBRANCH   1  16
BRANCH   1  21
HETATM   21  C   UNK N   1      21.867  17.756   6.008  0.00  0.00     0.241 C 
HETATM   22  O   UNK N   1      21.326  18.598   6.708  0.00  0.00    -0.271 OA
HETATM   23  N   UNK N   1      23.215  17.822   5.841  0.00  0.00    -0.349 N 
HETATM   24  H   UNK N   1      23.696  18.571   6.261  0.00  0.00     0.163 HD
BRANCH  23  25
HETATM   25  C   UNK N   1      23.984  16.862   5.086  0.00  0.00     0.232 C 
BRANCH  25  26
HETATM   26  C   UNK N   1      24.559  15.818   5.999  0.00  0.00     0.158 C 
HETATM   27  O   UNK N   1      24.004  14.738   6.106  0.00  0.00    -0.649 OA
BRANCH  26  28
HETATM   28  O   UNK N   1      25.690  16.056   6.695  0.00  0.00    -0.775 OA
HETATM   29  H   UNK N   1      25.822  16.625   7.427  0.00  0.00     0.167 HD
ENDBRANCH  26  28
ENDBRANCH  25  26
ENDBRANCH  23  25
ENDBRANCH   1  21
TORSDOF 15
ENDMDL
MODEL 5
REMARK VINA RESULT:      -5.1     10.257     12.442
REMARK  15 active torsions:
REMARK  status: ('A' for Active; 'I' for Inactive)
REMARK    1  A    between atoms: S_1  and  C_14 
REMARK    2  A    between atoms: S_1  and  C_15 
REMARK    3  A    between atoms: O_2  and  C_14 
REMARK    4  A    between atoms: O_3  and  C_19 
REMARK    5  A    between atoms: O_4  and  C_20 
REMARK    6  A    between atoms: C_13  and  N_9 
REMARK       I    between atoms: N_9  and  C_22 
REMARK    7  A    between atoms: N_10  and  C_17 
REMARK       I    between atoms: N_10  and  C_21 
REMARK    8  A    between atoms: C_12  and  N_11 
REMARK    9  A    between atoms: C_12  and  C_16 
REMARK   10  A    between atoms: C_12  and  C_19 
REMARK   11  A    between atoms: C_13  and  C_15 
REMARK   12  A    between atoms: C_13  and  C_21 
REMARK   13  A    between atoms: C_16  and  C_18 
REMARK   14  A    between atoms: C_17  and  C_20 
REMARK   15  A    between atoms: C_18  and  C_22 
ROOT
HETATM    1  C   UNK N   1      33.000  17.015   8.195  0.00  0.00     0.185 C 
ENDROOT
BRANCH   1   2
HETATM    2  N   UNK N   1      32.025  18.009   8.604  0.00  0.00    -0.347 N 
HETATM    3  C   UNK N   1      30.700  17.745   8.712  0.00  0.00     0.218 C 
HETATM    4  O   UNK N   1      30.258  16.643   8.426  0.00  0.00    -0.274 OA
HETATM    5  H   UNK N   1      32.340  18.919   8.811  0.00  0.00     0.163 HD
BRANCH   3   6
HETATM    6  C   UNK N   1      29.779  18.803   9.227  0.00  0.00     0.105 C 
BRANCH   6   7
HETATM    7  C   UNK N   1      28.341  18.542   8.807  0.00  0.00     0.044 C 
BRANCH   7   8
HETATM    8  C   UNK N   1      28.151  18.964   7.353  0.00  0.00     0.173 C 
BRANCH   8   9
HETATM    9  N   UNK N   1      27.439  17.920   6.636  0.00  0.00    -0.418 N 
HETATM   10  H   UNK N   1      26.517  17.522   6.816  0.00  0.00     0.150 HD
HETATM   11  H   UNK N   1      27.933  17.529   5.834  0.00  0.00     0.150 HD
ENDBRANCH   8   9
BRANCH   8  12
HETATM   12  C   UNK N   1      27.408  20.268   7.206  0.00  0.00     0.163 C 
HETATM   13  O   UNK N   1      27.755  21.099   6.381  0.00  0.00    -0.648 OA
BRANCH  12  14
HETATM   14  O   UNK N   1      26.346  20.521   7.994  0.00  0.00    -0.775 OA
HETATM   15  H   UNK N   1      26.287  20.246   8.888  0.00  0.00     0.167 HD
ENDBRANCH  12  14
ENDBRANCH   8  12
ENDBRANCH   7   8
ENDBRANCH   6   7
ENDBRANCH   3   6
ENDBRANCH   1   2
BRANCH   1  16
HETATM   16  C   UNK N   1      33.968  16.769   9.345  0.00  0.00     0.111 C 
BRANCH  16  17
HETATM   17  S   UNK N   1      34.475  15.021   9.372  0.00  0.00    -0.141 SA
BRANCH  17  18
HETATM   18  C   UNK N   1      32.767  14.405   9.332  0.00  0.00     0.238 C 
BRANCH  18  19
HETATM   19  O   UNK N   1      32.024  15.006  10.346  0.00  0.00    -0.391 OA
HETATM   20  H   UNK N   1      32.100  14.900  11.307  0.00  0.00     0.210 HD
ENDBRANCH  18  19
ENDBRANCH  17  18
ENDBRANCH  16  17
ENDBRANCH   1  16
BRANCH   1  21
HETATM   21  C   UNK N   1      33.730  17.482   6.946  0.00  0.00     0.241 C 
HETATM   22  O   UNK N   1      34.631  18.300   7.050  0.00  0.00    -0.271 OA
HETATM   23  N   UNK N   1      33.397  17.041   5.704  0.00  0.00    -0.349 N 
HETATM   24  H   UNK N   1      33.871  17.429   4.933  0.00  0.00     0.163 HD
BRANCH  23  25
HETATM   25  C   UNK N   1      32.391  16.039   5.445  0.00  0.00     0.232 C 
BRANCH  25  26
HETATM   26  C   UNK N   1      31.149  16.675   4.890  0.00  0.00     0.158 C 
HETATM   27  O   UNK N   1      31.198  17.266   3.825  0.00  0.00    -0.649 OA
BRANCH  26  28
HETATM   28  O   UNK N   1      29.976  16.591   5.551  0.00  0.00    -0.775 OA
HETATM   29  H   UNK N   1      29.314  15.931   5.494  0.00  0.00     0.167 HD
ENDBRANCH  26  28
ENDBRANCH  25  26
ENDBRANCH  23  25
ENDBRANCH   1  21
TORSDOF 15
ENDMDL
MODEL 6
REMARK VINA RESULT:      -5.0     13.164     15.562
REMARK  15 active torsions:
REMARK  status: ('A' for Active; 'I' for Inactive)
REMARK    1  A    between atoms: S_1  and  C_14 
REMARK    2  A    between atoms: S_1  and  C_15 
REMARK    3  A    between atoms: O_2  and  C_14 
REMARK    4  A    between atoms: O_3  and  C_19 
REMARK    5  A    between atoms: O_4  and  C_20 
REMARK    6  A    between atoms: C_13  and  N_9 
REMARK       I    between atoms: N_9  and  C_22 
REMARK    7  A    between atoms: N_10  and  C_17 
REMARK       I    between atoms: N_10  and  C_21 
REMARK    8  A    between atoms: C_12  and  N_11 
REMARK    9  A    between atoms: C_12  and  C_16 
REMARK   10  A    between atoms: C_12  and  C_19 
REMARK   11  A    between atoms: C_13  and  C_15 
REMARK   12  A    between atoms: C_13  and  C_21 
REMARK   13  A    between atoms: C_16  and  C_18 
REMARK   14  A    between atoms: C_17  and  C_20 
REMARK   15  A    between atoms: C_18  and  C_22 
ROOT
HETATM    1  C   UNK N   1      32.481  16.027   8.510  0.00  0.00     0.185 C 
ENDROOT
BRANCH   1   2
HETATM    2  N   UNK N   1      33.455  15.855   9.571  0.00  0.00    -0.347 N 
HETATM    3  C   UNK N   1      34.462  16.731   9.800  0.00  0.00     0.218 C 
HETATM    4  O   UNK N   1      34.618  17.705   9.081  0.00  0.00    -0.274 OA
HETATM    5  H   UNK N   1      33.381  15.063  10.152  0.00  0.00     0.163 HD
BRANCH   3   6
HETATM    6  C   UNK N   1      35.366  16.522  10.972  0.00  0.00     0.105 C 
BRANCH   6   7
HETATM    7  C   UNK N   1      36.403  15.447  10.689  0.00  0.00     0.044 C 
BRANCH   7   8
HETATM    8  C   UNK N   1      36.327  14.368  11.766  0.00  0.00     0.173 C 
BRANCH   8   9
HETATM    9  N   UNK N   1      36.422  14.986  13.078  0.00  0.00    -0.418 N 
HETATM   10  H   UNK N   1      36.335  15.968  13.340  0.00  0.00     0.150 HD
HETATM   11  H   UNK N   1      36.601  14.343  13.849  0.00  0.00     0.150 HD
ENDBRANCH   8   9
BRANCH   8  12
HETATM   12  C   UNK N   1      35.066  13.544  11.692  0.00  0.00     0.163 C 
HETATM   13  O   UNK N   1      34.646  13.134  10.620  0.00  0.00    -0.648 OA
BRANCH  12  14
HETATM   14  O   UNK N   1      34.393  13.255  12.821  0.00  0.00    -0.775 OA
HETATM   15  H   UNK N   1      34.295  12.386  13.157  0.00  0.00     0.167 HD
ENDBRANCH  12  14
ENDBRANCH   8  12
ENDBRANCH   7   8
ENDBRANCH   6   7
ENDBRANCH   3   6
ENDBRANCH   1   2
BRANCH   1  16
HETATM   16  C   UNK N   1      31.127  16.352   9.128  0.00  0.00     0.111 C 
BRANCH  16  17
HETATM   17  S   UNK N   1      30.150  17.383   7.988  0.00  0.00    -0.141 SA
BRANCH  17  18
HETATM   18  C   UNK N   1      28.756  17.541   9.142  0.00  0.00     0.238 C 
BRANCH  18  19
HETATM   19  O   UNK N   1      28.873  18.727   9.864  0.00  0.00    -0.391 OA
HETATM   20  H   UNK N   1      29.341  18.895  10.697  0.00  0.00     0.210 HD
ENDBRANCH  18  19
ENDBRANCH  17  18
ENDBRANCH  16  17
ENDBRANCH   1  16
BRANCH   1  21
HETATM   21  C   UNK N   1      32.412  14.773   7.653  0.00  0.00     0.241 C 
HETATM   22  O   UNK N   1      32.208  13.694   8.188  0.00  0.00    -0.271 OA
HETATM   23  N   UNK N   1      32.600  14.803   6.307  0.00  0.00    -0.349 N 
HETATM   24  H   UNK N   1      32.601  13.947   5.821  0.00  0.00     0.163 HD
BRANCH  23  25
HETATM   25  C   UNK N   1      32.796  16.013   5.545  0.00  0.00     0.232 C 
BRANCH  25  26
HETATM   26  C   UNK N   1      34.154  16.591   5.822  0.00  0.00     0.158 C 
HETATM   27  O   UNK N   1      35.144  15.888   5.708  0.00  0.00    -0.649 OA
BRANCH  26  28
HETATM   28  O   UNK N   1      34.294  17.883   6.184  0.00  0.00    -0.775 OA
HETATM   29  H   UNK N   1      33.949  18.325   6.935  0.00  0.00     0.167 HD
ENDBRANCH  26  28
ENDBRANCH  25  26
ENDBRANCH  23  25
ENDBRANCH   1  21
TORSDOF 15
ENDMDL
MODEL 7
REMARK VINA RESULT:      -5.0      3.166      4.758
REMARK  15 active torsions:
REMARK  status: ('A' for Active; 'I' for Inactive)
REMARK    1  A    between atoms: S_1  and  C_14 
REMARK    2  A    between atoms: S_1  and  C_15 
REMARK    3  A    between atoms: O_2  and  C_14 
REMARK    4  A    between atoms: O_3  and  C_19 
REMARK    5  A    between atoms: O_4  and  C_20 
REMARK    6  A    between atoms: C_13  and  N_9 
REMARK       I    between atoms: N_9  and  C_22 
REMARK    7  A    between atoms: N_10  and  C_17 
REMARK       I    between atoms: N_10  and  C_21 
REMARK    8  A    between atoms: C_12  and  N_11 
REMARK    9  A    between atoms: C_12  and  C_16 
REMARK   10  A    between atoms: C_12  and  C_19 
REMARK   11  A    between atoms: C_13  and  C_15 
REMARK   12  A    between atoms: C_13  and  C_21 
REMARK   13  A    between atoms: C_16  and  C_18 
REMARK   14  A    between atoms: C_17  and  C_20 
REMARK   15  A    between atoms: C_18  and  C_22 
ROOT
HETATM    1  C   UNK N   1      21.640  18.076   4.866  0.00  0.00     0.185 C 
ENDROOT
BRANCH   1   2
HETATM    2  N   UNK N   1      23.049  18.372   5.045  0.00  0.00    -0.347 N 
HETATM    3  C   UNK N   1      24.034  17.679   4.425  0.00  0.00     0.218 C 
HETATM    4  O   UNK N   1      23.772  16.730   3.704  0.00  0.00    -0.274 OA
HETATM    5  H   UNK N   1      23.301  19.110   5.646  0.00  0.00     0.163 HD
BRANCH   3   6
HETATM    6  C   UNK N   1      25.456  18.109   4.597  0.00  0.00     0.105 C 
BRANCH   6   7
HETATM    7  C   UNK N   1      25.545  19.531   5.130  0.00  0.00     0.044 C 
BRANCH   7   8
HETATM    8  C   UNK N   1      26.033  20.460   4.022  0.00  0.00     0.173 C 
BRANCH   8   9
HETATM    9  N   UNK N   1      27.231  19.904   3.416  0.00  0.00    -0.418 N 
HETATM   10  H   UNK N   1      27.340  19.062   2.851  0.00  0.00     0.150 HD
HETATM   11  H   UNK N   1      28.086  20.434   3.578  0.00  0.00     0.150 HD
ENDBRANCH   8   9
BRANCH   8  12
HETATM   12  C   UNK N   1      24.998  20.703   2.953  0.00  0.00     0.163 C 
HETATM   13  O   UNK N   1      25.304  20.698   1.769  0.00  0.00    -0.648 OA
BRANCH  12  14
HETATM   14  O   UNK N   1      23.718  20.930   3.304  0.00  0.00    -0.775 OA
HETATM   15  H   UNK N   1      23.093  21.344   2.743  0.00  0.00     0.167 HD
ENDBRANCH  12  14
ENDBRANCH   8  12
ENDBRANCH   7   8
ENDBRANCH   6   7
ENDBRANCH   3   6
ENDBRANCH   1   2
BRANCH   1  16
HETATM   16  C   UNK N   1      20.984  19.230   4.116  0.00  0.00     0.111 C 
BRANCH  16  17
HETATM   17  S   UNK N   1      20.560  18.713   2.422  0.00  0.00    -0.141 SA
BRANCH  17  18
HETATM   18  C   UNK N   1      20.605  20.408   1.771  0.00  0.00     0.238 C 
BRANCH  18  19
HETATM   19  O   UNK N   1      21.762  20.594   1.016  0.00  0.00    -0.391 OA
HETATM   20  H   UNK N   1      22.208  21.419   0.768  0.00  0.00     0.210 HD
ENDBRANCH  18  19
ENDBRANCH  17  18
ENDBRANCH  16  17
ENDBRANCH   1  16
BRANCH   1  21
HETATM   21  C   UNK N   1      20.978  17.844   6.215  0.00  0.00     0.241 C 
HETATM   22  O   UNK N   1      21.024  18.722   7.063  0.00  0.00    -0.271 OA
HETATM   23  N   UNK N   1      20.356  16.676   6.525  0.00  0.00    -0.349 N 
HETATM   24  H   UNK N   1      20.000  16.570   7.438  0.00  0.00     0.163 HD
BRANCH  23  25
HETATM   25  C   UNK N   1      20.184  15.581   5.601  0.00  0.00     0.232 C 
BRANCH  25  26
HETATM   26  C   UNK N   1      18.725  15.281   5.410  0.00  0.00     0.158 C 
HETATM   27  O   UNK N   1      17.888  16.048   5.856  0.00  0.00    -0.649 OA
BRANCH  26  28
HETATM   28  O   UNK N   1      18.329  14.179   4.741  0.00  0.00    -0.775 OA
HETATM   29  H   UNK N   1      18.741  13.750   4.018  0.00  0.00     0.167 HD
ENDBRANCH  26  28
ENDBRANCH  25  26
ENDBRANCH  23  25
ENDBRANCH   1  21
TORSDOF 15
ENDMDL
MODEL 8
REMARK VINA RESULT:      -4.9     11.387     13.136
REMARK  15 active torsions:
REMARK  status: ('A' for Active; 'I' for Inactive)
REMARK    1  A    between atoms: S_1  and  C_14 
REMARK    2  A    between atoms: S_1  and  C_15 
REMARK    3  A    between atoms: O_2  and  C_14 
REMARK    4  A    between atoms: O_3  and  C_19 
REMARK    5  A    between atoms: O_4  and  C_20 
REMARK    6  A    between atoms: C_13  and  N_9 
REMARK       I    between atoms: N_9  and  C_22 
REMARK    7  A    between atoms: N_10  and  C_17 
REMARK       I    between atoms: N_10  and  C_21 
REMARK    8  A    between atoms: C_12  and  N_11 
REMARK    9  A    between atoms: C_12  and  C_16 
REMARK   10  A    between atoms: C_12  and  C_19 
REMARK   11  A    between atoms: C_13  and  C_15 
REMARK   12  A    between atoms: C_13  and  C_21 
REMARK   13  A    between atoms: C_16  and  C_18 
REMARK   14  A    between atoms: C_17  and  C_20 
REMARK   15  A    between atoms: C_18  and  C_22 
ROOT
HETATM    1  C   UNK N   1      32.310  16.826   8.254  0.00  0.00     0.185 C 
ENDROOT
BRANCH   1   2
HETATM    2  N   UNK N   1      31.889  16.314   6.964  0.00  0.00    -0.347 N 
HETATM    3  C   UNK N   1      31.710  14.994   6.715  0.00  0.00     0.218 C 
HETATM    4  O   UNK N   1      31.939  14.159   7.576  0.00  0.00    -0.274 OA
HETATM    5  H   UNK N   1      31.726  16.955   6.234  0.00  0.00     0.163 HD
BRANCH   3   6
HETATM    6  C   UNK N   1      31.187  14.562   5.382  0.00  0.00     0.105 C 
BRANCH   6   7
HETATM    7  C   UNK N   1      30.299  15.628   4.761  0.00  0.00     0.044 C 
BRANCH   7   8
HETATM    8  C   UNK N   1      30.826  15.986   3.375  0.00  0.00     0.173 C 
BRANCH   8   9
HETATM    9  N   UNK N   1      29.851  16.814   2.685  0.00  0.00    -0.418 N 
HETATM   10  H   UNK N   1      29.236  17.538   3.057  0.00  0.00     0.150 HD
HETATM   11  H   UNK N   1      29.771  16.647   1.682  0.00  0.00     0.150 HD
ENDBRANCH   8   9
BRANCH   8  12
HETATM   12  C   UNK N   1      32.153  16.700   3.410  0.00  0.00     0.163 C 
HETATM   13  O   UNK N   1      32.352  17.618   4.192  0.00  0.00    -0.648 OA
BRANCH  12  14
HETATM   14  O   UNK N   1      33.135  16.323   2.569  0.00  0.00    -0.775 OA
HETATM   15  H   UNK N   1      33.631  15.534   2.673  0.00  0.00     0.167 HD
ENDBRANCH  12  14
ENDBRANCH   8  12
ENDBRANCH   7   8
ENDBRANCH   6   7
ENDBRANCH   3   6
ENDBRANCH   1   2
BRANCH   1  16
HETATM   16  C   UNK N   1      31.344  17.920   8.692  0.00  0.00     0.111 C 
BRANCH  16  17
HETATM   17  S   UNK N   1      29.671  17.564   8.067  0.00  0.00    -0.141 SA
BRANCH  17  18
HETATM   18  C   UNK N   1      28.869  17.974   9.644  0.00  0.00     0.238 C 
BRANCH  18  19
HETATM   19  O   UNK N   1      27.510  18.201   9.438  0.00  0.00    -0.391 OA
HETATM   20  H   UNK N   1      27.069  18.967   9.038  0.00  0.00     0.210 HD
ENDBRANCH  18  19
ENDBRANCH  17  18
ENDBRANCH  16  17
ENDBRANCH   1  16
BRANCH   1  21
HETATM   21  C   UNK N   1      33.736  17.347   8.170  0.00  0.00     0.241 C 
HETATM   22  O   UNK N   1      33.942  18.452   7.695  0.00  0.00    -0.271 OA
HETATM   23  N   UNK N   1      34.802  16.610   8.582  0.00  0.00    -0.349 N 
HETATM   24  H   UNK N   1      35.703  16.984   8.444  0.00  0.00     0.163 HD
BRANCH  23  25
HETATM   25  C   UNK N   1      34.695  15.315   9.210  0.00  0.00     0.232 C 
BRANCH  25  26
HETATM   26  C   UNK N   1      34.514  15.465  10.692  0.00  0.00     0.158 C 
HETATM   27  O   UNK N   1      35.342  16.078  11.343  0.00  0.00    -0.649 OA
BRANCH  26  28
HETATM   28  O   UNK N   1      33.438  14.938  11.312  0.00  0.00    -0.775 OA
HETATM   29  H   UNK N   1      32.663  14.571  10.937  0.00  0.00     0.167 HD
ENDBRANCH  26  28
ENDBRANCH  25  26
ENDBRANCH  23  25
ENDBRANCH   1  21
TORSDOF 15
ENDMDL
MODEL 9
REMARK VINA RESULT:      -4.9      3.987      6.279
REMARK  15 active torsions:
REMARK  status: ('A' for Active; 'I' for Inactive)
REMARK    1  A    between atoms: S_1  and  C_14 
REMARK    2  A    between atoms: S_1  and  C_15 
REMARK    3  A    between atoms: O_2  and  C_14 
REMARK    4  A    between atoms: O_3  and  C_19 
REMARK    5  A    between atoms: O_4  and  C_20 
REMARK    6  A    between atoms: C_13  and  N_9 
REMARK       I    between atoms: N_9  and  C_22 
REMARK    7  A    between atoms: N_10  and  C_17 
REMARK       I    between atoms: N_10  and  C_21 
REMARK    8  A    between atoms: C_12  and  N_11 
REMARK    9  A    between atoms: C_12  and  C_16 
REMARK   10  A    between atoms: C_12  and  C_19 
REMARK   11  A    between atoms: C_13  and  C_15 
REMARK   12  A    between atoms: C_13  and  C_21 
REMARK   13  A    between atoms: C_16  and  C_18 
REMARK   14  A    between atoms: C_17  and  C_20 
REMARK   15  A    between atoms: C_18  and  C_22 
ROOT
HETATM    1  C   UNK N   1      21.864  18.681   4.193  0.00  0.00     0.185 C 
ENDROOT
BRANCH   1   2
HETATM    2  N   UNK N   1      23.273  18.417   3.964  0.00  0.00    -0.347 N 
HETATM    3  C   UNK N   1      24.169  19.388   3.666  0.00  0.00     0.218 C 
HETATM    4  O   UNK N   1      23.812  20.549   3.536  0.00  0.00    -0.274 OA
HETATM    5  H   UNK N   1      23.592  17.487   4.028  0.00  0.00     0.163 HD
BRANCH   3   6
HETATM    6  C   UNK N   1      25.616  19.038   3.535  0.00  0.00     0.105 C 
BRANCH   6   7
HETATM    7  C   UNK N   1      26.479  20.283   3.404  0.00  0.00     0.044 C 
BRANCH   7   8
HETATM    8  C   UNK N   1      27.226  20.526   4.712  0.00  0.00     0.173 C 
BRANCH   8   9
HETATM    9  N   UNK N   1      26.280  20.923   5.742  0.00  0.00    -0.418 N 
HETATM   10  H   UNK N   1      25.265  21.006   5.693  0.00  0.00     0.150 HD
HETATM   11  H   UNK N   1      26.693  21.151   6.646  0.00  0.00     0.150 HD
ENDBRANCH   8   9
BRANCH   8  12
HETATM   12  C   UNK N   1      28.004  19.324   5.184  0.00  0.00     0.163 C 
HETATM   13  O   UNK N   1      27.769  18.809   6.267  0.00  0.00    -0.648 OA
BRANCH  12  14
HETATM   14  O   UNK N   1      28.972  18.810   4.402  0.00  0.00    -0.775 OA
HETATM   15  H   UNK N   1      29.680  18.291   4.729  0.00  0.00     0.167 HD
ENDBRANCH  12  14
ENDBRANCH   8  12
ENDBRANCH   7   8
ENDBRANCH   6   7
ENDBRANCH   3   6
ENDBRANCH   1   2
BRANCH   1  16
HETATM   16  C   UNK N   1      21.422  17.952   5.456  0.00  0.00     0.111 C 
BRANCH  16  17
HETATM   17  S   UNK N   1      22.627  16.655   5.883  0.00  0.00    -0.141 SA
BRANCH  17  18
HETATM   18  C   UNK N   1      21.582  15.955   7.192  0.00  0.00     0.238 C 
BRANCH  18  19
HETATM   19  O   UNK N   1      21.787  14.579   7.276  0.00  0.00    -0.391 OA
HETATM   20  H   UNK N   1      21.522  13.960   7.974  0.00  0.00     0.210 HD
ENDBRANCH  18  19
ENDBRANCH  17  18
ENDBRANCH  16  17
ENDBRANCH   1  16
BRANCH   1  21
HETATM   21  C   UNK N   1      21.047  18.245   2.987  0.00  0.00     0.241 C 
HETATM   22  O   UNK N   1      20.886  17.054   2.772  0.00  0.00    -0.271 OA
HETATM   23  N   UNK N   1      20.509  19.139   2.115  0.00  0.00    -0.349 N 
HETATM   24  H   UNK N   1      20.042  18.788   1.323  0.00  0.00     0.163 HD
BRANCH  23  25
HETATM   25  C   UNK N   1      20.579  20.571   2.279  0.00  0.00     0.232 C 
BRANCH  25  26
HETATM   26  C   UNK N   1      20.737  21.244   0.946  0.00  0.00     0.158 C 
HETATM   27  O   UNK N   1      21.146  20.604  -0.007  0.00  0.00    -0.649 OA
BRANCH  26  28
HETATM   28  O   UNK N   1      20.421  22.545   0.788  0.00  0.00    -0.775 OA
HETATM   29  H   UNK N   1      20.870  23.303   1.106  0.00  0.00     0.167 HD
ENDBRANCH  26  28
ENDBRANCH  25  26
ENDBRANCH  23  25
ENDBRANCH   1  21
TORSDOF 15
ENDMDL
