MODEL 1
REMARK VINA RESULT:      -6.0      0.000      0.000
REMARK  2 active torsions:
REMARK  status: ('A' for Active; 'I' for Inactive)
REMARK    1  A    between atoms: N_1  and  C_2 
REMARK    2  A    between atoms: C_4  and  N_5 
ROOT
HETATM    1  C   UNK N   1      21.222  13.688   8.618  0.00  0.00     0.028 A 
HETATM    2  C   UNK N   1      20.529  13.121   9.686  0.00  0.00     0.059 A 
HETATM    3  C   UNK N   1      21.219  12.575  10.771  0.00  0.00     0.044 A 
HETATM    4  C   UNK N   1      22.640  12.598  10.787  0.00  0.00     0.075 A 
HETATM    5  C   UNK N   1      23.406  12.067  11.848  0.00  0.00     0.273 A 
HETATM    6  O   UNK N   1      22.876  11.555  12.816  0.00  0.00    -0.266 OA
HETATM    7  N   UNK N   1      24.774  12.128  11.788  0.00  0.00    -0.263 N 
HETATM    8  N   UNK N   1      25.410  12.677  10.754  0.00  0.00    -0.263 N 
HETATM    9  C   UNK N   1      24.725  13.209   9.696  0.00  0.00     0.271 A 
HETATM   10  O   UNK N   1      25.339  13.703   8.765  0.00  0.00    -0.266 OA
HETATM   11  C   UNK N   1      23.327  13.178   9.695  0.00  0.00     0.053 A 
HETATM   12  C   UNK N   1      22.611  13.717   8.622  0.00  0.00     0.047 A 
HETATM   13  H   UNK N   1      25.303  11.756  12.531  0.00  0.00     0.190 HD
HETATM   14  H   UNK N   1      26.394  12.700  10.751  0.00  0.00     0.190 HD
ENDROOT
BRANCH   1  15
HETATM   15  N   UNK N   1      20.518  14.235   7.529  0.00  0.00    -0.399 N 
HETATM   16  H   UNK N   1      19.549  14.396   7.600  0.00  0.00     0.156 HD
HETATM   17  H   UNK N   1      20.994  14.458   6.696  0.00  0.00     0.156 HD
ENDBRANCH   1  15
BRANCH   3  18
HETATM   18  N   UNK N   1      20.475  12.011  11.831  0.00  0.00    -0.398 N 
HETATM   19  H   UNK N   1      20.029  12.595  12.485  0.00  0.00     0.156 HD
HETATM   20  H   UNK N   1      20.402  11.033  11.915  0.00  0.00     0.156 HD
ENDBRANCH   3  18
TORSDOF 2
ENDMDL
MODEL 2
REMARK VINA RESULT:      -5.9      1.793      3.226
REMARK  2 active torsions:
REMARK  status: ('A' for Active; 'I' for Inactive)
REMARK    1  A    between atoms: N_1  and  C_2 
REMARK    2  A    between atoms: C_4  and  N_5 
ROOT
HETATM    1  C   UNK N   1      24.369  13.591   8.242  0.00  0.00     0.028 A 
HETATM    2  C   UNK N   1      23.092  13.916   7.788  0.00  0.00     0.059 A 
HETATM    3  C   UNK N   1      21.965  13.616   8.558  0.00  0.00     0.044 A 
HETATM    4  C   UNK N   1      22.122  12.972   9.816  0.00  0.00     0.075 A 
HETATM    5  C   UNK N   1      21.033  12.637  10.649  0.00  0.00     0.273 A 
HETATM    6  O   UNK N   1      19.888  12.888  10.325  0.00  0.00    -0.266 OA
HETATM    7  N   UNK N   1      21.268  12.016  11.849  0.00  0.00    -0.263 N 
HETATM    8  N   UNK N   1      22.500  11.717  12.257  0.00  0.00    -0.263 N 
HETATM    9  C   UNK N   1      23.597  12.016  11.496  0.00  0.00     0.271 A 
HETATM   10  O   UNK N   1      24.710  11.727  11.900  0.00  0.00    -0.266 OA
HETATM   11  C   UNK N   1      23.425  12.649  10.261  0.00  0.00     0.053 A 
HETATM   12  C   UNK N   1      24.535  12.961   9.470  0.00  0.00     0.047 A 
HETATM   13  H   UNK N   1      20.504  11.785  12.426  0.00  0.00     0.190 HD
HETATM   14  H   UNK N   1      22.624  11.271  13.126  0.00  0.00     0.190 HD
ENDROOT
BRANCH   1  15
HETATM   15  N   UNK N   1      25.497  13.898   7.459  0.00  0.00    -0.399 N 
HETATM   16  H   UNK N   1      26.147  14.567   7.773  0.00  0.00     0.156 HD
HETATM   17  H   UNK N   1      25.636  13.443   6.597  0.00  0.00     0.156 HD
ENDBRANCH   1  15
BRANCH   3  18
HETATM   18  N   UNK N   1      20.692  13.965   8.058  0.00  0.00    -0.398 N 
HETATM   19  H   UNK N   1      20.480  14.906   7.864  0.00  0.00     0.156 HD
HETATM   20  H   UNK N   1      20.015  13.266   7.903  0.00  0.00     0.156 HD
ENDBRANCH   3  18
TORSDOF 2
ENDMDL
MODEL 3
REMARK VINA RESULT:      -5.6      9.176     10.759
REMARK  2 active torsions:
REMARK  status: ('A' for Active; 'I' for Inactive)
REMARK    1  A    between atoms: N_1  and  C_2 
REMARK    2  A    between atoms: C_4  and  N_5 
ROOT
HETATM    1  C   UNK N   1      31.594  17.234   4.041  0.00  0.00     0.028 A 
HETATM    2  C   UNK N   1      30.315  17.009   4.548  0.00  0.00     0.059 A 
HETATM    3  C   UNK N   1      30.088  16.992   5.926  0.00  0.00     0.044 A 
HETATM    4  C   UNK N   1      31.171  17.205   6.821  0.00  0.00     0.075 A 
HETATM    5  C   UNK N   1      31.021  17.202   8.225  0.00  0.00     0.273 A 
HETATM    6  O   UNK N   1      29.937  17.013   8.744  0.00  0.00    -0.266 OA
HETATM    7  N   UNK N   1      32.117  17.416   9.021  0.00  0.00    -0.263 N 
HETATM    8  N   UNK N   1      33.328  17.628   8.509  0.00  0.00    -0.263 N 
HETATM    9  C   UNK N   1      33.539  17.643   7.158  0.00  0.00     0.271 A 
HETATM   10  O   UNK N   1      34.661  17.841   6.724  0.00  0.00    -0.266 OA
HETATM   11  C   UNK N   1      32.463  17.432   6.291  0.00  0.00     0.053 A 
HETATM   12  C   UNK N   1      32.661  17.444   4.906  0.00  0.00     0.047 A 
HETATM   13  H   UNK N   1      32.005  17.413  10.000  0.00  0.00     0.190 HD
HETATM   14  H   UNK N   1      34.088  17.778   9.117  0.00  0.00     0.190 HD
ENDROOT
BRANCH   1  15
HETATM   15  N   UNK N   1      31.812  17.249   2.652  0.00  0.00    -0.399 N 
HETATM   16  H   UNK N   1      32.400  17.931   2.253  0.00  0.00     0.156 HD
HETATM   17  H   UNK N   1      31.376  16.579   2.077  0.00  0.00     0.156 HD
ENDBRANCH   1  15
BRANCH   3  18
HETATM   18  N   UNK N   1      28.776  16.760   6.393  0.00  0.00    -0.398 N 
HETATM   19  H   UNK N   1      28.029  16.702   5.754  0.00  0.00     0.156 HD
HETATM   20  H   UNK N   1      28.607  16.657   7.357  0.00  0.00     0.156 HD
ENDBRANCH   3  18
TORSDOF 2
ENDMDL
MODEL 4
REMARK VINA RESULT:      -5.6     10.641     11.731
REMARK  2 active torsions:
REMARK  status: ('A' for Active; 'I' for Inactive)
REMARK    1  A    between atoms: N_1  and  C_2 
REMARK    2  A    between atoms: C_4  and  N_5 
ROOT
HETATM    1  C   UNK N   1      33.004  16.962   5.304  0.00  0.00     0.028 A 
HETATM    2  C   UNK N   1      32.494  15.702   5.614  0.00  0.00     0.059 A 
HETATM    3  C   UNK N   1      32.648  15.168   6.896  0.00  0.00     0.044 A 
HETATM    4  C   UNK N   1      33.332  15.915   7.893  0.00  0.00     0.075 A 
HETATM    5  C   UNK N   1      33.528  15.442   9.209  0.00  0.00     0.273 A 
HETATM    6  O   UNK N   1      33.113  14.353   9.558  0.00  0.00    -0.266 OA
HETATM    7  N   UNK N   1      34.200  16.224  10.114  0.00  0.00    -0.263 N 
HETATM    8  N   UNK N   1      34.677  17.424   9.789  0.00  0.00    -0.263 N 
HETATM    9  C   UNK N   1      34.520  17.939   8.531  0.00  0.00     0.271 A 
HETATM   10  O   UNK N   1      34.970  19.041   8.268  0.00  0.00    -0.266 OA
HETATM   11  C   UNK N   1      33.844  17.191   7.561  0.00  0.00     0.053 A 
HETATM   12  C   UNK N   1      33.675  17.701   6.270  0.00  0.00     0.047 A 
HETATM   13  H   UNK N   1      34.333  15.888  11.030  0.00  0.00     0.190 HD
HETATM   14  H   UNK N   1      35.153  17.953  10.469  0.00  0.00     0.190 HD
ENDROOT
BRANCH   1  15
HETATM   15  N   UNK N   1      32.843  17.491   4.010  0.00  0.00    -0.399 N 
HETATM   16  H   UNK N   1      33.150  16.979   3.227  0.00  0.00     0.156 HD
HETATM   17  H   UNK N   1      32.423  18.373   3.888  0.00  0.00     0.156 HD
ENDBRANCH   1  15
BRANCH   3  18
HETATM   18  N   UNK N   1      32.115  13.889   7.164  0.00  0.00    -0.398 N 
HETATM   19  H   UNK N   1      32.155  13.519   8.076  0.00  0.00     0.156 HD
HETATM   20  H   UNK N   1      31.702  13.366   6.439  0.00  0.00     0.156 HD
ENDBRANCH   3  18
TORSDOF 2
ENDMDL
MODEL 5
REMARK VINA RESULT:      -5.5      7.843      9.942
REMARK  2 active torsions:
REMARK  status: ('A' for Active; 'I' for Inactive)
REMARK    1  A    between atoms: N_1  and  C_2 
REMARK    2  A    between atoms: C_4  and  N_5 
ROOT
HETATM    1  C   UNK N   1      32.466  17.593   7.672  0.00  0.00     0.028 A 
HETATM    2  C   UNK N   1      32.023  16.967   6.508  0.00  0.00     0.059 A 
HETATM    3  C   UNK N   1      30.657  16.794   6.269  0.00  0.00     0.044 A 
HETATM    4  C   UNK N   1      29.710  17.261   7.221  0.00  0.00     0.075 A 
HETATM    5  C   UNK N   1      28.316  17.123   7.050  0.00  0.00     0.273 A 
HETATM    6  O   UNK N   1      27.850  16.588   6.061  0.00  0.00    -0.266 OA
HETATM    7  N   UNK N   1      27.467  17.600   8.015  0.00  0.00    -0.263 N 
HETATM    8  N   UNK N   1      27.919  18.195   9.118  0.00  0.00    -0.263 N 
HETATM    9  C   UNK N   1      29.258  18.359   9.343  0.00  0.00     0.271 A 
HETATM   10  O   UNK N   1      29.637  18.908  10.363  0.00  0.00    -0.266 OA
HETATM   11  C   UNK N   1      30.177  17.894   8.396  0.00  0.00     0.053 A 
HETATM   12  C   UNK N   1      31.550  18.054   8.610  0.00  0.00     0.047 A 
HETATM   13  H   UNK N   1      26.495  17.501   7.890  0.00  0.00     0.190 HD
HETATM   14  H   UNK N   1      27.275  18.523   9.786  0.00  0.00     0.190 HD
ENDROOT
BRANCH   1  15
HETATM   15  N   UNK N   1      33.843  17.762   7.903  0.00  0.00    -0.399 N 
HETATM   16  H   UNK N   1      34.163  18.527   8.434  0.00  0.00     0.156 HD
HETATM   17  H   UNK N   1      34.488  17.116   7.534  0.00  0.00     0.156 HD
ENDBRANCH   1  15
BRANCH   3  18
HETATM   18  N   UNK N   1      30.255  16.154   5.076  0.00  0.00    -0.398 N 
HETATM   19  H   UNK N   1      29.464  16.476   4.587  0.00  0.00     0.156 HD
HETATM   20  H   UNK N   1      30.766  15.385   4.734  0.00  0.00     0.156 HD
ENDBRANCH   3  18
TORSDOF 2
ENDMDL
MODEL 6
REMARK VINA RESULT:      -5.5     22.281     23.772
REMARK  2 active torsions:
REMARK  status: ('A' for Active; 'I' for Inactive)
REMARK    1  A    between atoms: N_1  and  C_2 
REMARK    2  A    between atoms: C_4  and  N_5 
ROOT
HETATM    1  C   UNK N   1      44.223  19.071   3.002  0.00  0.00     0.028 A 
HETATM    2  C   UNK N   1      45.121  19.973   3.572  0.00  0.00     0.059 A 
HETATM    3  C   UNK N   1      44.834  21.340   3.600  0.00  0.00     0.044 A 
HETATM    4  C   UNK N   1      43.617  21.817   3.042  0.00  0.00     0.075 A 
HETATM    5  C   UNK N   1      43.259  23.182   3.033  0.00  0.00     0.273 A 
HETATM    6  O   UNK N   1      43.988  24.031   3.511  0.00  0.00    -0.266 OA
HETATM    7  N   UNK N   1      42.065  23.562   2.475  0.00  0.00    -0.263 N 
HETATM    8  N   UNK N   1      41.226  22.678   1.938  0.00  0.00    -0.263 N 
HETATM    9  C   UNK N   1      41.516  21.342   1.915  0.00  0.00     0.271 A 
HETATM   10  O   UNK N   1      40.725  20.560   1.415  0.00  0.00    -0.266 OA
HETATM   11  C   UNK N   1      42.718  20.889   2.468  0.00  0.00     0.053 A 
HETATM   12  C   UNK N   1      43.030  19.525   2.454  0.00  0.00     0.047 A 
HETATM   13  H   UNK N   1      41.820  24.517   2.472  0.00  0.00     0.190 HD
HETATM   14  H   UNK N   1      40.379  22.994   1.548  0.00  0.00     0.190 HD
ENDROOT
BRANCH   1  15
HETATM   15  N   UNK N   1      44.521  17.696   2.979  0.00  0.00    -0.399 N 
HETATM   16  H   UNK N   1      45.363  17.382   2.579  0.00  0.00     0.156 HD
HETATM   17  H   UNK N   1      43.886  17.049   3.363  0.00  0.00     0.156 HD
ENDBRANCH   1  15
BRANCH   3  18
HETATM   18  N   UNK N   1      45.774  22.215   4.188  0.00  0.00    -0.398 N 
HETATM   19  H   UNK N   1      46.680  21.896   4.398  0.00  0.00     0.156 HD
HETATM   20  H   UNK N   1      45.522  23.146   4.387  0.00  0.00     0.156 HD
ENDBRANCH   3  18
TORSDOF 2
ENDMDL
MODEL 7
REMARK VINA RESULT:      -5.4     13.471     14.685
REMARK  2 active torsions:
REMARK  status: ('A' for Active; 'I' for Inactive)
REMARK    1  A    between atoms: N_1  and  C_2 
REMARK    2  A    between atoms: C_4  and  N_5 
ROOT
HETATM    1  C   UNK N   1      34.864  12.111  15.385  0.00  0.00     0.028 A 
HETATM    2  C   UNK N   1      34.922  10.746  15.663  0.00  0.00     0.059 A 
HETATM    3  C   UNK N   1      35.085  10.294  16.975  0.00  0.00     0.044 A 
HETATM    4  C   UNK N   1      35.193  11.232  18.036  0.00  0.00     0.075 A 
HETATM    5  C   UNK N   1      35.359  10.852  19.385  0.00  0.00     0.273 A 
HETATM    6  O   UNK N   1      35.419   9.681  19.710  0.00  0.00    -0.266 OA
HETATM    7  N   UNK N   1      35.455  11.820  20.352  0.00  0.00    -0.263 N 
HETATM    8  N   UNK N   1      35.396  13.117  20.057  0.00  0.00    -0.263 N 
HETATM    9  C   UNK N   1      35.236  13.550  18.770  0.00  0.00     0.271 A 
HETATM   10  O   UNK N   1      35.187  14.746  18.536  0.00  0.00    -0.266 OA
HETATM   11  C   UNK N   1      35.132  12.614  17.737  0.00  0.00     0.053 A 
HETATM   12  C   UNK N   1      34.968  13.039  16.414  0.00  0.00     0.047 A 
HETATM   13  H   UNK N   1      35.571  11.548  21.292  0.00  0.00     0.190 HD
HETATM   14  H   UNK N   1      35.469  13.779  20.782  0.00  0.00     0.190 HD
ENDROOT
BRANCH   1  15
HETATM   15  N   UNK N   1      34.700  12.557  14.061  0.00  0.00    -0.399 N 
HETATM   16  H   UNK N   1      34.058  12.106  13.466  0.00  0.00     0.156 HD
HETATM   17  H   UNK N   1      35.226  13.320  13.729  0.00  0.00     0.156 HD
ENDBRANCH   1  15
BRANCH   3  18
HETATM   18  N   UNK N   1      35.138   8.902  17.208  0.00  0.00    -0.398 N 
HETATM   19  H   UNK N   1      35.260   8.281  16.454  0.00  0.00     0.156 HD
HETATM   20  H   UNK N   1      35.054   8.553  18.124  0.00  0.00     0.156 HD
ENDBRANCH   3  18
TORSDOF 2
ENDMDL
MODEL 8
REMARK VINA RESULT:      -5.4     10.588     11.827
REMARK  2 active torsions:
REMARK  status: ('A' for Active; 'I' for Inactive)
REMARK    1  A    between atoms: N_1  and  C_2 
REMARK    2  A    between atoms: C_4  and  N_5 
ROOT
HETATM    1  C   UNK N   1      32.557  16.875   6.592  0.00  0.00     0.028 A 
HETATM    2  C   UNK N   1      33.401  17.907   6.999  0.00  0.00     0.059 A 
HETATM    3  C   UNK N   1      34.157  17.789   8.168  0.00  0.00     0.044 A 
HETATM    4  C   UNK N   1      34.066  16.606   8.950  0.00  0.00     0.075 A 
HETATM    5  C   UNK N   1      34.798  16.414  10.141  0.00  0.00     0.273 A 
HETATM    6  O   UNK N   1      35.556  17.267  10.563  0.00  0.00    -0.266 OA
HETATM    7  N   UNK N   1      34.654  15.242  10.840  0.00  0.00    -0.263 N 
HETATM    8  N   UNK N   1      33.839  14.273  10.428  0.00  0.00    -0.263 N 
HETATM    9  C   UNK N   1      33.103  14.398   9.282  0.00  0.00     0.271 A 
HETATM   10  O   UNK N   1      32.367  13.490   8.934  0.00  0.00    -0.266 OA
HETATM   11  C   UNK N   1      33.204  15.568   8.523  0.00  0.00     0.053 A 
HETATM   12  C   UNK N   1      32.459  15.713   7.349  0.00  0.00     0.047 A 
HETATM   13  H   UNK N   1      35.167  15.114  11.671  0.00  0.00     0.190 HD
HETATM   14  H   UNK N   1      33.765  13.448  10.959  0.00  0.00     0.190 HD
ENDROOT
BRANCH   1  15
HETATM   15  N   UNK N   1      31.799  17.004   5.414  0.00  0.00    -0.399 N 
HETATM   16  H   UNK N   1      31.931  17.783   4.827  0.00  0.00     0.156 HD
HETATM   17  H   UNK N   1      31.137  16.314   5.176  0.00  0.00     0.156 HD
ENDBRANCH   1  15
BRANCH   3  18
HETATM   18  N   UNK N   1      34.999  18.860   8.539  0.00  0.00    -0.398 N 
HETATM   19  H   UNK N   1      34.658  19.572   9.128  0.00  0.00     0.156 HD
HETATM   20  H   UNK N   1      35.926  18.895   8.210  0.00  0.00     0.156 HD
ENDBRANCH   3  18
TORSDOF 2
ENDMDL
MODEL 9
REMARK VINA RESULT:      -5.4     22.485     24.715
REMARK  2 active torsions:
REMARK  status: ('A' for Active; 'I' for Inactive)
REMARK    1  A    between atoms: N_1  and  C_2 
REMARK    2  A    between atoms: C_4  and  N_5 
ROOT
HETATM    1  C   UNK N   1      42.423  21.093   3.088  0.00  0.00     0.028 A 
HETATM    2  C   UNK N   1      43.629  21.229   3.774  0.00  0.00     0.059 A 
HETATM    3  C   UNK N   1      44.491  22.293   3.494  0.00  0.00     0.044 A 
HETATM    4  C   UNK N   1      44.135  23.245   2.502  0.00  0.00     0.075 A 
HETATM    5  C   UNK N   1      44.952  24.346   2.164  0.00  0.00     0.273 A 
HETATM    6  O   UNK N   1      46.019  24.534   2.716  0.00  0.00    -0.266 OA
HETATM    7  N   UNK N   1      44.537  25.222   1.193  0.00  0.00    -0.263 N 
HETATM    8  N   UNK N   1      43.379  25.066   0.554  0.00  0.00    -0.263 N 
HETATM    9  C   UNK N   1      42.543  24.021   0.835  0.00  0.00     0.271 A 
HETATM   10  O   UNK N   1      41.490  23.909   0.230  0.00  0.00    -0.266 OA
HETATM   11  C   UNK N   1      42.908  23.092   1.815  0.00  0.00     0.053 A 
HETATM   12  C   UNK N   1      42.065  22.018   2.115  0.00  0.00     0.047 A 
HETATM   13  H   UNK N   1      45.112  25.988   0.962  0.00  0.00     0.190 HD
HETATM   14  H   UNK N   1      43.119  25.718  -0.137  0.00  0.00     0.190 HD
ENDROOT
BRANCH   1  15
HETATM   15  N   UNK N   1      41.563  20.018   3.378  0.00  0.00    -0.399 N 
HETATM   16  H   UNK N   1      41.925  19.188   3.764  0.00  0.00     0.156 HD
HETATM   17  H   UNK N   1      40.599  20.096   3.194  0.00  0.00     0.156 HD
ENDBRANCH   1  15
BRANCH   3  18
HETATM   18  N   UNK N   1      45.701  22.390   4.214  0.00  0.00    -0.398 N 
HETATM   19  H   UNK N   1      45.950  23.239   4.647  0.00  0.00     0.156 HD
HETATM   20  H   UNK N   1      46.297  21.609   4.284  0.00  0.00     0.156 HD
ENDBRANCH   3  18
TORSDOF 2
ENDMDL
