MODEL 1
REMARK VINA RESULT:      -5.4      0.000      0.000
REMARK  29 active torsions:
REMARK  status: ('A' for Active; 'I' for Inactive)
REMARK    1  A    between atoms: C_5  and  C_4 
REMARK    2  A    between atoms: C_6  and  C_5 
REMARK    3  A    between atoms: C_7  and  C_6 
REMARK    4  A    between atoms: C_8  and  C_7 
REMARK    5  A    between atoms: C_9  and  C_8 
REMARK    6  A    between atoms: C_10  and  C_9 
REMARK    7  A    between atoms: C_11  and  C_10 
REMARK    8  A    between atoms: C_12  and  C_11 
REMARK    9  A    between atoms: C_13  and  C_12 
REMARK   10  A    between atoms: C_14  and  C_13 
REMARK   11  A    between atoms: C_15  and  C_14 
REMARK   12  A    between atoms: C_16  and  C_15 
REMARK   13  A    between atoms: C_17  and  C_16 
REMARK   14  A    between atoms: C_18  and  C_17 
REMARK   15  A    between atoms: C_19  and  C_18 
REMARK   16  A    between atoms: C_20  and  C_19 
REMARK   17  A    between atoms: O_32  and  C_20 
REMARK   18  A    between atoms: C_22  and  C_21 
REMARK   19  A    between atoms: O_33  and  C_21 
REMARK   20  A    between atoms: S_36  and  C_22 
REMARK   21  A    between atoms: C_26  and  C_23 
REMARK   22  A    between atoms: O_32  and  C_23 
REMARK   23  A    between atoms: C_26  and  C_24 
REMARK   24  A    between atoms: O_34  and  C_24 
REMARK   25  A    between atoms: O_29  and  C_25 
REMARK   26  A    between atoms: C_26  and  N_27 
REMARK   27  A    between atoms: P_35  and  O_30 
REMARK   28  A    between atoms: P_35  and  O_33 
REMARK   29  A    between atoms: P_35  and  O_34 
ROOT
HETATM    1  C   UNK N   1      34.515  14.641  11.246  0.00  0.00     0.195 C 
ENDROOT
BRANCH   1   2
HETATM    2  C   UNK N   1      35.676  15.322  10.521  0.00  0.00     0.131 C 
BRANCH   2   3
HETATM    3  C   UNK N   1      35.205  16.634   9.897  0.00  0.00     0.207 C 
BRANCH   3   4
HETATM    4  O   UNK N   1      34.662  16.402   8.628  0.00  0.00    -0.295 OA
BRANCH   4   5
HETATM    5  P   UNK N   1      34.232  17.958   7.970  0.00  0.00     0.393 P 
HETATM    6  O   UNK N   1      34.413  17.865   6.431  0.00  0.00    -0.631 OA
BRANCH   5   7
HETATM    7  O   UNK N   1      35.261  19.255   8.506  0.00  0.00    -0.307 OA
HETATM    8  H   UNK N   1      36.220  19.379   8.425  0.00  0.00     0.222 HD
ENDBRANCH   5   7
BRANCH   5   9
HETATM    9  O   UNK N   1      32.552  18.319   8.239  0.00  0.00    -0.296 OA
BRANCH   9  10
HETATM   10  C   UNK N   1      31.852  17.414   7.442  0.00  0.00     0.190 C 
BRANCH  10  11
HETATM   11  C   UNK N   1      30.467  17.198   8.020  0.00  0.00     0.100 C 
BRANCH  11  12
HETATM   12  S   UNK N   1      30.096  18.507   9.217  0.00  0.00    -0.171 SA
HETATM   13  C   UNK N   1      28.408  17.894   9.471  0.00  0.00     0.089 C 
ENDBRANCH  11  12
ENDBRANCH  10  11
ENDBRANCH   9  10
ENDBRANCH   5   9
ENDBRANCH   4   5
ENDBRANCH   3   4
ENDBRANCH   2   3
BRANCH   2  14
HETATM   14  N   UNK N   1      36.263  14.447   9.520  0.00  0.00    -0.366 N 
HETATM   15  C   UNK N   1      37.532  14.268   9.353  0.00  0.00     0.107 C 
HETATM   16  C   UNK N   1      38.006  13.338   8.291  0.00  0.00     0.097 C 
ATOM     17  HN  UNK N   1      35.629  13.937   8.906  1.00  0.00     0.161 HD
BRANCH  15  18
HETATM   18  O   UNK N   1      38.434  14.912  10.122  0.00  0.00    -0.350 OA
HETATM   19  H   UNK N   1      38.618  15.749  10.503  0.00  0.00     0.219 HD
ENDBRANCH  15  18
ENDBRANCH   2  14
ENDBRANCH   1   2
BRANCH   1  20
HETATM   20  O   UNK N   1      34.862  14.330  12.558  0.00  0.00    -0.389 OA
BRANCH  20  21
HETATM   21  C   UNK N   1      35.291  13.002  12.510  0.00  0.00     0.167 C 
BRANCH  21  22
HETATM   22  C   UNK N   1      36.656  12.879  13.164  0.00  0.00     0.026 C 
BRANCH  22  23
HETATM   23  C   UNK N   1      37.599  12.069  12.286  0.00  0.00     0.002 C 
BRANCH  23  24
HETATM   24  C   UNK N   1      36.845  10.983  11.531  0.00  0.00     0.000 C 
BRANCH  24  25
HETATM   25  C   UNK N   1      37.462   9.611  11.753  0.00  0.00     0.000 C 
BRANCH  25  26
HETATM   26  C   UNK N   1      36.428   8.565  12.153  0.00  0.00     0.000 C 
BRANCH  26  27
HETATM   27  C   UNK N   1      35.060   9.171  12.454  0.00  0.00     0.000 C 
BRANCH  27  28
HETATM   28  C   UNK N   1      34.898   9.537  13.922  0.00  0.00     0.000 C 
BRANCH  28  29
HETATM   29  C   UNK N   1      33.754  10.522  14.135  0.00  0.00     0.000 C 
BRANCH  29  30
HETATM   30  C   UNK N   1      33.843  11.166  15.513  0.00  0.00     0.000 C 
BRANCH  30  31
HETATM   31  C   UNK N   1      35.179  10.893  16.191  0.00  0.00     0.000 C 
BRANCH  31  32
HETATM   32  C   UNK N   1      35.335  11.746  17.441  0.00  0.00     0.000 C 
BRANCH  32  33
HETATM   33  C   UNK N   1      35.723  10.903  18.638  0.00  0.00     0.000 C 
BRANCH  33  34
HETATM   34  C   UNK N   1      35.471   9.438  18.335  0.00  0.00     0.000 C 
BRANCH  34  35
HETATM   35  C   UNK N   1      34.800   8.764  19.519  0.00  0.00     0.000 C 
BRANCH  35  36
HETATM   36  C   UNK N   1      33.410   8.288  19.135  0.00  0.00    -0.000 C 
BRANCH  36  37
HETATM   37  C   UNK N   1      32.356   8.932  20.016  0.00  0.00    -0.005 C 
HETATM   38  C   UNK N   1      31.151   8.020  20.103  0.00  0.00     0.005 C 
ENDBRANCH  36  37
ENDBRANCH  35  36
ENDBRANCH  34  35
ENDBRANCH  33  34
ENDBRANCH  32  33
ENDBRANCH  31  32
ENDBRANCH  30  31
ENDBRANCH  29  30
ENDBRANCH  28  29
ENDBRANCH  27  28
ENDBRANCH  26  27
ENDBRANCH  25  26
ENDBRANCH  24  25
ENDBRANCH  23  24
ENDBRANCH  22  23
ENDBRANCH  21  22
ENDBRANCH  20  21
ENDBRANCH   1  20
TORSDOF 29
ENDMDL
MODEL 2
REMARK VINA RESULT:      -5.4     10.846     14.374
REMARK  29 active torsions:
REMARK  status: ('A' for Active; 'I' for Inactive)
REMARK    1  A    between atoms: C_5  and  C_4 
REMARK    2  A    between atoms: C_6  and  C_5 
REMARK    3  A    between atoms: C_7  and  C_6 
REMARK    4  A    between atoms: C_8  and  C_7 
REMARK    5  A    between atoms: C_9  and  C_8 
REMARK    6  A    between atoms: C_10  and  C_9 
REMARK    7  A    between atoms: C_11  and  C_10 
REMARK    8  A    between atoms: C_12  and  C_11 
REMARK    9  A    between atoms: C_13  and  C_12 
REMARK   10  A    between atoms: C_14  and  C_13 
REMARK   11  A    between atoms: C_15  and  C_14 
REMARK   12  A    between atoms: C_16  and  C_15 
REMARK   13  A    between atoms: C_17  and  C_16 
REMARK   14  A    between atoms: C_18  and  C_17 
REMARK   15  A    between atoms: C_19  and  C_18 
REMARK   16  A    between atoms: C_20  and  C_19 
REMARK   17  A    between atoms: O_32  and  C_20 
REMARK   18  A    between atoms: C_22  and  C_21 
REMARK   19  A    between atoms: O_33  and  C_21 
REMARK   20  A    between atoms: S_36  and  C_22 
REMARK   21  A    between atoms: C_26  and  C_23 
REMARK   22  A    between atoms: O_32  and  C_23 
REMARK   23  A    between atoms: C_26  and  C_24 
REMARK   24  A    between atoms: O_34  and  C_24 
REMARK   25  A    between atoms: O_29  and  C_25 
REMARK   26  A    between atoms: C_26  and  N_27 
REMARK   27  A    between atoms: P_35  and  O_30 
REMARK   28  A    between atoms: P_35  and  O_33 
REMARK   29  A    between atoms: P_35  and  O_34 
ROOT
HETATM    1  C   UNK N   1      22.372  12.519   8.105  0.00  0.00     0.195 C 
ENDROOT
BRANCH   1   2
HETATM    2  C   UNK N   1      21.680  12.830   9.431  0.00  0.00     0.131 C 
BRANCH   2   3
HETATM    3  C   UNK N   1      21.164  14.268   9.427  0.00  0.00     0.207 C 
BRANCH   3   4
HETATM    4  O   UNK N   1      19.896  14.329   8.838  0.00  0.00    -0.295 OA
BRANCH   4   5
HETATM    5  P   UNK N   1      19.779  15.880   8.050  0.00  0.00     0.393 P 
HETATM    6  O   UNK N   1      20.715  16.851   8.819  0.00  0.00    -0.631 OA
BRANCH   5   7
HETATM    7  O   UNK N   1      18.187  16.581   8.114  0.00  0.00    -0.307 OA
HETATM    8  H   UNK N   1      17.736  17.067   8.822  0.00  0.00     0.222 HD
ENDBRANCH   5   7
BRANCH   5   9
HETATM    9  O   UNK N   1      20.385  15.811   6.422  0.00  0.00    -0.296 OA
BRANCH   9  10
HETATM   10  C   UNK N   1      21.392  16.773   6.366  0.00  0.00     0.190 C 
BRANCH  10  11
HETATM   11  C   UNK N   1      21.966  16.823   4.963  0.00  0.00     0.100 C 
BRANCH  11  12
HETATM   12  S   UNK N   1      23.000  18.301   4.781  0.00  0.00    -0.171 SA
HETATM   13  C   UNK N   1      21.912  18.992   3.505  0.00  0.00     0.089 C 
ENDBRANCH  11  12
ENDBRANCH  10  11
ENDBRANCH   9  10
ENDBRANCH   5   9
ENDBRANCH   4   5
ENDBRANCH   3   4
ENDBRANCH   2   3
BRANCH   2  14
HETATM   14  N   UNK N   1      22.565  12.594  10.560  0.00  0.00    -0.366 N 
HETATM   15  C   UNK N   1      22.196  12.088  11.690  0.00  0.00     0.107 C 
HETATM   16  C   UNK N   1      23.204  11.893  12.769  0.00  0.00     0.097 C 
ATOM     17  HN  UNK N   1      23.547  12.845  10.452  1.00  0.00     0.161 HD
BRANCH  15  18
HETATM   18  O   UNK N   1      20.912  11.738  11.912  0.00  0.00    -0.350 OA
HETATM   19  H   UNK N   1      20.203  11.868  12.511  0.00  0.00     0.219 HD
ENDBRANCH  15  18
ENDBRANCH   2  14
ENDBRANCH   1   2
BRANCH   1  20
HETATM   20  O   UNK N   1      23.035  13.641   7.614  0.00  0.00    -0.389 OA
BRANCH  20  21
HETATM   21  C   UNK N   1      24.299  13.177   7.245  0.00  0.00     0.167 C 
BRANCH  21  22
HETATM   22  C   UNK N   1      25.354  14.199   7.627  0.00  0.00     0.026 C 
BRANCH  22  23
HETATM   23  C   UNK N   1      26.182  14.595   6.412  0.00  0.00     0.002 C 
BRANCH  23  24
HETATM   24  C   UNK N   1      25.477  15.673   5.600  0.00  0.00     0.000 C 
BRANCH  24  25
HETATM   25  C   UNK N   1      25.694  15.485   4.106  0.00  0.00     0.000 C 
BRANCH  25  26
HETATM   26  C   UNK N   1      26.575  16.574   3.504  0.00  0.00     0.000 C 
BRANCH  26  27
HETATM   27  C   UNK N   1      27.886  16.030   2.942  0.00  0.00     0.000 C 
BRANCH  27  28
HETATM   28  C   UNK N   1      29.070  16.314   3.852  0.00  0.00     0.000 C 
BRANCH  28  29
HETATM   29  C   UNK N   1      29.435  15.100   4.699  0.00  0.00     0.000 C 
BRANCH  29  30
HETATM   30  C   UNK N   1      30.280  15.509   5.899  0.00  0.00     0.000 C 
BRANCH  30  31
HETATM   31  C   UNK N   1      30.336  17.021   6.075  0.00  0.00     0.000 C 
BRANCH  31  32
HETATM   32  C   UNK N   1      29.954  17.415   7.493  0.00  0.00     0.000 C 
BRANCH  32  33
HETATM   33  C   UNK N   1      28.456  17.331   7.703  0.00  0.00     0.000 C 
BRANCH  33  34
HETATM   34  C   UNK N   1      27.747  18.204   6.683  0.00  0.00     0.000 C 
BRANCH  34  35
HETATM   35  C   UNK N   1      27.854  19.666   7.077  0.00  0.00     0.000 C 
BRANCH  35  36
HETATM   36  C   UNK N   1      27.456  20.555   5.912  0.00  0.00    -0.000 C 
BRANCH  36  37
HETATM   37  C   UNK N   1      27.853  19.924   4.591  0.00  0.00    -0.005 C 
HETATM   38  C   UNK N   1      26.820  20.272   3.539  0.00  0.00     0.005 C 
ENDBRANCH  36  37
ENDBRANCH  35  36
ENDBRANCH  34  35
ENDBRANCH  33  34
ENDBRANCH  32  33
ENDBRANCH  31  32
ENDBRANCH  30  31
ENDBRANCH  29  30
ENDBRANCH  28  29
ENDBRANCH  27  28
ENDBRANCH  26  27
ENDBRANCH  25  26
ENDBRANCH  24  25
ENDBRANCH  23  24
ENDBRANCH  22  23
ENDBRANCH  21  22
ENDBRANCH  20  21
ENDBRANCH   1  20
TORSDOF 29
ENDMDL
MODEL 3
REMARK VINA RESULT:      -5.2      2.104      4.304
REMARK  29 active torsions:
REMARK  status: ('A' for Active; 'I' for Inactive)
REMARK    1  A    between atoms: C_5  and  C_4 
REMARK    2  A    between atoms: C_6  and  C_5 
REMARK    3  A    between atoms: C_7  and  C_6 
REMARK    4  A    between atoms: C_8  and  C_7 
REMARK    5  A    between atoms: C_9  and  C_8 
REMARK    6  A    between atoms: C_10  and  C_9 
REMARK    7  A    between atoms: C_11  and  C_10 
REMARK    8  A    between atoms: C_12  and  C_11 
REMARK    9  A    between atoms: C_13  and  C_12 
REMARK   10  A    between atoms: C_14  and  C_13 
REMARK   11  A    between atoms: C_15  and  C_14 
REMARK   12  A    between atoms: C_16  and  C_15 
REMARK   13  A    between atoms: C_17  and  C_16 
REMARK   14  A    between atoms: C_18  and  C_17 
REMARK   15  A    between atoms: C_19  and  C_18 
REMARK   16  A    between atoms: C_20  and  C_19 
REMARK   17  A    between atoms: O_32  and  C_20 
REMARK   18  A    between atoms: C_22  and  C_21 
REMARK   19  A    between atoms: O_33  and  C_21 
REMARK   20  A    between atoms: S_36  and  C_22 
REMARK   21  A    between atoms: C_26  and  C_23 
REMARK   22  A    between atoms: O_32  and  C_23 
REMARK   23  A    between atoms: C_26  and  C_24 
REMARK   24  A    between atoms: O_34  and  C_24 
REMARK   25  A    between atoms: O_29  and  C_25 
REMARK   26  A    between atoms: C_26  and  N_27 
REMARK   27  A    between atoms: P_35  and  O_30 
REMARK   28  A    between atoms: P_35  and  O_33 
REMARK   29  A    between atoms: P_35  and  O_34 
ROOT
HETATM    1  C   UNK N   1      35.287  13.832   9.502  0.00  0.00     0.195 C 
ENDROOT
BRANCH   1   2
HETATM    2  C   UNK N   1      35.521  14.488   8.141  0.00  0.00     0.131 C 
BRANCH   2   3
HETATM    3  C   UNK N   1      34.311  15.338   7.756  0.00  0.00     0.207 C 
BRANCH   3   4
HETATM    4  O   UNK N   1      34.727  16.561   7.218  0.00  0.00    -0.295 OA
BRANCH   4   5
HETATM    5  P   UNK N   1      34.190  17.805   8.315  0.00  0.00     0.393 P 
HETATM    6  O   UNK N   1      35.186  18.987   8.182  0.00  0.00    -0.631 OA
BRANCH   5   7
HETATM    7  O   UNK N   1      34.218  17.325   9.987  0.00  0.00    -0.307 OA
HETATM    8  H   UNK N   1      34.523  16.506  10.407  0.00  0.00     0.222 HD
ENDBRANCH   5   7
BRANCH   5   9
HETATM    9  O   UNK N   1      32.634  18.430   7.853  0.00  0.00    -0.296 OA
BRANCH   9  10
HETATM   10  C   UNK N   1      31.715  17.744   8.646  0.00  0.00     0.190 C 
BRANCH  10  11
HETATM   11  C   UNK N   1      30.729  17.009   7.758  0.00  0.00     0.100 C 
BRANCH  11  12
HETATM   12  S   UNK N   1      29.085  17.751   7.930  0.00  0.00    -0.171 SA
HETATM   13  C   UNK N   1      29.497  18.464   9.546  0.00  0.00     0.089 C 
ENDBRANCH  11  12
ENDBRANCH  10  11
ENDBRANCH   9  10
ENDBRANCH   5   9
ENDBRANCH   4   5
ENDBRANCH   3   4
ENDBRANCH   2   3
BRANCH   2  14
HETATM   14  N   UNK N   1      35.812  13.498   7.117  0.00  0.00    -0.366 N 
HETATM   15  C   UNK N   1      36.432  13.746   6.011  0.00  0.00     0.107 C 
HETATM   16  C   UNK N   1      36.673  12.639   5.044  0.00  0.00     0.097 C 
ATOM     17  HN  UNK N   1      35.506  12.540   7.284  1.00  0.00     0.161 HD
BRANCH  15  18
HETATM   18  O   UNK N   1      36.862  14.989   5.715  0.00  0.00    -0.350 OA
HETATM   19  H   UNK N   1      37.531  15.611   5.928  0.00  0.00     0.219 HD
ENDBRANCH  15  18
ENDBRANCH   2  14
ENDBRANCH   1   2
BRANCH   1  20
HETATM   20  O   UNK N   1      34.646  14.708  10.373  0.00  0.00    -0.389 OA
BRANCH  20  21
HETATM   21  C   UNK N   1      34.772  14.117  11.632  0.00  0.00     0.167 C 
BRANCH  21  22
HETATM   22  C   UNK N   1      35.758  12.965  11.563  0.00  0.00     0.026 C 
BRANCH  22  23
HETATM   23  C   UNK N   1      36.629  12.930  12.811  0.00  0.00     0.002 C 
BRANCH  23  24
HETATM   24  C   UNK N   1      35.857  13.419  14.029  0.00  0.00     0.000 C 
BRANCH  24  25
HETATM   25  C   UNK N   1      36.696  14.351  14.890  0.00  0.00     0.000 C 
BRANCH  25  26
HETATM   26  C   UNK N   1      36.477  14.121  16.382  0.00  0.00     0.000 C 
BRANCH  26  27
HETATM   27  C   UNK N   1      35.212  13.321  16.676  0.00  0.00     0.000 C 
BRANCH  27  28
HETATM   28  C   UNK N   1      35.114  12.905  18.135  0.00  0.00     0.000 C 
BRANCH  28  29
HETATM   29  C   UNK N   1      35.542  11.456  18.339  0.00  0.00     0.000 C 
BRANCH  29  30
HETATM   30  C   UNK N   1      34.918  10.552  17.284  0.00  0.00     0.000 C 
BRANCH  30  31
HETATM   31  C   UNK N   1      35.968   9.824  16.455  0.00  0.00     0.000 C 
BRANCH  31  32
HETATM   32  C   UNK N   1      35.523   9.700  15.006  0.00  0.00     0.000 C 
BRANCH  32  33
HETATM   33  C   UNK N   1      34.224  10.440  14.763  0.00  0.00     0.000 C 
BRANCH  33  34
HETATM   34  C   UNK N   1      33.861  10.365  13.292  0.00  0.00     0.000 C 
BRANCH  34  35
HETATM   35  C   UNK N   1      34.719   9.328  12.590  0.00  0.00     0.000 C 
BRANCH  35  36
HETATM   36  C   UNK N   1      34.610   9.486  11.083  0.00  0.00    -0.000 C 
BRANCH  36  37
HETATM   37  C   UNK N   1      34.355   8.147  10.417  0.00  0.00    -0.005 C 
HETATM   38  C   UNK N   1      34.421   7.049  11.458  0.00  0.00     0.005 C 
ENDBRANCH  36  37
ENDBRANCH  35  36
ENDBRANCH  34  35
ENDBRANCH  33  34
ENDBRANCH  32  33
ENDBRANCH  31  32
ENDBRANCH  30  31
ENDBRANCH  29  30
ENDBRANCH  28  29
ENDBRANCH  27  28
ENDBRANCH  26  27
ENDBRANCH  25  26
ENDBRANCH  24  25
ENDBRANCH  23  24
ENDBRANCH  22  23
ENDBRANCH  21  22
ENDBRANCH  20  21
ENDBRANCH   1  20
TORSDOF 29
ENDMDL
MODEL 4
REMARK VINA RESULT:      -5.1     10.820     15.379
REMARK  29 active torsions:
REMARK  status: ('A' for Active; 'I' for Inactive)
REMARK    1  A    between atoms: C_5  and  C_4 
REMARK    2  A    between atoms: C_6  and  C_5 
REMARK    3  A    between atoms: C_7  and  C_6 
REMARK    4  A    between atoms: C_8  and  C_7 
REMARK    5  A    between atoms: C_9  and  C_8 
REMARK    6  A    between atoms: C_10  and  C_9 
REMARK    7  A    between atoms: C_11  and  C_10 
REMARK    8  A    between atoms: C_12  and  C_11 
REMARK    9  A    between atoms: C_13  and  C_12 
REMARK   10  A    between atoms: C_14  and  C_13 
REMARK   11  A    between atoms: C_15  and  C_14 
REMARK   12  A    between atoms: C_16  and  C_15 
REMARK   13  A    between atoms: C_17  and  C_16 
REMARK   14  A    between atoms: C_18  and  C_17 
REMARK   15  A    between atoms: C_19  and  C_18 
REMARK   16  A    between atoms: C_20  and  C_19 
REMARK   17  A    between atoms: O_32  and  C_20 
REMARK   18  A    between atoms: C_22  and  C_21 
REMARK   19  A    between atoms: O_33  and  C_21 
REMARK   20  A    between atoms: S_36  and  C_22 
REMARK   21  A    between atoms: C_26  and  C_23 
REMARK   22  A    between atoms: O_32  and  C_23 
REMARK   23  A    between atoms: C_26  and  C_24 
REMARK   24  A    between atoms: O_34  and  C_24 
REMARK   25  A    between atoms: O_29  and  C_25 
REMARK   26  A    between atoms: C_26  and  N_27 
REMARK   27  A    between atoms: P_35  and  O_30 
REMARK   28  A    between atoms: P_35  and  O_33 
REMARK   29  A    between atoms: P_35  and  O_34 
ROOT
HETATM    1  C   UNK N   1      21.353  17.654   3.830  0.00  0.00     0.195 C 
ENDROOT
BRANCH   1   2
HETATM    2  C   UNK N   1      19.974  16.999   3.763  0.00  0.00     0.131 C 
BRANCH   2   3
HETATM    3  C   UNK N   1      19.612  16.404   5.122  0.00  0.00     0.207 C 
BRANCH   3   4
HETATM    4  O   UNK N   1      20.771  16.120   5.854  0.00  0.00    -0.295 OA
BRANCH   4   5
HETATM    5  P   UNK N   1      20.403  16.439   7.528  0.00  0.00     0.393 P 
HETATM    6  O   UNK N   1      18.931  16.006   7.759  0.00  0.00    -0.631 OA
BRANCH   5   7
HETATM    7  O   UNK N   1      20.490  18.124   7.956  0.00  0.00    -0.307 OA
HETATM    8  H   UNK N   1      20.392  18.566   8.813  0.00  0.00     0.222 HD
ENDBRANCH   5   7
BRANCH   5   9
HETATM    9  O   UNK N   1      21.369  15.457   8.588  0.00  0.00    -0.296 OA
BRANCH   9  10
HETATM   10  C   UNK N   1      20.612  14.308   8.812  0.00  0.00     0.190 C 
BRANCH  10  11
HETATM   11  C   UNK N   1      21.445  13.082   8.489  0.00  0.00     0.100 C 
BRANCH  11  12
HETATM   12  S   UNK N   1      21.127  12.563   6.782  0.00  0.00    -0.171 SA
HETATM   13  C   UNK N   1      22.744  13.166   6.222  0.00  0.00     0.089 C 
ENDBRANCH  11  12
ENDBRANCH  10  11
ENDBRANCH   9  10
ENDBRANCH   5   9
ENDBRANCH   4   5
ENDBRANCH   3   4
ENDBRANCH   2   3
BRANCH   2  14
HETATM   14  N   UNK N   1      19.915  15.991   2.717  0.00  0.00    -0.366 N 
HETATM   15  C   UNK N   1      19.620  16.230   1.482  0.00  0.00     0.107 C 
HETATM   16  C   UNK N   1      19.598  15.107   0.504  0.00  0.00     0.097 C 
ATOM     17  HN  UNK N   1      20.122  15.027   2.976  1.00  0.00     0.161 HD
BRANCH  15  18
HETATM   18  O   UNK N   1      19.328  17.479   1.063  0.00  0.00    -0.350 OA
HETATM   19  H   UNK N   1      19.727  18.301   0.854  0.00  0.00     0.219 HD
ENDBRANCH  15  18
ENDBRANCH   2  14
ENDBRANCH   1   2
BRANCH   1  20
HETATM   20  O   UNK N   1      21.380  18.836   3.094  0.00  0.00    -0.389 OA
BRANCH  20  21
HETATM   21  C   UNK N   1      22.552  19.482   3.494  0.00  0.00     0.167 C 
BRANCH  21  22
HETATM   22  C   UNK N   1      23.496  18.481   4.135  0.00  0.00     0.026 C 
BRANCH  22  23
HETATM   23  C   UNK N   1      24.936  18.772   3.737  0.00  0.00     0.002 C 
BRANCH  23  24
HETATM   24  C   UNK N   1      25.090  20.211   3.262  0.00  0.00     0.000 C 
BRANCH  24  25
HETATM   25  C   UNK N   1      26.552  20.622   3.178  0.00  0.00     0.000 C 
BRANCH  25  26
HETATM   26  C   UNK N   1      27.397  20.003   4.287  0.00  0.00     0.000 C 
BRANCH  26  27
HETATM   27  C   UNK N   1      27.328  20.792   5.592  0.00  0.00     0.000 C 
BRANCH  27  28
HETATM   28  C   UNK N   1      27.776  19.971   6.791  0.00  0.00     0.000 C 
BRANCH  28  29
HETATM   29  C   UNK N   1      27.434  18.495   6.624  0.00  0.00     0.000 C 
BRANCH  29  30
HETATM   30  C   UNK N   1      28.278  17.633   7.555  0.00  0.00     0.000 C 
BRANCH  30  31
HETATM   31  C   UNK N   1      28.175  18.082   9.007  0.00  0.00     0.000 C 
BRANCH  31  32
HETATM   32  C   UNK N   1      29.556  18.256   9.618  0.00  0.00     0.000 C 
BRANCH  32  33
HETATM   33  C   UNK N   1      30.635  18.249   8.555  0.00  0.00     0.000 C 
BRANCH  33  34
HETATM   34  C   UNK N   1      31.554  17.060   8.768  0.00  0.00     0.000 C 
BRANCH  34  35
HETATM   35  C   UNK N   1      31.781  16.329   7.456  0.00  0.00     0.000 C 
BRANCH  35  36
HETATM   36  C   UNK N   1      32.365  17.276   6.421  0.00  0.00    -0.000 C 
BRANCH  36  37
HETATM   37  C   UNK N   1      31.521  17.284   5.160  0.00  0.00    -0.005 C 
HETATM   38  C   UNK N   1      32.411  17.546   3.964  0.00  0.00     0.005 C 
ENDBRANCH  36  37
ENDBRANCH  35  36
ENDBRANCH  34  35
ENDBRANCH  33  34
ENDBRANCH  32  33
ENDBRANCH  31  32
ENDBRANCH  30  31
ENDBRANCH  29  30
ENDBRANCH  28  29
ENDBRANCH  27  28
ENDBRANCH  26  27
ENDBRANCH  25  26
ENDBRANCH  24  25
ENDBRANCH  23  24
ENDBRANCH  22  23
ENDBRANCH  21  22
ENDBRANCH  20  21
ENDBRANCH   1  20
TORSDOF 29
ENDMDL
MODEL 5
REMARK VINA RESULT:      -5.1      2.052      4.315
REMARK  29 active torsions:
REMARK  status: ('A' for Active; 'I' for Inactive)
REMARK    1  A    between atoms: C_5  and  C_4 
REMARK    2  A    between atoms: C_6  and  C_5 
REMARK    3  A    between atoms: C_7  and  C_6 
REMARK    4  A    between atoms: C_8  and  C_7 
REMARK    5  A    between atoms: C_9  and  C_8 
REMARK    6  A    between atoms: C_10  and  C_9 
REMARK    7  A    between atoms: C_11  and  C_10 
REMARK    8  A    between atoms: C_12  and  C_11 
REMARK    9  A    between atoms: C_13  and  C_12 
REMARK   10  A    between atoms: C_14  and  C_13 
REMARK   11  A    between atoms: C_15  and  C_14 
REMARK   12  A    between atoms: C_16  and  C_15 
REMARK   13  A    between atoms: C_17  and  C_16 
REMARK   14  A    between atoms: C_18  and  C_17 
REMARK   15  A    between atoms: C_19  and  C_18 
REMARK   16  A    between atoms: C_20  and  C_19 
REMARK   17  A    between atoms: O_32  and  C_20 
REMARK   18  A    between atoms: C_22  and  C_21 
REMARK   19  A    between atoms: O_33  and  C_21 
REMARK   20  A    between atoms: S_36  and  C_22 
REMARK   21  A    between atoms: C_26  and  C_23 
REMARK   22  A    between atoms: O_32  and  C_23 
REMARK   23  A    between atoms: C_26  and  C_24 
REMARK   24  A    between atoms: O_34  and  C_24 
REMARK   25  A    between atoms: O_29  and  C_25 
REMARK   26  A    between atoms: C_26  and  N_27 
REMARK   27  A    between atoms: P_35  and  O_30 
REMARK   28  A    between atoms: P_35  and  O_33 
REMARK   29  A    between atoms: P_35  and  O_34 
ROOT
HETATM    1  C   UNK N   1      34.690  13.350  10.428  0.00  0.00     0.195 C 
ENDROOT
BRANCH   1   2
HETATM    2  C   UNK N   1      35.457  14.262   9.471  0.00  0.00     0.131 C 
BRANCH   2   3
HETATM    3  C   UNK N   1      34.551  14.689   8.318  0.00  0.00     0.207 C 
BRANCH   3   4
HETATM    4  O   UNK N   1      35.090  15.801   7.660  0.00  0.00    -0.295 OA
BRANCH   4   5
HETATM    5  P   UNK N   1      34.492  17.216   8.484  0.00  0.00     0.393 P 
HETATM    6  O   UNK N   1      34.676  18.415   7.517  0.00  0.00    -0.631 OA
BRANCH   5   7
HETATM    7  O   UNK N   1      35.377  17.612   9.930  0.00  0.00    -0.307 OA
HETATM    8  H   UNK N   1      36.290  17.915  10.051  0.00  0.00     0.222 HD
ENDBRANCH   5   7
BRANCH   5   9
HETATM    9  O   UNK N   1      32.784  17.097   8.789  0.00  0.00    -0.296 OA
BRANCH   9  10
HETATM   10  C   UNK N   1      32.173  17.544   7.619  0.00  0.00     0.190 C 
BRANCH  10  11
HETATM   11  C   UNK N   1      31.015  16.627   7.272  0.00  0.00     0.100 C 
BRANCH  11  12
HETATM   12  S   UNK N   1      30.530  16.886   5.545  0.00  0.00    -0.171 SA
HETATM   13  C   UNK N   1      32.219  17.341   5.064  0.00  0.00     0.089 C 
ENDBRANCH  11  12
ENDBRANCH  10  11
ENDBRANCH   9  10
ENDBRANCH   5   9
ENDBRANCH   4   5
ENDBRANCH   3   4
ENDBRANCH   2   3
BRANCH   2  14
HETATM   14  N   UNK N   1      36.664  13.620   8.978  0.00  0.00    -0.366 N 
HETATM   15  C   UNK N   1      37.866  13.971   9.296  0.00  0.00     0.107 C 
HETATM   16  C   UNK N   1      39.022  13.226   8.724  0.00  0.00     0.097 C 
ATOM     17  HN  UNK N   1      36.555  12.835   8.336  1.00  0.00     0.161 HD
BRANCH  15  18
HETATM   18  O   UNK N   1      38.092  15.003  10.134  0.00  0.00    -0.350 OA
HETATM   19  H   UNK N   1      38.784  15.508  10.517  0.00  0.00     0.219 HD
ENDBRANCH  15  18
ENDBRANCH   2  14
ENDBRANCH   1   2
BRANCH   1  20
HETATM   20  O   UNK N   1      35.323  13.283  11.666  0.00  0.00    -0.389 OA
BRANCH  20  21
HETATM   21  C   UNK N   1      35.304  14.593  12.150  0.00  0.00     0.167 C 
BRANCH  21  22
HETATM   22  C   UNK N   1      36.218  14.709  13.356  0.00  0.00     0.026 C 
BRANCH  22  23
HETATM   23  C   UNK N   1      36.569  13.330  13.897  0.00  0.00     0.002 C 
BRANCH  23  24
HETATM   24  C   UNK N   1      36.530  13.314  15.419  0.00  0.00     0.000 C 
BRANCH  24  25
HETATM   25  C   UNK N   1      35.143  12.971  15.942  0.00  0.00     0.000 C 
BRANCH  25  26
HETATM   26  C   UNK N   1      34.945  13.398  17.392  0.00  0.00     0.000 C 
BRANCH  26  27
HETATM   27  C   UNK N   1      35.345  12.312  18.387  0.00  0.00     0.000 C 
BRANCH  27  28
HETATM   28  C   UNK N   1      35.149  10.911  17.827  0.00  0.00     0.000 C 
BRANCH  28  29
HETATM   29  C   UNK N   1      36.372  10.033  18.064  0.00  0.00     0.000 C 
BRANCH  29  30
HETATM   30  C   UNK N   1      36.610   9.104  16.879  0.00  0.00     0.000 C 
BRANCH  30  31
HETATM   31  C   UNK N   1      37.407   9.779  15.770  0.00  0.00     0.000 C 
BRANCH  31  32
HETATM   32  C   UNK N   1      38.451   8.831  15.201  0.00  0.00     0.000 C 
BRANCH  32  33
HETATM   33  C   UNK N   1      38.516   8.924  13.691  0.00  0.00     0.000 C 
BRANCH  33  34
HETATM   34  C   UNK N   1      37.826  10.194  13.228  0.00  0.00     0.000 C 
BRANCH  34  35
HETATM   35  C   UNK N   1      36.806   9.875  12.148  0.00  0.00     0.000 C 
BRANCH  35  36
HETATM   36  C   UNK N   1      35.400   9.930  12.720  0.00  0.00    -0.000 C 
BRANCH  36  37
HETATM   37  C   UNK N   1      34.448   9.085  11.895  0.00  0.00    -0.005 C 
HETATM   38  C   UNK N   1      34.847   7.628  12.007  0.00  0.00     0.005 C 
ENDBRANCH  36  37
ENDBRANCH  35  36
ENDBRANCH  34  35
ENDBRANCH  33  34
ENDBRANCH  32  33
ENDBRANCH  31  32
ENDBRANCH  30  31
ENDBRANCH  29  30
ENDBRANCH  28  29
ENDBRANCH  27  28
ENDBRANCH  26  27
ENDBRANCH  25  26
ENDBRANCH  24  25
ENDBRANCH  23  24
ENDBRANCH  22  23
ENDBRANCH  21  22
ENDBRANCH  20  21
ENDBRANCH   1  20
TORSDOF 29
ENDMDL
MODEL 6
REMARK VINA RESULT:      -5.1     18.807     22.692
REMARK  29 active torsions:
REMARK  status: ('A' for Active; 'I' for Inactive)
REMARK    1  A    between atoms: C_5  and  C_4 
REMARK    2  A    between atoms: C_6  and  C_5 
REMARK    3  A    between atoms: C_7  and  C_6 
REMARK    4  A    between atoms: C_8  and  C_7 
REMARK    5  A    between atoms: C_9  and  C_8 
REMARK    6  A    between atoms: C_10  and  C_9 
REMARK    7  A    between atoms: C_11  and  C_10 
REMARK    8  A    between atoms: C_12  and  C_11 
REMARK    9  A    between atoms: C_13  and  C_12 
REMARK   10  A    between atoms: C_14  and  C_13 
REMARK   11  A    between atoms: C_15  and  C_14 
REMARK   12  A    between atoms: C_16  and  C_15 
REMARK   13  A    between atoms: C_17  and  C_16 
REMARK   14  A    between atoms: C_18  and  C_17 
REMARK   15  A    between atoms: C_19  and  C_18 
REMARK   16  A    between atoms: C_20  and  C_19 
REMARK   17  A    between atoms: O_32  and  C_20 
REMARK   18  A    between atoms: C_22  and  C_21 
REMARK   19  A    between atoms: O_33  and  C_21 
REMARK   20  A    between atoms: S_36  and  C_22 
REMARK   21  A    between atoms: C_26  and  C_23 
REMARK   22  A    between atoms: O_32  and  C_23 
REMARK   23  A    between atoms: C_26  and  C_24 
REMARK   24  A    between atoms: O_34  and  C_24 
REMARK   25  A    between atoms: O_29  and  C_25 
REMARK   26  A    between atoms: C_26  and  N_27 
REMARK   27  A    between atoms: P_35  and  O_30 
REMARK   28  A    between atoms: P_35  and  O_33 
REMARK   29  A    between atoms: P_35  and  O_34 
ROOT
HETATM    1  C   UNK N   1      30.452  22.236  -5.983  0.00  0.00     0.195 C 
ENDROOT
BRANCH   1   2
HETATM    2  C   UNK N   1      30.789  22.015  -4.508  0.00  0.00     0.131 C 
BRANCH   2   3
HETATM    3  C   UNK N   1      31.219  20.567  -4.282  0.00  0.00     0.207 C 
BRANCH   3   4
HETATM    4  O   UNK N   1      32.416  20.303  -4.958  0.00  0.00    -0.295 OA
BRANCH   4   5
HETATM    5  P   UNK N   1      33.711  20.596  -3.828  0.00  0.00     0.393 P 
HETATM    6  O   UNK N   1      34.550  19.293  -3.753  0.00  0.00    -0.631 OA
BRANCH   5   7
HETATM    7  O   UNK N   1      33.167  20.922  -2.208  0.00  0.00    -0.307 OA
HETATM    8  H   UNK N   1      32.298  20.803  -1.794  0.00  0.00     0.222 HD
ENDBRANCH   5   7
BRANCH   5   9
HETATM    9  O   UNK N   1      34.788  21.833  -4.406  0.00  0.00    -0.296 OA
BRANCH   9  10
HETATM   10  C   UNK N   1      36.070  21.333  -4.184  0.00  0.00     0.190 C 
BRANCH  10  11
HETATM   11  C   UNK N   1      37.083  22.451  -4.340  0.00  0.00     0.100 C 
BRANCH  11  12
HETATM   12  S   UNK N   1      36.395  23.753  -5.396  0.00  0.00    -0.171 SA
HETATM   13  C   UNK N   1      37.249  25.056  -4.468  0.00  0.00     0.089 C 
ENDBRANCH  11  12
ENDBRANCH  10  11
ENDBRANCH   9  10
ENDBRANCH   5   9
ENDBRANCH   4   5
ENDBRANCH   3   4
ENDBRANCH   2   3
BRANCH   2  14
HETATM   14  N   UNK N   1      29.671  22.370  -3.649  0.00  0.00    -0.366 N 
HETATM   15  C   UNK N   1      29.784  22.789  -2.432  0.00  0.00     0.107 C 
HETATM   16  C   UNK N   1      28.557  23.124  -1.657  0.00  0.00     0.097 C 
ATOM     17  HN  UNK N   1      28.731  22.283  -4.034  1.00  0.00     0.161 HD
BRANCH  15  18
HETATM   18  O   UNK N   1      30.993  22.923  -1.850  0.00  0.00    -0.350 OA
HETATM   19  H   UNK N   1      31.641  22.443  -1.371  0.00  0.00     0.219 HD
ENDBRANCH  15  18
ENDBRANCH   2  14
ENDBRANCH   1   2
BRANCH   1  20
HETATM   20  O   UNK N   1      29.215  22.861  -6.122  0.00  0.00    -0.389 OA
BRANCH  20  21
HETATM   21  C   UNK N   1      28.531  22.094  -7.068  0.00  0.00     0.167 C 
BRANCH  21  22
HETATM   22  C   UNK N   1      28.026  22.988  -8.187  0.00  0.00     0.026 C 
BRANCH  22  23
HETATM   23  C   UNK N   1      27.338  24.221  -7.619  0.00  0.00     0.002 C 
BRANCH  23  24
HETATM   24  C   UNK N   1      26.080  23.839  -6.851  0.00  0.00     0.000 C 
BRANCH  24  25
HETATM   25  C   UNK N   1      25.788  24.818  -5.725  0.00  0.00     0.000 C 
BRANCH  25  26
HETATM   26  C   UNK N   1      26.330  24.341  -4.382  0.00  0.00     0.000 C 
BRANCH  26  27
HETATM   27  C   UNK N   1      26.548  25.483  -3.394  0.00  0.00     0.000 C 
BRANCH  27  28
HETATM   28  C   UNK N   1      26.208  26.840  -3.990  0.00  0.00     0.000 C 
BRANCH  28  29
HETATM   29  C   UNK N   1      26.818  27.981  -3.183  0.00  0.00     0.000 C 
BRANCH  29  30
HETATM   30  C   UNK N   1      27.237  29.127  -4.095  0.00  0.00     0.000 C 
BRANCH  30  31
HETATM   31  C   UNK N   1      26.896  28.856  -5.555  0.00  0.00     0.000 C 
BRANCH  31  32
HETATM   32  C   UNK N   1      28.143  28.919  -6.422  0.00  0.00     0.000 C 
BRANCH  32  33
HETATM   33  C   UNK N   1      28.542  27.543  -6.913  0.00  0.00     0.000 C 
BRANCH  33  34
HETATM   34  C   UNK N   1      30.054  27.407  -6.880  0.00  0.00     0.000 C 
BRANCH  34  35
HETATM   35  C   UNK N   1      30.452  26.117  -6.185  0.00  0.00     0.000 C 
BRANCH  35  36
HETATM   36  C   UNK N   1      29.742  26.001  -4.847  0.00  0.00    -0.000 C 
BRANCH  36  37
HETATM   37  C   UNK N   1      30.723  26.164  -3.700  0.00  0.00    -0.005 C 
HETATM   38  C   UNK N   1      30.663  27.588  -3.190  0.00  0.00     0.005 C 
ENDBRANCH  36  37
ENDBRANCH  35  36
ENDBRANCH  34  35
ENDBRANCH  33  34
ENDBRANCH  32  33
ENDBRANCH  31  32
ENDBRANCH  30  31
ENDBRANCH  29  30
ENDBRANCH  28  29
ENDBRANCH  27  28
ENDBRANCH  26  27
ENDBRANCH  25  26
ENDBRANCH  24  25
ENDBRANCH  23  24
ENDBRANCH  22  23
ENDBRANCH  21  22
ENDBRANCH  20  21
ENDBRANCH   1  20
TORSDOF 29
ENDMDL
MODEL 7
REMARK VINA RESULT:      -5.0      1.382      2.306
REMARK  29 active torsions:
REMARK  status: ('A' for Active; 'I' for Inactive)
REMARK    1  A    between atoms: C_5  and  C_4 
REMARK    2  A    between atoms: C_6  and  C_5 
REMARK    3  A    between atoms: C_7  and  C_6 
REMARK    4  A    between atoms: C_8  and  C_7 
REMARK    5  A    between atoms: C_9  and  C_8 
REMARK    6  A    between atoms: C_10  and  C_9 
REMARK    7  A    between atoms: C_11  and  C_10 
REMARK    8  A    between atoms: C_12  and  C_11 
REMARK    9  A    between atoms: C_13  and  C_12 
REMARK   10  A    between atoms: C_14  and  C_13 
REMARK   11  A    between atoms: C_15  and  C_14 
REMARK   12  A    between atoms: C_16  and  C_15 
REMARK   13  A    between atoms: C_17  and  C_16 
REMARK   14  A    between atoms: C_18  and  C_17 
REMARK   15  A    between atoms: C_19  and  C_18 
REMARK   16  A    between atoms: C_20  and  C_19 
REMARK   17  A    between atoms: O_32  and  C_20 
REMARK   18  A    between atoms: C_22  and  C_21 
REMARK   19  A    between atoms: O_33  and  C_21 
REMARK   20  A    between atoms: S_36  and  C_22 
REMARK   21  A    between atoms: C_26  and  C_23 
REMARK   22  A    between atoms: O_32  and  C_23 
REMARK   23  A    between atoms: C_26  and  C_24 
REMARK   24  A    between atoms: O_34  and  C_24 
REMARK   25  A    between atoms: O_29  and  C_25 
REMARK   26  A    between atoms: C_26  and  N_27 
REMARK   27  A    between atoms: P_35  and  O_30 
REMARK   28  A    between atoms: P_35  and  O_33 
REMARK   29  A    between atoms: P_35  and  O_34 
ROOT
HETATM    1  C   UNK N   1      35.571  14.220  11.610  0.00  0.00     0.195 C 
ENDROOT
BRANCH   1   2
HETATM    2  C   UNK N   1      36.284  14.999  10.505  0.00  0.00     0.131 C 
BRANCH   2   3
HETATM    3  C   UNK N   1      35.325  16.007   9.874  0.00  0.00     0.207 C 
BRANCH   3   4
HETATM    4  O   UNK N   1      35.194  15.762   8.502  0.00  0.00    -0.295 OA
BRANCH   4   5
HETATM    5  P   UNK N   1      34.203  17.041   7.853  0.00  0.00     0.393 P 
HETATM    6  O   UNK N   1      34.659  17.267   6.387  0.00  0.00    -0.631 OA
BRANCH   5   7
HETATM    7  O   UNK N   1      34.400  18.565   8.669  0.00  0.00    -0.307 OA
HETATM    8  H   UNK N   1      34.748  19.413   8.352  0.00  0.00     0.222 HD
ENDBRANCH   5   7
BRANCH   5   9
HETATM    9  O   UNK N   1      32.531  16.568   7.772  0.00  0.00    -0.296 OA
BRANCH   9  10
HETATM   10  C   UNK N   1      31.817  17.672   8.233  0.00  0.00     0.190 C 
BRANCH  10  11
HETATM   11  C   UNK N   1      30.579  17.201   8.971  0.00  0.00     0.100 C 
BRANCH  11  12
HETATM   12  S   UNK N   1      29.672  18.632   9.615  0.00  0.00    -0.171 SA
HETATM   13  C   UNK N   1      28.105  18.043   8.918  0.00  0.00     0.089 C 
ENDBRANCH  11  12
ENDBRANCH  10  11
ENDBRANCH   9  10
ENDBRANCH   5   9
ENDBRANCH   4   5
ENDBRANCH   3   4
ENDBRANCH   2   3
BRANCH   2  14
HETATM   14  N   UNK N   1      36.841  14.107   9.501  0.00  0.00    -0.366 N 
HETATM   15  C   UNK N   1      38.011  13.565   9.568  0.00  0.00     0.107 C 
HETATM   16  C   UNK N   1      38.463  12.663   8.472  0.00  0.00     0.097 C 
ATOM     17  HN  UNK N   1      36.266  13.893   8.687  1.00  0.00     0.161 HD
BRANCH  15  18
HETATM   18  O   UNK N   1      38.833  13.804  10.611  0.00  0.00    -0.350 OA
HETATM   19  H   UNK N   1      39.002  13.542  11.495  0.00  0.00     0.219 HD
ENDBRANCH  15  18
ENDBRANCH   2  14
ENDBRANCH   1   2
BRANCH   1  20
HETATM   20  O   UNK N   1      36.487  13.570  12.432  0.00  0.00    -0.389 OA
BRANCH  20  21
HETATM   21  C   UNK N   1      36.413  14.242  13.654  0.00  0.00     0.167 C 
BRANCH  21  22
HETATM   22  C   UNK N   1      36.785  13.298  14.783  0.00  0.00     0.026 C 
BRANCH  22  23
HETATM   23  C   UNK N   1      35.942  13.583  16.019  0.00  0.00     0.002 C 
BRANCH  23  24
HETATM   24  C   UNK N   1      34.996  12.427  16.313  0.00  0.00     0.000 C 
BRANCH  24  25
HETATM   25  C   UNK N   1      33.971  12.243  15.204  0.00  0.00     0.000 C 
BRANCH  25  26
HETATM   26  C   UNK N   1      33.789  10.780  14.815  0.00  0.00     0.000 C 
BRANCH  26  27
HETATM   27  C   UNK N   1      34.735  10.345  13.699  0.00  0.00     0.000 C 
BRANCH  27  28
HETATM   28  C   UNK N   1      35.593   9.154  14.097  0.00  0.00     0.000 C 
BRANCH  28  29
HETATM   29  C   UNK N   1      37.045   9.556  14.330  0.00  0.00     0.000 C 
BRANCH  29  30
HETATM   30  C   UNK N   1      37.426   9.393  15.796  0.00  0.00     0.000 C 
BRANCH  30  31
HETATM   31  C   UNK N   1      36.341   8.684  16.597  0.00  0.00     0.000 C 
BRANCH  31  32
HETATM   32  C   UNK N   1      35.971   9.486  17.833  0.00  0.00     0.000 C 
BRANCH  32  33
HETATM   33  C   UNK N   1      34.497   9.353  18.156  0.00  0.00     0.000 C 
BRANCH  33  34
HETATM   34  C   UNK N   1      34.329   8.701  19.516  0.00  0.00     0.000 C 
BRANCH  34  35
HETATM   35  C   UNK N   1      33.430   7.482  19.408  0.00  0.00     0.000 C 
BRANCH  35  36
HETATM   36  C   UNK N   1      32.043   7.802  19.939  0.00  0.00    -0.000 C 
BRANCH  36  37
HETATM   37  C   UNK N   1      32.110   8.870  21.014  0.00  0.00    -0.005 C 
HETATM   38  C   UNK N   1      31.814   8.245  22.361  0.00  0.00     0.005 C 
ENDBRANCH  36  37
ENDBRANCH  35  36
ENDBRANCH  34  35
ENDBRANCH  33  34
ENDBRANCH  32  33
ENDBRANCH  31  32
ENDBRANCH  30  31
ENDBRANCH  29  30
ENDBRANCH  28  29
ENDBRANCH  27  28
ENDBRANCH  26  27
ENDBRANCH  25  26
ENDBRANCH  24  25
ENDBRANCH  23  24
ENDBRANCH  22  23
ENDBRANCH  21  22
ENDBRANCH  20  21
ENDBRANCH   1  20
TORSDOF 29
ENDMDL
MODEL 8
REMARK VINA RESULT:      -5.0      9.876     14.088
REMARK  29 active torsions:
REMARK  status: ('A' for Active; 'I' for Inactive)
REMARK    1  A    between atoms: C_5  and  C_4 
REMARK    2  A    between atoms: C_6  and  C_5 
REMARK    3  A    between atoms: C_7  and  C_6 
REMARK    4  A    between atoms: C_8  and  C_7 
REMARK    5  A    between atoms: C_9  and  C_8 
REMARK    6  A    between atoms: C_10  and  C_9 
REMARK    7  A    between atoms: C_11  and  C_10 
REMARK    8  A    between atoms: C_12  and  C_11 
REMARK    9  A    between atoms: C_13  and  C_12 
REMARK   10  A    between atoms: C_14  and  C_13 
REMARK   11  A    between atoms: C_15  and  C_14 
REMARK   12  A    between atoms: C_16  and  C_15 
REMARK   13  A    between atoms: C_17  and  C_16 
REMARK   14  A    between atoms: C_18  and  C_17 
REMARK   15  A    between atoms: C_19  and  C_18 
REMARK   16  A    between atoms: C_20  and  C_19 
REMARK   17  A    between atoms: O_32  and  C_20 
REMARK   18  A    between atoms: C_22  and  C_21 
REMARK   19  A    between atoms: O_33  and  C_21 
REMARK   20  A    between atoms: S_36  and  C_22 
REMARK   21  A    between atoms: C_26  and  C_23 
REMARK   22  A    between atoms: O_32  and  C_23 
REMARK   23  A    between atoms: C_26  and  C_24 
REMARK   24  A    between atoms: O_34  and  C_24 
REMARK   25  A    between atoms: O_29  and  C_25 
REMARK   26  A    between atoms: C_26  and  N_27 
REMARK   27  A    between atoms: P_35  and  O_30 
REMARK   28  A    between atoms: P_35  and  O_33 
REMARK   29  A    between atoms: P_35  and  O_34 
ROOT
HETATM    1  C   UNK N   1      22.535  12.696   8.288  0.00  0.00     0.195 C 
ENDROOT
BRANCH   1   2
HETATM    2  C   UNK N   1      21.690  12.704   9.561  0.00  0.00     0.131 C 
BRANCH   2   3
HETATM    3  C   UNK N   1      20.862  13.985   9.630  0.00  0.00     0.207 C 
BRANCH   3   4
HETATM    4  O   UNK N   1      21.498  15.015   8.927  0.00  0.00    -0.295 OA
BRANCH   4   5
HETATM    5  P   UNK N   1      20.244  15.968   8.181  0.00  0.00     0.393 P 
HETATM    6  O   UNK N   1      19.810  15.218   6.894  0.00  0.00    -0.631 OA
BRANCH   5   7
HETATM    7  O   UNK N   1      20.770  17.547   7.674  0.00  0.00    -0.307 OA
HETATM    8  H   UNK N   1      21.571  18.049   7.892  0.00  0.00     0.222 HD
ENDBRANCH   5   7
BRANCH   5   9
HETATM    9  O   UNK N   1      18.830  16.057   9.189  0.00  0.00    -0.296 OA
BRANCH   9  10
HETATM   10  C   UNK N   1      18.413  17.385   9.118  0.00  0.00     0.190 C 
BRANCH  10  11
HETATM   11  C   UNK N   1      17.129  17.556   9.908  0.00  0.00     0.100 C 
BRANCH  11  12
HETATM   12  S   UNK N   1      17.357  18.837  11.170  0.00  0.00    -0.171 SA
HETATM   13  C   UNK N   1      18.978  19.304  10.505  0.00  0.00     0.089 C 
ENDBRANCH  11  12
ENDBRANCH  10  11
ENDBRANCH   9  10
ENDBRANCH   5   9
ENDBRANCH   4   5
ENDBRANCH   3   4
ENDBRANCH   2   3
BRANCH   2  14
HETATM   14  N   UNK N   1      22.515  12.549  10.748  0.00  0.00    -0.366 N 
HETATM   15  C   UNK N   1      22.108  12.046  11.866  0.00  0.00     0.107 C 
HETATM   16  C   UNK N   1      23.057  11.938  13.008  0.00  0.00     0.097 C 
ATOM     17  HN  UNK N   1      23.485  12.859  10.694  1.00  0.00     0.161 HD
BRANCH  15  18
HETATM   18  O   UNK N   1      20.837  11.620  12.017  0.00  0.00    -0.350 OA
HETATM   19  H   UNK N   1      20.311  10.843  12.011  0.00  0.00     0.219 HD
ENDBRANCH  15  18
ENDBRANCH   2  14
ENDBRANCH   1   2
BRANCH   1  20
HETATM   20  O   UNK N   1      23.835  12.273   8.556  0.00  0.00    -0.389 OA
BRANCH  20  21
HETATM   21  C   UNK N   1      24.628  13.405   8.360  0.00  0.00     0.167 C 
BRANCH  21  22
HETATM   22  C   UNK N   1      24.498  13.882   6.924  0.00  0.00     0.026 C 
BRANCH  22  23
HETATM   23  C   UNK N   1      25.507  14.984   6.633  0.00  0.00     0.002 C 
BRANCH  23  24
HETATM   24  C   UNK N   1      24.936  16.001   5.653  0.00  0.00     0.000 C 
BRANCH  24  25
HETATM   25  C   UNK N   1      25.599  15.899   4.287  0.00  0.00     0.000 C 
BRANCH  25  26
HETATM   26  C   UNK N   1      26.324  17.181   3.894  0.00  0.00     0.000 C 
BRANCH  26  27
HETATM   27  C   UNK N   1      27.809  17.151   4.246  0.00  0.00     0.000 C 
BRANCH  27  28
HETATM   28  C   UNK N   1      28.166  18.144   5.341  0.00  0.00     0.000 C 
BRANCH  28  29
HETATM   29  C   UNK N   1      28.212  17.480   6.712  0.00  0.00     0.000 C 
BRANCH  29  30
HETATM   30  C   UNK N   1      28.957  18.354   7.714  0.00  0.00     0.000 C 
BRANCH  30  31
HETATM   31  C   UNK N   1      29.917  17.548   8.578  0.00  0.00     0.000 C 
BRANCH  31  32
HETATM   32  C   UNK N   1      30.852  16.714   7.716  0.00  0.00     0.000 C 
BRANCH  32  33
HETATM   33  C   UNK N   1      32.069  16.265   8.497  0.00  0.00     0.000 C 
BRANCH  33  34
HETATM   34  C   UNK N   1      33.319  16.483   7.665  0.00  0.00     0.000 C 
BRANCH  34  35
HETATM   35  C   UNK N   1      33.107  17.624   6.686  0.00  0.00     0.000 C 
BRANCH  35  36
HETATM   36  C   UNK N   1      33.506  17.196   5.284  0.00  0.00    -0.000 C 
BRANCH  36  37
HETATM   37  C   UNK N   1      32.495  17.681   4.263  0.00  0.00    -0.005 C 
HETATM   38  C   UNK N   1      31.453  16.606   4.040  0.00  0.00     0.005 C 
ENDBRANCH  36  37
ENDBRANCH  35  36
ENDBRANCH  34  35
ENDBRANCH  33  34
ENDBRANCH  32  33
ENDBRANCH  31  32
ENDBRANCH  30  31
ENDBRANCH  29  30
ENDBRANCH  28  29
ENDBRANCH  27  28
ENDBRANCH  26  27
ENDBRANCH  25  26
ENDBRANCH  24  25
ENDBRANCH  23  24
ENDBRANCH  22  23
ENDBRANCH  21  22
ENDBRANCH  20  21
ENDBRANCH   1  20
TORSDOF 29
ENDMDL
MODEL 9
REMARK VINA RESULT:      -5.0     10.223     14.313
REMARK  29 active torsions:
REMARK  status: ('A' for Active; 'I' for Inactive)
REMARK    1  A    between atoms: C_5  and  C_4 
REMARK    2  A    between atoms: C_6  and  C_5 
REMARK    3  A    between atoms: C_7  and  C_6 
REMARK    4  A    between atoms: C_8  and  C_7 
REMARK    5  A    between atoms: C_9  and  C_8 
REMARK    6  A    between atoms: C_10  and  C_9 
REMARK    7  A    between atoms: C_11  and  C_10 
REMARK    8  A    between atoms: C_12  and  C_11 
REMARK    9  A    between atoms: C_13  and  C_12 
REMARK   10  A    between atoms: C_14  and  C_13 
REMARK   11  A    between atoms: C_15  and  C_14 
REMARK   12  A    between atoms: C_16  and  C_15 
REMARK   13  A    between atoms: C_17  and  C_16 
REMARK   14  A    between atoms: C_18  and  C_17 
REMARK   15  A    between atoms: C_19  and  C_18 
REMARK   16  A    between atoms: C_20  and  C_19 
REMARK   17  A    between atoms: O_32  and  C_20 
REMARK   18  A    between atoms: C_22  and  C_21 
REMARK   19  A    between atoms: O_33  and  C_21 
REMARK   20  A    between atoms: S_36  and  C_22 
REMARK   21  A    between atoms: C_26  and  C_23 
REMARK   22  A    between atoms: O_32  and  C_23 
REMARK   23  A    between atoms: C_26  and  C_24 
REMARK   24  A    between atoms: O_34  and  C_24 
REMARK   25  A    between atoms: O_29  and  C_25 
REMARK   26  A    between atoms: C_26  and  N_27 
REMARK   27  A    between atoms: P_35  and  O_30 
REMARK   28  A    between atoms: P_35  and  O_33 
REMARK   29  A    between atoms: P_35  and  O_34 
ROOT
HETATM    1  C   UNK N   1      23.074  12.493   7.534  0.00  0.00     0.195 C 
ENDROOT
BRANCH   1   2
HETATM    2  C   UNK N   1      22.241  12.673   8.803  0.00  0.00     0.131 C 
BRANCH   2   3
HETATM    3  C   UNK N   1      21.571  14.046   8.798  0.00  0.00     0.207 C 
BRANCH   3   4
HETATM    4  O   UNK N   1      20.384  14.006   8.059  0.00  0.00    -0.295 OA
BRANCH   4   5
HETATM    5  P   UNK N   1      20.164  15.591   7.368  0.00  0.00     0.393 P 
HETATM    6  O   UNK N   1      21.147  16.544   8.099  0.00  0.00    -0.631 OA
BRANCH   5   7
HETATM    7  O   UNK N   1      18.571  16.249   7.615  0.00  0.00    -0.307 OA
HETATM    8  H   UNK N   1      17.771  15.849   7.989  0.00  0.00     0.222 HD
ENDBRANCH   5   7
BRANCH   5   9
HETATM    9  O   UNK N   1      20.617  15.621   5.690  0.00  0.00    -0.296 OA
BRANCH   9  10
HETATM   10  C   UNK N   1      20.187  16.860   5.217  0.00  0.00     0.190 C 
BRANCH  10  11
HETATM   11  C   UNK N   1      19.608  16.697   3.825  0.00  0.00     0.100 C 
BRANCH  11  12
HETATM   12  S   UNK N   1      20.629  17.599   2.631  0.00  0.00    -0.171 SA
HETATM   13  C   UNK N   1      20.818  19.012   3.751  0.00  0.00     0.089 C 
ENDBRANCH  11  12
ENDBRANCH  10  11
ENDBRANCH   9  10
ENDBRANCH   5   9
ENDBRANCH   4   5
ENDBRANCH   3   4
ENDBRANCH   2   3
BRANCH   2  14
HETATM   14  N   UNK N   1      23.047  12.488   9.998  0.00  0.00    -0.366 N 
HETATM   15  C   UNK N   1      22.592  12.078  11.136  0.00  0.00     0.107 C 
HETATM   16  C   UNK N   1      23.526  11.926  12.286  0.00  0.00     0.097 C 
ATOM     17  HN  UNK N   1      24.044  12.695   9.934  1.00  0.00     0.161 HD
BRANCH  15  18
HETATM   18  O   UNK N   1      21.284  11.791  11.301  0.00  0.00    -0.350 OA
HETATM   19  H   UNK N   1      20.512  11.558  10.823  0.00  0.00     0.219 HD
ENDBRANCH  15  18
ENDBRANCH   2  14
ENDBRANCH   1   2
BRANCH   1  20
HETATM   20  O   UNK N   1      23.517  13.722   7.051  0.00  0.00    -0.389 OA
BRANCH  20  21
HETATM   21  C   UNK N   1      24.907  13.603   6.989  0.00  0.00     0.167 C 
BRANCH  21  22
HETATM   22  C   UNK N   1      25.548  14.965   7.184  0.00  0.00     0.026 C 
BRANCH  22  23
HETATM   23  C   UNK N   1      25.838  15.618   5.840  0.00  0.00     0.002 C 
BRANCH  23  24
HETATM   24  C   UNK N   1      24.674  16.494   5.396  0.00  0.00     0.000 C 
BRANCH  24  25
HETATM   25  C   UNK N   1      24.953  17.166   4.060  0.00  0.00     0.000 C 
BRANCH  25  26
HETATM   26  C   UNK N   1      24.536  18.633   4.047  0.00  0.00     0.000 C 
BRANCH  26  27
HETATM   27  C   UNK N   1      25.549  19.528   3.340  0.00  0.00     0.000 C 
BRANCH  27  28
HETATM   28  C   UNK N   1      26.519  20.185   4.310  0.00  0.00     0.000 C 
BRANCH  28  29
HETATM   29  C   UNK N   1      27.945  19.684   4.110  0.00  0.00     0.000 C 
BRANCH  29  30
HETATM   30  C   UNK N   1      28.385  18.818   5.284  0.00  0.00     0.000 C 
BRANCH  30  31
HETATM   31  C   UNK N   1      27.416  18.900   6.455  0.00  0.00     0.000 C 
BRANCH  31  32
HETATM   32  C   UNK N   1      28.168  18.976   7.775  0.00  0.00     0.000 C 
BRANCH  32  33
HETATM   33  C   UNK N   1      28.186  17.634   8.477  0.00  0.00     0.000 C 
BRANCH  33  34
HETATM   34  C   UNK N   1      29.567  17.377   9.052  0.00  0.00     0.000 C 
BRANCH  34  35
HETATM   35  C   UNK N   1      30.613  17.431   7.952  0.00  0.00     0.000 C 
BRANCH  35  36
HETATM   36  C   UNK N   1      31.920  17.982   8.496  0.00  0.00    -0.000 C 
BRANCH  36  37
HETATM   37  C   UNK N   1      33.079  17.615   7.589  0.00  0.00    -0.005 C 
HETATM   38  C   UNK N   1      34.333  18.313   8.073  0.00  0.00     0.005 C 
ENDBRANCH  36  37
ENDBRANCH  35  36
ENDBRANCH  34  35
ENDBRANCH  33  34
ENDBRANCH  32  33
ENDBRANCH  31  32
ENDBRANCH  30  31
ENDBRANCH  29  30
ENDBRANCH  28  29
ENDBRANCH  27  28
ENDBRANCH  26  27
ENDBRANCH  25  26
ENDBRANCH  24  25
ENDBRANCH  23  24
ENDBRANCH  22  23
ENDBRANCH  21  22
ENDBRANCH  20  21
ENDBRANCH   1  20
TORSDOF 29
ENDMDL
