MODEL 1
REMARK VINA RESULT:      -5.3      0.000      0.000
REMARK  28 active torsions:
REMARK  status: ('A' for Active; 'I' for Inactive)
REMARK    1  A    between atoms: C_3  and  C_2 
REMARK    2  A    between atoms: C_4  and  C_3 
REMARK    3  A    between atoms: C_5  and  C_4 
REMARK    4  A    between atoms: C_6  and  C_5 
REMARK    5  A    between atoms: C_7  and  C_6 
REMARK    6  A    between atoms: C_8  and  C_7 
REMARK    7  A    between atoms: C_9  and  C_8 
REMARK    8  A    between atoms: C_10  and  C_9 
REMARK    9  A    between atoms: C_11  and  C_10 
REMARK   10  A    between atoms: C_12  and  C_11 
REMARK   11  A    between atoms: C_13  and  C_12 
REMARK   12  A    between atoms: C_14  and  C_13 
REMARK   13  A    between atoms: C_20  and  C_14 
REMARK   14  A    between atoms: C_18  and  C_15 
REMARK   15  A    between atoms: O_29  and  C_15 
REMARK   16  A    between atoms: C_18  and  C_16 
REMARK   17  A    between atoms: O_30  and  C_16 
REMARK   18  A    between atoms: C_19  and  C_17 
REMARK   19  A    between atoms: O_31  and  C_17 
REMARK   20  A    between atoms: C_18  and  O_23 
REMARK   21  A    between atoms: C_21  and  C_19 
REMARK   22  A    between atoms: C_19  and  N_22 
REMARK   23  A    between atoms: C_20  and  O_24 
REMARK   24  A    between atoms: O_29  and  C_20 
REMARK   25  A    between atoms: O_26  and  C_21 
REMARK   26  A    between atoms: P_32  and  O_27 
REMARK   27  A    between atoms: P_32  and  O_30 
REMARK   28  A    between atoms: P_32  and  O_31 
ROOT
HETATM    1  C   UNK N   1      36.240  13.635  10.204  0.00  0.00     0.204 C 
ENDROOT
BRANCH   1   2
HETATM    2  C   UNK N   1      36.575  14.980   9.559  0.00  0.00     0.166 C 
BRANCH   2   3
HETATM    3  C   UNK N   1      35.393  15.557   8.770  0.00  0.00     0.214 C 
BRANCH   3   4
HETATM    4  O   UNK N   1      34.797  16.635   9.439  0.00  0.00    -0.294 OA
BRANCH   4   5
HETATM    5  P   UNK N   1      34.377  17.849   8.247  0.00  0.00     0.393 P 
HETATM    6  O   UNK N   1      34.799  17.354   6.834  0.00  0.00    -0.631 OA
BRANCH   5   7
HETATM    7  O   UNK N   1      35.255  19.320   8.526  0.00  0.00    -0.307 OA
HETATM    8  H   UNK N   1      35.309  20.100   9.100  0.00  0.00     0.222 HD
ENDBRANCH   5   7
BRANCH   5   9
HETATM    9  O   UNK N   1      32.663  18.132   8.162  0.00  0.00    -0.294 OA
BRANCH   9  10
HETATM   10  C   UNK N   1      32.214  17.391   7.065  0.00  0.00     0.216 C 
BRANCH  10  11
HETATM   11  C   UNK N   1      31.282  16.270   7.513  0.00  0.00     0.198 C 
BRANCH  11  12
HETATM   12  C   UNK N   1      31.050  16.377   8.994  0.00  0.00     0.165 C 
HETATM   13  O   UNK N   1      30.077  16.963   9.434  0.00  0.00    -0.648 OA
BRANCH  12  14
HETATM   14  O   UNK N   1      31.936  15.822   9.848  0.00  0.00    -0.775 OA
HETATM   15  H   UNK N   1      31.928  14.903  10.030  0.00  0.00     0.167 HD
ENDBRANCH  12  14
ENDBRANCH  11  12
BRANCH  11  16
HETATM   16  N   UNK N   1      31.864  14.980   7.170  0.00  0.00    -0.416 N 
HETATM   17  H   UNK N   1      31.470  14.111   7.531  0.00  0.00     0.150 HD
HETATM   18  H   UNK N   1      32.680  14.944   6.557  0.00  0.00     0.150 HD
ENDBRANCH  11  16
ENDBRANCH  10  11
ENDBRANCH   9  10
ENDBRANCH   5   9
ENDBRANCH   4   5
ENDBRANCH   3   4
ENDBRANCH   2   3
BRANCH   2  19
HETATM   19  O   UNK N   1      36.949  15.873  10.563  0.00  0.00    -0.391 OA
HETATM   20  H   UNK N   1      36.543  16.751  10.638  0.00  0.00     0.210 HD
ENDBRANCH   2  19
ENDBRANCH   1   2
BRANCH   1  21
HETATM   21  O   UNK N   1      36.285  13.675  11.612  0.00  0.00    -0.359 OA
BRANCH  21  22
HETATM   22  C   UNK N   1      34.998  13.469  12.151  0.00  0.00     0.256 C 
BRANCH  22  23
HETATM   23  C   UNK N   1      35.032  13.498  13.675  0.00  0.00     0.060 C 
BRANCH  23  24
HETATM   24  C   UNK N   1      36.439  13.482  14.266  0.00  0.00     0.005 C 
BRANCH  24  25
HETATM   25  C   UNK N   1      36.447  13.635  15.789  0.00  0.00     0.000 C 
BRANCH  25  26
HETATM   26  C   UNK N   1      35.090  13.389  16.452  0.00  0.00     0.000 C 
BRANCH  26  27
HETATM   27  C   UNK N   1      35.204  12.598  17.747  0.00  0.00     0.000 C 
BRANCH  27  28
HETATM   28  C   UNK N   1      35.882  11.273  17.451  0.00  0.00     0.000 C 
BRANCH  28  29
HETATM   29  C   UNK N   1      34.911  10.122  17.595  0.00  0.00     0.000 C 
BRANCH  29  30
HETATM   30  C   UNK N   1      34.991   9.211  16.380  0.00  0.00     0.000 C 
BRANCH  30  31
HETATM   31  C   UNK N   1      35.187   9.999  15.094  0.00  0.00     0.000 C 
BRANCH  31  32
HETATM   32  C   UNK N   1      33.845  10.454  14.549  0.00  0.00     0.000 C 
BRANCH  32  33
HETATM   33  C   UNK N   1      33.760  10.194  13.059  0.00  0.00     0.000 C 
BRANCH  33  34
HETATM   34  C   UNK N   1      35.077   9.627  12.567  0.00  0.00    -0.000 C 
BRANCH  34  35
HETATM   35  C   UNK N   1      34.823   8.344  11.805  0.00  0.00    -0.005 C 
HETATM   36  C   UNK N   1      35.402   7.179  12.580  0.00  0.00     0.005 C 
ENDBRANCH  34  35
ENDBRANCH  33  34
ENDBRANCH  32  33
ENDBRANCH  31  32
ENDBRANCH  30  31
ENDBRANCH  29  30
ENDBRANCH  28  29
ENDBRANCH  27  28
ENDBRANCH  26  27
ENDBRANCH  25  26
ENDBRANCH  24  25
ENDBRANCH  23  24
ENDBRANCH  22  23
BRANCH  22  37
HETATM   37  O   UNK N   1      34.191  14.526  11.732  0.00  0.00    -0.371 OA
HETATM   38  H   UNK N   1      34.532  15.375  11.409  0.00  0.00     0.212 HD
ENDBRANCH  22  37
ENDBRANCH  21  22
ENDBRANCH   1  21
TORSDOF 28
ENDMDL
MODEL 2
REMARK VINA RESULT:      -5.3      1.638      3.648
REMARK  28 active torsions:
REMARK  status: ('A' for Active; 'I' for Inactive)
REMARK    1  A    between atoms: C_3  and  C_2 
REMARK    2  A    between atoms: C_4  and  C_3 
REMARK    3  A    between atoms: C_5  and  C_4 
REMARK    4  A    between atoms: C_6  and  C_5 
REMARK    5  A    between atoms: C_7  and  C_6 
REMARK    6  A    between atoms: C_8  and  C_7 
REMARK    7  A    between atoms: C_9  and  C_8 
REMARK    8  A    between atoms: C_10  and  C_9 
REMARK    9  A    between atoms: C_11  and  C_10 
REMARK   10  A    between atoms: C_12  and  C_11 
REMARK   11  A    between atoms: C_13  and  C_12 
REMARK   12  A    between atoms: C_14  and  C_13 
REMARK   13  A    between atoms: C_20  and  C_14 
REMARK   14  A    between atoms: C_18  and  C_15 
REMARK   15  A    between atoms: O_29  and  C_15 
REMARK   16  A    between atoms: C_18  and  C_16 
REMARK   17  A    between atoms: O_30  and  C_16 
REMARK   18  A    between atoms: C_19  and  C_17 
REMARK   19  A    between atoms: O_31  and  C_17 
REMARK   20  A    between atoms: C_18  and  O_23 
REMARK   21  A    between atoms: C_21  and  C_19 
REMARK   22  A    between atoms: C_19  and  N_22 
REMARK   23  A    between atoms: C_20  and  O_24 
REMARK   24  A    between atoms: O_29  and  C_20 
REMARK   25  A    between atoms: O_26  and  C_21 
REMARK   26  A    between atoms: P_32  and  O_27 
REMARK   27  A    between atoms: P_32  and  O_30 
REMARK   28  A    between atoms: P_32  and  O_31 
ROOT
HETATM    1  C   UNK N   1      35.402  15.115  12.053  0.00  0.00     0.204 C 
ENDROOT
BRANCH   1   2
HETATM    2  C   UNK N   1      35.865  15.584  10.673  0.00  0.00     0.166 C 
BRANCH   2   3
HETATM    3  C   UNK N   1      34.968  16.689  10.104  0.00  0.00     0.214 C 
BRANCH   3   4
HETATM    4  O   UNK N   1      34.645  16.458   8.760  0.00  0.00    -0.294 OA
BRANCH   4   5
HETATM    5  P   UNK N   1      34.209  17.993   8.034  0.00  0.00     0.393 P 
HETATM    6  O   UNK N   1      34.315  17.882   6.487  0.00  0.00    -0.631 OA
BRANCH   5   7
HETATM    7  O   UNK N   1      35.322  19.239   8.507  0.00  0.00    -0.307 OA
HETATM    8  H   UNK N   1      35.664  20.113   8.265  0.00  0.00     0.222 HD
ENDBRANCH   5   7
BRANCH   5   9
HETATM    9  O   UNK N   1      32.563  18.443   8.371  0.00  0.00    -0.294 OA
BRANCH   9  10
HETATM   10  C   UNK N   1      31.807  17.286   8.161  0.00  0.00     0.216 C 
BRANCH  10  11
HETATM   11  C   UNK N   1      30.402  17.635   7.681  0.00  0.00     0.198 C 
BRANCH  11  12
HETATM   12  C   UNK N   1      29.540  17.968   8.866  0.00  0.00     0.165 C 
HETATM   13  O   UNK N   1      28.325  17.976   8.772  0.00  0.00    -0.648 OA
BRANCH  12  14
HETATM   14  O   UNK N   1      30.119  18.267  10.047  0.00  0.00    -0.775 OA
HETATM   15  H   UNK N   1      31.034  18.124  10.192  0.00  0.00     0.167 HD
ENDBRANCH  12  14
ENDBRANCH  11  12
BRANCH  11  16
HETATM   16  N   UNK N   1      29.847  16.517   6.932  0.00  0.00    -0.416 N 
HETATM   17  H   UNK N   1      29.670  16.590   5.930  0.00  0.00     0.150 HD
HETATM   18  H   UNK N   1      29.632  15.645   7.417  0.00  0.00     0.150 HD
ENDBRANCH  11  16
ENDBRANCH  10  11
ENDBRANCH   9  10
ENDBRANCH   5   9
ENDBRANCH   4   5
ENDBRANCH   3   4
ENDBRANCH   2   3
BRANCH   2  19
HETATM   19  O   UNK N   1      37.174  16.052  10.780  0.00  0.00    -0.391 OA
HETATM   20  H   UNK N   1      37.935  15.470  10.630  0.00  0.00     0.210 HD
ENDBRANCH   2  19
ENDBRANCH   1   2
BRANCH   1  21
HETATM   21  O   UNK N   1      36.461  14.985  12.973  0.00  0.00    -0.359 OA
BRANCH  21  22
HETATM   22  C   UNK N   1      36.168  13.985  13.922  0.00  0.00     0.256 C 
BRANCH  22  23
HETATM   23  C   UNK N   1      35.995  12.627  13.251  0.00  0.00     0.060 C 
BRANCH  23  24
HETATM   24  C   UNK N   1      37.308  11.908  12.954  0.00  0.00     0.005 C 
BRANCH  24  25
HETATM   25  C   UNK N   1      37.206  10.390  13.114  0.00  0.00     0.000 C 
BRANCH  25  26
HETATM   26  C   UNK N   1      35.804   9.825  12.874  0.00  0.00     0.000 C 
BRANCH  26  27
HETATM   27  C   UNK N   1      35.394   8.804  13.925  0.00  0.00     0.000 C 
BRANCH  27  28
HETATM   28  C   UNK N   1      36.617   8.420  14.737  0.00  0.00     0.000 C 
BRANCH  28  29
HETATM   29  C   UNK N   1      36.338   8.523  16.220  0.00  0.00     0.000 C 
BRANCH  29  30
HETATM   30  C   UNK N   1      36.809   9.868  16.751  0.00  0.00     0.000 C 
BRANCH  30  31
HETATM   31  C   UNK N   1      36.373  10.093  18.191  0.00  0.00     0.000 C 
BRANCH  31  32
HETATM   32  C   UNK N   1      35.424  11.276  18.270  0.00  0.00     0.000 C 
BRANCH  32  33
HETATM   33  C   UNK N   1      35.282  11.936  16.914  0.00  0.00     0.000 C 
BRANCH  33  34
HETATM   34  C   UNK N   1      34.690  13.321  17.083  0.00  0.00    -0.000 C 
BRANCH  34  35
HETATM   35  C   UNK N   1      35.276  13.974  18.317  0.00  0.00    -0.005 C 
HETATM   36  C   UNK N   1      36.106  15.171  17.903  0.00  0.00     0.005 C 
ENDBRANCH  34  35
ENDBRANCH  33  34
ENDBRANCH  32  33
ENDBRANCH  31  32
ENDBRANCH  30  31
ENDBRANCH  29  30
ENDBRANCH  28  29
ENDBRANCH  27  28
ENDBRANCH  26  27
ENDBRANCH  25  26
ENDBRANCH  24  25
ENDBRANCH  23  24
ENDBRANCH  22  23
BRANCH  22  37
HETATM   37  O   UNK N   1      37.260  13.886  14.784  0.00  0.00    -0.371 OA
HETATM   38  H   UNK N   1      37.739  13.062  14.960  0.00  0.00     0.212 HD
ENDBRANCH  22  37
ENDBRANCH  21  22
ENDBRANCH   1  21
TORSDOF 28
ENDMDL
MODEL 3
REMARK VINA RESULT:      -5.3      1.445      2.128
REMARK  28 active torsions:
REMARK  status: ('A' for Active; 'I' for Inactive)
REMARK    1  A    between atoms: C_3  and  C_2 
REMARK    2  A    between atoms: C_4  and  C_3 
REMARK    3  A    between atoms: C_5  and  C_4 
REMARK    4  A    between atoms: C_6  and  C_5 
REMARK    5  A    between atoms: C_7  and  C_6 
REMARK    6  A    between atoms: C_8  and  C_7 
REMARK    7  A    between atoms: C_9  and  C_8 
REMARK    8  A    between atoms: C_10  and  C_9 
REMARK    9  A    between atoms: C_11  and  C_10 
REMARK   10  A    between atoms: C_12  and  C_11 
REMARK   11  A    between atoms: C_13  and  C_12 
REMARK   12  A    between atoms: C_14  and  C_13 
REMARK   13  A    between atoms: C_20  and  C_14 
REMARK   14  A    between atoms: C_18  and  C_15 
REMARK   15  A    between atoms: O_29  and  C_15 
REMARK   16  A    between atoms: C_18  and  C_16 
REMARK   17  A    between atoms: O_30  and  C_16 
REMARK   18  A    between atoms: C_19  and  C_17 
REMARK   19  A    between atoms: O_31  and  C_17 
REMARK   20  A    between atoms: C_18  and  O_23 
REMARK   21  A    between atoms: C_21  and  C_19 
REMARK   22  A    between atoms: C_19  and  N_22 
REMARK   23  A    between atoms: C_20  and  O_24 
REMARK   24  A    between atoms: O_29  and  C_20 
REMARK   25  A    between atoms: O_26  and  C_21 
REMARK   26  A    between atoms: P_32  and  O_27 
REMARK   27  A    between atoms: P_32  and  O_30 
REMARK   28  A    between atoms: P_32  and  O_31 
ROOT
HETATM    1  C   UNK N   1      36.235  14.839  10.569  0.00  0.00     0.204 C 
ENDROOT
BRANCH   1   2
HETATM    2  C   UNK N   1      35.353  15.746   9.710  0.00  0.00     0.166 C 
BRANCH   2   3
HETATM    3  C   UNK N   1      34.533  14.956   8.683  0.00  0.00     0.214 C 
BRANCH   3   4
HETATM    4  O   UNK N   1      35.088  15.038   7.399  0.00  0.00    -0.294 OA
BRANCH   4   5
HETATM    5  P   UNK N   1      34.114  16.150   6.457  0.00  0.00     0.393 P 
HETATM    6  O   UNK N   1      34.387  15.921   4.943  0.00  0.00    -0.631 OA
BRANCH   5   7
HETATM    7  O   UNK N   1      34.560  17.795   6.786  0.00  0.00    -0.307 OA
HETATM    8  H   UNK N   1      35.296  18.365   7.061  0.00  0.00     0.222 HD
ENDBRANCH   5   7
BRANCH   5   9
HETATM    9  O   UNK N   1      32.408  15.892   6.680  0.00  0.00    -0.294 OA
BRANCH   9  10
HETATM   10  C   UNK N   1      31.794  17.081   6.276  0.00  0.00     0.216 C 
BRANCH  10  11
HETATM   11  C   UNK N   1      30.527  17.340   7.086  0.00  0.00     0.198 C 
BRANCH  11  12
HETATM   12  C   UNK N   1      30.868  17.352   8.550  0.00  0.00     0.165 C 
HETATM   13  O   UNK N   1      30.012  17.147   9.393  0.00  0.00    -0.648 OA
BRANCH  12  14
HETATM   14  O   UNK N   1      32.137  17.601   8.936  0.00  0.00    -0.775 OA
HETATM   15  H   UNK N   1      32.655  16.944   9.358  0.00  0.00     0.167 HD
ENDBRANCH  12  14
ENDBRANCH  11  12
BRANCH  11  16
HETATM   16  N   UNK N   1      29.537  16.315   6.792  0.00  0.00    -0.416 N 
HETATM   17  H   UNK N   1      28.540  16.495   6.913  0.00  0.00     0.150 HD
HETATM   18  H   UNK N   1      29.844  15.400   6.458  0.00  0.00     0.150 HD
ENDBRANCH  11  16
ENDBRANCH  10  11
ENDBRANCH   9  10
ENDBRANCH   5   9
ENDBRANCH   4   5
ENDBRANCH   3   4
ENDBRANCH   2   3
BRANCH   2  19
HETATM   19  O   UNK N   1      34.494  16.455  10.550  0.00  0.00    -0.391 OA
HETATM   20  H   UNK N   1      33.653  16.815  10.227  0.00  0.00     0.210 HD
ENDBRANCH   2  19
ENDBRANCH   1   2
BRANCH   1  21
HETATM   21  O   UNK N   1      35.867  13.481  10.490  0.00  0.00    -0.359 OA
BRANCH  21  22
HETATM   22  C   UNK N   1      35.397  13.025  11.738  0.00  0.00     0.256 C 
BRANCH  22  23
HETATM   23  C   UNK N   1      36.403  13.323  12.844  0.00  0.00     0.060 C 
BRANCH  23  24
HETATM   24  C   UNK N   1      35.773  13.851  14.131  0.00  0.00     0.005 C 
BRANCH  24  25
HETATM   25  C   UNK N   1      36.543  13.433  15.386  0.00  0.00     0.000 C 
BRANCH  25  26
HETATM   26  C   UNK N   1      36.006  14.038  16.684  0.00  0.00     0.000 C 
BRANCH  26  27
HETATM   27  C   UNK N   1      34.958  13.160  17.353  0.00  0.00     0.000 C 
BRANCH  27  28
HETATM   28  C   UNK N   1      35.293  13.040  18.828  0.00  0.00     0.000 C 
BRANCH  28  29
HETATM   29  C   UNK N   1      35.329  11.590  19.260  0.00  0.00     0.000 C 
BRANCH  29  30
HETATM   30  C   UNK N   1      35.181  10.679  18.052  0.00  0.00     0.000 C 
BRANCH  30  31
HETATM   31  C   UNK N   1      36.424   9.831  17.827  0.00  0.00     0.000 C 
BRANCH  31  32
HETATM   32  C   UNK N   1      36.271   9.006  16.560  0.00  0.00     0.000 C 
BRANCH  32  33
HETATM   33  C   UNK N   1      36.156   9.908  15.349  0.00  0.00     0.000 C 
BRANCH  33  34
HETATM   34  C   UNK N   1      35.410   9.184  14.246  0.00  0.00    -0.000 C 
BRANCH  34  35
HETATM   35  C   UNK N   1      34.386  10.114  13.633  0.00  0.00    -0.005 C 
HETATM   36  C   UNK N   1      33.657  10.853  14.735  0.00  0.00     0.005 C 
ENDBRANCH  34  35
ENDBRANCH  33  34
ENDBRANCH  32  33
ENDBRANCH  31  32
ENDBRANCH  30  31
ENDBRANCH  29  30
ENDBRANCH  28  29
ENDBRANCH  27  28
ENDBRANCH  26  27
ENDBRANCH  25  26
ENDBRANCH  24  25
ENDBRANCH  23  24
ENDBRANCH  22  23
BRANCH  22  37
HETATM   37  O   UNK N   1      34.231  13.731  12.034  0.00  0.00    -0.371 OA
HETATM   38  H   UNK N   1      33.432  13.326  12.406  0.00  0.00     0.212 HD
ENDBRANCH  22  37
ENDBRANCH  21  22
ENDBRANCH   1  21
TORSDOF 28
ENDMDL
MODEL 4
REMARK VINA RESULT:      -5.2      3.890      9.949
REMARK  28 active torsions:
REMARK  status: ('A' for Active; 'I' for Inactive)
REMARK    1  A    between atoms: C_3  and  C_2 
REMARK    2  A    between atoms: C_4  and  C_3 
REMARK    3  A    between atoms: C_5  and  C_4 
REMARK    4  A    between atoms: C_6  and  C_5 
REMARK    5  A    between atoms: C_7  and  C_6 
REMARK    6  A    between atoms: C_8  and  C_7 
REMARK    7  A    between atoms: C_9  and  C_8 
REMARK    8  A    between atoms: C_10  and  C_9 
REMARK    9  A    between atoms: C_11  and  C_10 
REMARK   10  A    between atoms: C_12  and  C_11 
REMARK   11  A    between atoms: C_13  and  C_12 
REMARK   12  A    between atoms: C_14  and  C_13 
REMARK   13  A    between atoms: C_20  and  C_14 
REMARK   14  A    between atoms: C_18  and  C_15 
REMARK   15  A    between atoms: O_29  and  C_15 
REMARK   16  A    between atoms: C_18  and  C_16 
REMARK   17  A    between atoms: O_30  and  C_16 
REMARK   18  A    between atoms: C_19  and  C_17 
REMARK   19  A    between atoms: O_31  and  C_17 
REMARK   20  A    between atoms: C_18  and  O_23 
REMARK   21  A    between atoms: C_21  and  C_19 
REMARK   22  A    between atoms: C_19  and  N_22 
REMARK   23  A    between atoms: C_20  and  O_24 
REMARK   24  A    between atoms: O_29  and  C_20 
REMARK   25  A    between atoms: O_26  and  C_21 
REMARK   26  A    between atoms: P_32  and  O_27 
REMARK   27  A    between atoms: P_32  and  O_30 
REMARK   28  A    between atoms: P_32  and  O_31 
ROOT
HETATM    1  C   UNK N   1      34.633  16.059   9.863  0.00  0.00     0.204 C 
ENDROOT
BRANCH   1   2
HETATM    2  C   UNK N   1      35.441  15.765  11.128  0.00  0.00     0.166 C 
BRANCH   2   3
HETATM    3  C   UNK N   1      35.377  14.286  11.528  0.00  0.00     0.214 C 
BRANCH   3   4
HETATM    4  O   UNK N   1      34.868  14.118  12.823  0.00  0.00    -0.294 OA
BRANCH   4   5
HETATM    5  P   UNK N   1      36.165  13.526  13.843  0.00  0.00     0.393 P 
HETATM    6  O   UNK N   1      36.743  14.702  14.679  0.00  0.00    -0.631 OA
BRANCH   5   7
HETATM    7  O   UNK N   1      37.479  12.921  12.883  0.00  0.00    -0.307 OA
HETATM    8  H   UNK N   1      38.231  13.188  12.331  0.00  0.00     0.222 HD
ENDBRANCH   5   7
BRANCH   5   9
HETATM    9  O   UNK N   1      35.617  12.343  14.996  0.00  0.00    -0.294 OA
BRANCH   9  10
HETATM   10  C   UNK N   1      36.097  12.778  16.234  0.00  0.00     0.216 C 
BRANCH  10  11
HETATM   11  C   UNK N   1      35.054  12.562  17.326  0.00  0.00     0.198 C 
BRANCH  11  12
HETATM   12  C   UNK N   1      35.317  13.512  18.460  0.00  0.00     0.165 C 
HETATM   13  O   UNK N   1      35.330  13.121  19.614  0.00  0.00    -0.648 OA
BRANCH  12  14
HETATM   14  O   UNK N   1      35.536  14.817  18.197  0.00  0.00    -0.775 OA
HETATM   15  H   UNK N   1      34.879  15.465  18.362  0.00  0.00     0.167 HD
ENDBRANCH  12  14
ENDBRANCH  11  12
BRANCH  11  16
HETATM   16  N   UNK N   1      35.100  11.180  17.784  0.00  0.00    -0.416 N 
HETATM   17  H   UNK N   1      35.910  10.820  18.290  0.00  0.00     0.150 HD
HETATM   18  H   UNK N   1      34.310  10.562  17.597  0.00  0.00     0.150 HD
ENDBRANCH  11  16
ENDBRANCH  10  11
ENDBRANCH   9  10
ENDBRANCH   5   9
ENDBRANCH   4   5
ENDBRANCH   3   4
ENDBRANCH   2   3
BRANCH   2  19
HETATM   19  O   UNK N   1      36.767  16.133  10.903  0.00  0.00    -0.391 OA
HETATM   20  H   UNK N   1      37.026  16.640  10.118  0.00  0.00     0.210 HD
ENDBRANCH   2  19
ENDBRANCH   1   2
BRANCH   1  21
HETATM   21  O   UNK N   1      34.353  17.430   9.697  0.00  0.00    -0.359 OA
BRANCH  21  22
HETATM   22  C   UNK N   1      34.674  17.842   8.388  0.00  0.00     0.256 C 
BRANCH  22  23
HETATM   23  C   UNK N   1      33.420  17.966   7.529  0.00  0.00     0.060 C 
BRANCH  23  24
HETATM   24  C   UNK N   1      32.152  18.270   8.322  0.00  0.00     0.005 C 
BRANCH  24  25
HETATM   25  C   UNK N   1      31.176  17.091   8.361  0.00  0.00     0.000 C 
BRANCH  25  26
HETATM   26  C   UNK N   1      29.948  17.321   9.244  0.00  0.00     0.000 C 
BRANCH  26  27
HETATM   27  C   UNK N   1      28.907  18.212   8.582  0.00  0.00     0.000 C 
BRANCH  27  28
HETATM   28  C   UNK N   1      28.376  17.508   7.347  0.00  0.00     0.000 C 
BRANCH  28  29
HETATM   29  C   UNK N   1      28.526  18.381   6.120  0.00  0.00     0.000 C 
BRANCH  29  30
HETATM   30  C   UNK N   1      28.594  17.520   4.869  0.00  0.00     0.000 C 
BRANCH  30  31
HETATM   31  C   UNK N   1      29.817  16.616   4.869  0.00  0.00     0.000 C 
BRANCH  31  32
HETATM   32  C   UNK N   1      31.053  17.408   4.477  0.00  0.00     0.000 C 
BRANCH  32  33
HETATM   33  C   UNK N   1      31.585  16.936   3.140  0.00  0.00     0.000 C 
BRANCH  33  34
HETATM   34  C   UNK N   1      33.081  16.714   3.239  0.00  0.00    -0.000 C 
BRANCH  34  35
HETATM   35  C   UNK N   1      33.370  15.680   4.306  0.00  0.00    -0.005 C 
HETATM   36  C   UNK N   1      33.063  14.301   3.764  0.00  0.00     0.005 C 
ENDBRANCH  34  35
ENDBRANCH  33  34
ENDBRANCH  32  33
ENDBRANCH  31  32
ENDBRANCH  30  31
ENDBRANCH  29  30
ENDBRANCH  28  29
ENDBRANCH  27  28
ENDBRANCH  26  27
ENDBRANCH  25  26
ENDBRANCH  24  25
ENDBRANCH  23  24
ENDBRANCH  22  23
BRANCH  22  37
HETATM   37  O   UNK N   1      35.248  19.109   8.471  0.00  0.00    -0.371 OA
HETATM   38  H   UNK N   1      35.828  19.395   9.194  0.00  0.00     0.212 HD
ENDBRANCH  22  37
ENDBRANCH  21  22
ENDBRANCH   1  21
TORSDOF 28
ENDMDL
MODEL 5
REMARK VINA RESULT:      -5.1      2.306      4.305
REMARK  28 active torsions:
REMARK  status: ('A' for Active; 'I' for Inactive)
REMARK    1  A    between atoms: C_3  and  C_2 
REMARK    2  A    between atoms: C_4  and  C_3 
REMARK    3  A    between atoms: C_5  and  C_4 
REMARK    4  A    between atoms: C_6  and  C_5 
REMARK    5  A    between atoms: C_7  and  C_6 
REMARK    6  A    between atoms: C_8  and  C_7 
REMARK    7  A    between atoms: C_9  and  C_8 
REMARK    8  A    between atoms: C_10  and  C_9 
REMARK    9  A    between atoms: C_11  and  C_10 
REMARK   10  A    between atoms: C_12  and  C_11 
REMARK   11  A    between atoms: C_13  and  C_12 
REMARK   12  A    between atoms: C_14  and  C_13 
REMARK   13  A    between atoms: C_20  and  C_14 
REMARK   14  A    between atoms: C_18  and  C_15 
REMARK   15  A    between atoms: O_29  and  C_15 
REMARK   16  A    between atoms: C_18  and  C_16 
REMARK   17  A    between atoms: O_30  and  C_16 
REMARK   18  A    between atoms: C_19  and  C_17 
REMARK   19  A    between atoms: O_31  and  C_17 
REMARK   20  A    between atoms: C_18  and  O_23 
REMARK   21  A    between atoms: C_21  and  C_19 
REMARK   22  A    between atoms: C_19  and  N_22 
REMARK   23  A    between atoms: C_20  and  O_24 
REMARK   24  A    between atoms: O_29  and  C_20 
REMARK   25  A    between atoms: O_26  and  C_21 
REMARK   26  A    between atoms: P_32  and  O_27 
REMARK   27  A    between atoms: P_32  and  O_30 
REMARK   28  A    between atoms: P_32  and  O_31 
ROOT
HETATM    1  C   UNK N   1      36.695  12.441  11.160  0.00  0.00     0.204 C 
ENDROOT
BRANCH   1   2
HETATM    2  C   UNK N   1      37.693  13.071  10.188  0.00  0.00     0.166 C 
BRANCH   2   3
HETATM    3  C   UNK N   1      37.114  14.302   9.478  0.00  0.00     0.214 C 
BRANCH   3   4
HETATM    4  O   UNK N   1      36.910  15.367  10.365  0.00  0.00    -0.294 OA
BRANCH   4   5
HETATM    5  P   UNK N   1      35.278  15.962  10.133  0.00  0.00     0.393 P 
HETATM    6  O   UNK N   1      35.271  17.512  10.253  0.00  0.00    -0.631 OA
BRANCH   5   7
HETATM    7  O   UNK N   1      34.223  15.375  11.381  0.00  0.00    -0.307 OA
HETATM    8  H   UNK N   1      33.666  15.650  12.125  0.00  0.00     0.222 HD
ENDBRANCH   5   7
BRANCH   5   9
HETATM    9  O   UNK N   1      34.658  15.601   8.548  0.00  0.00    -0.294 OA
BRANCH   9  10
HETATM   10  C   UNK N   1      34.555  16.834   7.897  0.00  0.00     0.216 C 
BRANCH  10  11
HETATM   11  C   UNK N   1      33.282  16.899   7.058  0.00  0.00     0.198 C 
BRANCH  11  12
HETATM   12  C   UNK N   1      32.100  17.101   7.964  0.00  0.00     0.165 C 
HETATM   13  O   UNK N   1      31.009  17.403   7.511  0.00  0.00    -0.648 OA
BRANCH  12  14
HETATM   14  O   UNK N   1      32.249  16.953   9.297  0.00  0.00    -0.775 OA
HETATM   15  H   UNK N   1      33.077  17.094   9.714  0.00  0.00     0.167 HD
ENDBRANCH  12  14
ENDBRANCH  11  12
BRANCH  11  16
HETATM   16  N   UNK N   1      33.140  15.674   6.284  0.00  0.00    -0.416 N 
HETATM   17  H   UNK N   1      33.537  15.594   5.348  0.00  0.00     0.150 HD
HETATM   18  H   UNK N   1      32.635  14.882   6.685  0.00  0.00     0.150 HD
ENDBRANCH  11  16
ENDBRANCH  10  11
ENDBRANCH   9  10
ENDBRANCH   5   9
ENDBRANCH   4   5
ENDBRANCH   3   4
ENDBRANCH   2   3
BRANCH   2  19
HETATM   19  O   UNK N   1      38.836  13.435  10.899  0.00  0.00    -0.391 OA
HETATM   20  H   UNK N   1      39.683  13.591  10.452  0.00  0.00     0.210 HD
ENDBRANCH   2  19
ENDBRANCH   1   2
BRANCH   1  21
HETATM   21  O   UNK N   1      37.206  12.319  12.468  0.00  0.00    -0.359 OA
BRANCH  21  22
HETATM   22  C   UNK N   1      36.422  13.063  13.373  0.00  0.00     0.256 C 
BRANCH  22  23
HETATM   23  C   UNK N   1      36.741  12.682  14.815  0.00  0.00     0.060 C 
BRANCH  23  24
HETATM   24  C   UNK N   1      36.420  13.775  15.831  0.00  0.00     0.005 C 
BRANCH  24  25
HETATM   25  C   UNK N   1      35.166  13.472  16.655  0.00  0.00     0.000 C 
BRANCH  25  26
HETATM   26  C   UNK N   1      35.284  13.838  18.136  0.00  0.00     0.000 C 
BRANCH  26  27
HETATM   27  C   UNK N   1      35.327  12.616  19.042  0.00  0.00     0.000 C 
BRANCH  27  28
HETATM   28  C   UNK N   1      35.114  11.374  18.196  0.00  0.00     0.000 C 
BRANCH  28  29
HETATM   29  C   UNK N   1      36.166  10.329  18.494  0.00  0.00     0.000 C 
BRANCH  29  30
HETATM   30  C   UNK N   1      35.525   8.954  18.597  0.00  0.00     0.000 C 
BRANCH  30  31
HETATM   31  C   UNK N   1      34.014   9.042  18.746  0.00  0.00     0.000 C 
BRANCH  31  32
HETATM   32  C   UNK N   1      33.570   8.323  20.008  0.00  0.00     0.000 C 
BRANCH  32  33
HETATM   33  C   UNK N   1      34.275   8.894  21.221  0.00  0.00     0.000 C 
BRANCH  33  34
HETATM   34  C   UNK N   1      33.732  10.278  21.519  0.00  0.00    -0.000 C 
BRANCH  34  35
HETATM   35  C   UNK N   1      32.318  10.164  22.045  0.00  0.00    -0.005 C 
HETATM   36  C   UNK N   1      32.332   9.416  23.362  0.00  0.00     0.005 C 
ENDBRANCH  34  35
ENDBRANCH  33  34
ENDBRANCH  32  33
ENDBRANCH  31  32
ENDBRANCH  30  31
ENDBRANCH  29  30
ENDBRANCH  28  29
ENDBRANCH  27  28
ENDBRANCH  26  27
ENDBRANCH  25  26
ENDBRANCH  24  25
ENDBRANCH  23  24
ENDBRANCH  22  23
BRANCH  22  37
HETATM   37  O   UNK N   1      36.754  14.408  13.215  0.00  0.00    -0.371 OA
HETATM   38  H   UNK N   1      37.403  14.734  12.572  0.00  0.00     0.212 HD
ENDBRANCH  22  37
ENDBRANCH  21  22
ENDBRANCH   1  21
TORSDOF 28
ENDMDL
MODEL 6
REMARK VINA RESULT:      -5.1      2.747      4.559
REMARK  28 active torsions:
REMARK  status: ('A' for Active; 'I' for Inactive)
REMARK    1  A    between atoms: C_3  and  C_2 
REMARK    2  A    between atoms: C_4  and  C_3 
REMARK    3  A    between atoms: C_5  and  C_4 
REMARK    4  A    between atoms: C_6  and  C_5 
REMARK    5  A    between atoms: C_7  and  C_6 
REMARK    6  A    between atoms: C_8  and  C_7 
REMARK    7  A    between atoms: C_9  and  C_8 
REMARK    8  A    between atoms: C_10  and  C_9 
REMARK    9  A    between atoms: C_11  and  C_10 
REMARK   10  A    between atoms: C_12  and  C_11 
REMARK   11  A    between atoms: C_13  and  C_12 
REMARK   12  A    between atoms: C_14  and  C_13 
REMARK   13  A    between atoms: C_20  and  C_14 
REMARK   14  A    between atoms: C_18  and  C_15 
REMARK   15  A    between atoms: O_29  and  C_15 
REMARK   16  A    between atoms: C_18  and  C_16 
REMARK   17  A    between atoms: O_30  and  C_16 
REMARK   18  A    between atoms: C_19  and  C_17 
REMARK   19  A    between atoms: O_31  and  C_17 
REMARK   20  A    between atoms: C_18  and  O_23 
REMARK   21  A    between atoms: C_21  and  C_19 
REMARK   22  A    between atoms: C_19  and  N_22 
REMARK   23  A    between atoms: C_20  and  O_24 
REMARK   24  A    between atoms: O_29  and  C_20 
REMARK   25  A    between atoms: O_26  and  C_21 
REMARK   26  A    between atoms: P_32  and  O_27 
REMARK   27  A    between atoms: P_32  and  O_30 
REMARK   28  A    between atoms: P_32  and  O_31 
ROOT
HETATM    1  C   UNK N   1      35.499  13.986  11.243  0.00  0.00     0.204 C 
ENDROOT
BRANCH   1   2
HETATM    2  C   UNK N   1      34.719  15.293  11.091  0.00  0.00     0.166 C 
BRANCH   2   3
HETATM    3  C   UNK N   1      35.134  16.075   9.839  0.00  0.00     0.214 C 
BRANCH   3   4
HETATM    4  O   UNK N   1      34.498  17.322   9.769  0.00  0.00    -0.294 OA
BRANCH   4   5
HETATM    5  P   UNK N   1      33.538  17.360   8.304  0.00  0.00     0.393 P 
HETATM    6  O   UNK N   1      33.191  15.907   7.875  0.00  0.00    -0.631 OA
BRANCH   5   7
HETATM    7  O   UNK N   1      34.441  18.049   6.991  0.00  0.00    -0.307 OA
HETATM    8  H   UNK N   1      34.370  18.378   6.081  0.00  0.00     0.222 HD
ENDBRANCH   5   7
BRANCH   5   9
HETATM    9  O   UNK N   1      32.015  18.171   8.528  0.00  0.00    -0.294 OA
BRANCH   9  10
HETATM   10  C   UNK N   1      31.038  17.191   8.336  0.00  0.00     0.216 C 
BRANCH  10  11
HETATM   11  C   UNK N   1      29.859  17.408   9.280  0.00  0.00     0.198 C 
BRANCH  11  12
HETATM   12  C   UNK N   1      28.577  17.330   8.500  0.00  0.00     0.165 C 
HETATM   13  O   UNK N   1      28.588  17.264   7.284  0.00  0.00    -0.648 OA
BRANCH  12  14
HETATM   14  O   UNK N   1      27.397  17.341   9.156  0.00  0.00    -0.775 OA
HETATM   15  H   UNK N   1      26.583  17.386   8.695  0.00  0.00     0.167 HD
ENDBRANCH  12  14
ENDBRANCH  11  12
BRANCH  11  16
HETATM   16  N   UNK N   1      29.989  18.699   9.940  0.00  0.00    -0.416 N 
HETATM   17  H   UNK N   1      30.683  18.849  10.672  0.00  0.00     0.150 HD
HETATM   18  H   UNK N   1      29.376  19.468   9.665  0.00  0.00     0.150 HD
ENDBRANCH  11  16
ENDBRANCH  10  11
ENDBRANCH   9  10
ENDBRANCH   5   9
ENDBRANCH   4   5
ENDBRANCH   3   4
ENDBRANCH   2   3
BRANCH   2  19
HETATM   19  O   UNK N   1      33.358  14.992  11.025  0.00  0.00    -0.391 OA
HETATM   20  H   UNK N   1      32.862  14.712  11.810  0.00  0.00     0.210 HD
ENDBRANCH   2  19
ENDBRANCH   1   2
BRANCH   1  21
HETATM   21  O   UNK N   1      36.390  14.003  12.335  0.00  0.00    -0.359 OA
BRANCH  21  22
HETATM   22  C   UNK N   1      35.895  13.203  13.385  0.00  0.00     0.256 C 
BRANCH  22  23
HETATM   23  C   UNK N   1      36.067  13.899  14.731  0.00  0.00     0.060 C 
BRANCH  23  24
HETATM   24  C   UNK N   1      36.115  12.945  15.922  0.00  0.00     0.005 C 
BRANCH  24  25
HETATM   25  C   UNK N   1      34.875  13.043  16.813  0.00  0.00     0.000 C 
BRANCH  25  26
HETATM   26  C   UNK N   1      35.173  13.423  18.265  0.00  0.00     0.000 C 
BRANCH  26  27
HETATM   27  C   UNK N   1      35.571  12.227  19.117  0.00  0.00     0.000 C 
BRANCH  27  28
HETATM   28  C   UNK N   1      34.825  11.003  18.619  0.00  0.00     0.000 C 
BRANCH  28  29
HETATM   29  C   UNK N   1      35.739   9.800  18.552  0.00  0.00     0.000 C 
BRANCH  29  30
HETATM   30  C   UNK N   1      35.051   8.583  19.150  0.00  0.00     0.000 C 
BRANCH  30  31
HETATM   31  C   UNK N   1      33.563   8.818  19.357  0.00  0.00     0.000 C 
BRANCH  31  32
HETATM   32  C   UNK N   1      33.146   8.347  20.740  0.00  0.00     0.000 C 
BRANCH  32  33
HETATM   33  C   UNK N   1      32.180   9.331  21.368  0.00  0.00     0.000 C 
BRANCH  33  34
HETATM   34  C   UNK N   1      32.951  10.500  21.947  0.00  0.00    -0.000 C 
BRANCH  34  35
HETATM   35  C   UNK N   1      33.276  10.222  23.399  0.00  0.00    -0.005 C 
HETATM   36  C   UNK N   1      32.017   9.792  24.120  0.00  0.00     0.005 C 
ENDBRANCH  34  35
ENDBRANCH  33  34
ENDBRANCH  32  33
ENDBRANCH  31  32
ENDBRANCH  30  31
ENDBRANCH  29  30
ENDBRANCH  28  29
ENDBRANCH  27  28
ENDBRANCH  26  27
ENDBRANCH  25  26
ENDBRANCH  24  25
ENDBRANCH  23  24
ENDBRANCH  22  23
BRANCH  22  37
HETATM   37  O   UNK N   1      34.527  13.031  13.177  0.00  0.00    -0.371 OA
HETATM   38  H   UNK N   1      34.143  12.666  12.365  0.00  0.00     0.212 HD
ENDBRANCH  22  37
ENDBRANCH  21  22
ENDBRANCH   1  21
TORSDOF 28
ENDMDL
MODEL 7
REMARK VINA RESULT:      -5.1      5.861     11.822
REMARK  28 active torsions:
REMARK  status: ('A' for Active; 'I' for Inactive)
REMARK    1  A    between atoms: C_3  and  C_2 
REMARK    2  A    between atoms: C_4  and  C_3 
REMARK    3  A    between atoms: C_5  and  C_4 
REMARK    4  A    between atoms: C_6  and  C_5 
REMARK    5  A    between atoms: C_7  and  C_6 
REMARK    6  A    between atoms: C_8  and  C_7 
REMARK    7  A    between atoms: C_9  and  C_8 
REMARK    8  A    between atoms: C_10  and  C_9 
REMARK    9  A    between atoms: C_11  and  C_10 
REMARK   10  A    between atoms: C_12  and  C_11 
REMARK   11  A    between atoms: C_13  and  C_12 
REMARK   12  A    between atoms: C_14  and  C_13 
REMARK   13  A    between atoms: C_20  and  C_14 
REMARK   14  A    between atoms: C_18  and  C_15 
REMARK   15  A    between atoms: O_29  and  C_15 
REMARK   16  A    between atoms: C_18  and  C_16 
REMARK   17  A    between atoms: O_30  and  C_16 
REMARK   18  A    between atoms: C_19  and  C_17 
REMARK   19  A    between atoms: O_31  and  C_17 
REMARK   20  A    between atoms: C_18  and  O_23 
REMARK   21  A    between atoms: C_21  and  C_19 
REMARK   22  A    between atoms: C_19  and  N_22 
REMARK   23  A    between atoms: C_20  and  O_24 
REMARK   24  A    between atoms: O_29  and  C_20 
REMARK   25  A    between atoms: O_26  and  C_21 
REMARK   26  A    between atoms: P_32  and  O_27 
REMARK   27  A    between atoms: P_32  and  O_30 
REMARK   28  A    between atoms: P_32  and  O_31 
ROOT
HETATM    1  C   UNK N   1      30.528  18.089   8.311  0.00  0.00     0.204 C 
ENDROOT
BRANCH   1   2
HETATM    2  C   UNK N   1      31.609  17.019   8.150  0.00  0.00     0.166 C 
BRANCH   2   3
HETATM    3  C   UNK N   1      32.361  17.149   6.820  0.00  0.00     0.214 C 
BRANCH   3   4
HETATM    4  O   UNK N   1      32.966  15.942   6.443  0.00  0.00    -0.294 OA
BRANCH   4   5
HETATM    5  P   UNK N   1      34.537  15.858   7.216  0.00  0.00     0.393 P 
HETATM    6  O   UNK N   1      34.976  17.285   7.651  0.00  0.00    -0.631 OA
BRANCH   5   7
HETATM    7  O   UNK N   1      35.745  15.299   6.101  0.00  0.00    -0.307 OA
HETATM    8  H   UNK N   1      36.165  14.503   5.739  0.00  0.00     0.222 HD
ENDBRANCH   5   7
BRANCH   5   9
HETATM    9  O   UNK N   1      34.514  14.900   8.668  0.00  0.00    -0.294 OA
BRANCH   9  10
HETATM   10  C   UNK N   1      35.723  15.170   9.314  0.00  0.00     0.216 C 
BRANCH  10  11
HETATM   11  C   UNK N   1      35.480  15.655  10.740  0.00  0.00     0.198 C 
BRANCH  11  12
HETATM   12  C   UNK N   1      34.402  14.821  11.372  0.00  0.00     0.165 C 
HETATM   13  O   UNK N   1      34.674  13.970  12.201  0.00  0.00    -0.648 OA
BRANCH  12  14
HETATM   14  O   UNK N   1      33.115  15.012  11.011  0.00  0.00    -0.775 OA
HETATM   15  H   UNK N   1      32.450  14.387  11.227  0.00  0.00     0.167 HD
ENDBRANCH  12  14
ENDBRANCH  11  12
BRANCH  11  16
HETATM   16  N   UNK N   1      35.105  17.062  10.723  0.00  0.00    -0.416 N 
HETATM   17  H   UNK N   1      35.641  17.756  11.246  0.00  0.00     0.150 HD
HETATM   18  H   UNK N   1      34.294  17.360  10.180  0.00  0.00     0.150 HD
ENDBRANCH  11  16
ENDBRANCH  10  11
ENDBRANCH   9  10
ENDBRANCH   5   9
ENDBRANCH   4   5
ENDBRANCH   3   4
ENDBRANCH   2   3
BRANCH   2  19
HETATM   19  O   UNK N   1      32.508  17.133   9.210  0.00  0.00    -0.391 OA
HETATM   20  H   UNK N   1      32.670  17.984   9.648  0.00  0.00     0.210 HD
ENDBRANCH   2  19
ENDBRANCH   1   2
BRANCH   1  21
HETATM   21  O   UNK N   1      29.230  17.548   8.408  0.00  0.00    -0.359 OA
BRANCH  21  22
HETATM   22  C   UNK N   1      28.274  18.579   8.509  0.00  0.00     0.256 C 
BRANCH  22  23
HETATM   23  C   UNK N   1      27.631  18.864   7.157  0.00  0.00     0.060 C 
BRANCH  23  24
HETATM   24  C   UNK N   1      27.758  20.315   6.702  0.00  0.00     0.005 C 
BRANCH  24  25
HETATM   25  C   UNK N   1      26.901  20.632   5.474  0.00  0.00     0.000 C 
BRANCH  25  26
HETATM   26  C   UNK N   1      27.371  19.952   4.187  0.00  0.00     0.000 C 
BRANCH  26  27
HETATM   27  C   UNK N   1      26.224  19.351   3.387  0.00  0.00     0.000 C 
BRANCH  27  28
HETATM   28  C   UNK N   1      24.962  20.142   3.674  0.00  0.00     0.000 C 
BRANCH  28  29
HETATM   29  C   UNK N   1      23.769  19.223   3.828  0.00  0.00     0.000 C 
BRANCH  29  30
HETATM   30  C   UNK N   1      23.876  18.436   5.124  0.00  0.00     0.000 C 
BRANCH  30  31
HETATM   31  C   UNK N   1      23.006  17.189   5.102  0.00  0.00     0.000 C 
BRANCH  31  32
HETATM   32  C   UNK N   1      21.882  17.318   6.116  0.00  0.00     0.000 C 
BRANCH  32  33
HETATM   33  C   UNK N   1      21.071  16.040   6.176  0.00  0.00     0.000 C 
BRANCH  33  34
HETATM   34  C   UNK N   1      19.932  16.208   7.161  0.00  0.00    -0.000 C 
BRANCH  34  35
HETATM   35  C   UNK N   1      20.490  16.366   8.559  0.00  0.00    -0.005 C 
HETATM   36  C   UNK N   1      20.877  15.006   9.100  0.00  0.00     0.005 C 
ENDBRANCH  34  35
ENDBRANCH  33  34
ENDBRANCH  32  33
ENDBRANCH  31  32
ENDBRANCH  30  31
ENDBRANCH  29  30
ENDBRANCH  28  29
ENDBRANCH  27  28
ENDBRANCH  26  27
ENDBRANCH  25  26
ENDBRANCH  24  25
ENDBRANCH  23  24
ENDBRANCH  22  23
BRANCH  22  37
HETATM   37  O   UNK N   1      27.266  18.138   9.366  0.00  0.00    -0.371 OA
HETATM   38  H   UNK N   1      26.500  17.616   9.079  0.00  0.00     0.212 HD
ENDBRANCH  22  37
ENDBRANCH  21  22
ENDBRANCH   1  21
TORSDOF 28
ENDMDL
MODEL 8
REMARK VINA RESULT:      -5.1      6.429     12.679
REMARK  28 active torsions:
REMARK  status: ('A' for Active; 'I' for Inactive)
REMARK    1  A    between atoms: C_3  and  C_2 
REMARK    2  A    between atoms: C_4  and  C_3 
REMARK    3  A    between atoms: C_5  and  C_4 
REMARK    4  A    between atoms: C_6  and  C_5 
REMARK    5  A    between atoms: C_7  and  C_6 
REMARK    6  A    between atoms: C_8  and  C_7 
REMARK    7  A    between atoms: C_9  and  C_8 
REMARK    8  A    between atoms: C_10  and  C_9 
REMARK    9  A    between atoms: C_11  and  C_10 
REMARK   10  A    between atoms: C_12  and  C_11 
REMARK   11  A    between atoms: C_13  and  C_12 
REMARK   12  A    between atoms: C_14  and  C_13 
REMARK   13  A    between atoms: C_20  and  C_14 
REMARK   14  A    between atoms: C_18  and  C_15 
REMARK   15  A    between atoms: O_29  and  C_15 
REMARK   16  A    between atoms: C_18  and  C_16 
REMARK   17  A    between atoms: O_30  and  C_16 
REMARK   18  A    between atoms: C_19  and  C_17 
REMARK   19  A    between atoms: O_31  and  C_17 
REMARK   20  A    between atoms: C_18  and  O_23 
REMARK   21  A    between atoms: C_21  and  C_19 
REMARK   22  A    between atoms: C_19  and  N_22 
REMARK   23  A    between atoms: C_20  and  O_24 
REMARK   24  A    between atoms: O_29  and  C_20 
REMARK   25  A    between atoms: O_26  and  C_21 
REMARK   26  A    between atoms: P_32  and  O_27 
REMARK   27  A    between atoms: P_32  and  O_30 
REMARK   28  A    between atoms: P_32  and  O_31 
ROOT
HETATM    1  C   UNK N   1      30.348  17.716   8.261  0.00  0.00     0.204 C 
ENDROOT
BRANCH   1   2
HETATM    2  C   UNK N   1      31.680  16.977   8.123  0.00  0.00     0.166 C 
BRANCH   2   3
HETATM    3  C   UNK N   1      32.295  17.144   6.728  0.00  0.00     0.214 C 
BRANCH   3   4
HETATM    4  O   UNK N   1      32.926  15.971   6.293  0.00  0.00    -0.294 OA
BRANCH   4   5
HETATM    5  P   UNK N   1      34.498  15.883   7.062  0.00  0.00     0.393 P 
HETATM    6  O   UNK N   1      34.952  17.312   7.476  0.00  0.00    -0.631 OA
BRANCH   5   7
HETATM    7  O   UNK N   1      35.697  15.297   5.952  0.00  0.00    -0.307 OA
HETATM    8  H   UNK N   1      36.109  14.492   5.600  0.00  0.00     0.222 HD
ENDBRANCH   5   7
BRANCH   5   9
HETATM    9  O   UNK N   1      34.470  14.946   8.528  0.00  0.00    -0.294 OA
BRANCH   9  10
HETATM   10  C   UNK N   1      35.668  15.241   9.184  0.00  0.00     0.216 C 
BRANCH  10  11
HETATM   11  C   UNK N   1      35.403  15.740  10.601  0.00  0.00     0.198 C 
BRANCH  11  12
HETATM   12  C   UNK N   1      34.352  14.879  11.243  0.00  0.00     0.165 C 
HETATM   13  O   UNK N   1      34.657  14.015  12.047  0.00  0.00    -0.648 OA
BRANCH  12  14
HETATM   14  O   UNK N   1      33.055  15.060  10.919  0.00  0.00    -0.775 OA
HETATM   15  H   UNK N   1      32.455  14.340  10.885  0.00  0.00     0.167 HD
ENDBRANCH  12  14
ENDBRANCH  11  12
BRANCH  11  16
HETATM   16  N   UNK N   1      34.980  17.133  10.560  0.00  0.00    -0.416 N 
HETATM   17  H   UNK N   1      35.489  17.853  11.073  0.00  0.00     0.150 HD
HETATM   18  H   UNK N   1      34.161  17.393  10.009  0.00  0.00     0.150 HD
ENDBRANCH  11  16
ENDBRANCH  10  11
ENDBRANCH   9  10
ENDBRANCH   5   9
ENDBRANCH   4   5
ENDBRANCH   3   4
ENDBRANCH   2   3
BRANCH   2  19
HETATM   19  O   UNK N   1      32.562  17.469   9.085  0.00  0.00    -0.391 OA
HETATM   20  H   UNK N   1      32.244  17.825   9.930  0.00  0.00     0.210 HD
ENDBRANCH   2  19
ENDBRANCH   1   2
BRANCH   1  21
HETATM   21  O   UNK N   1      29.233  16.887   8.028  0.00  0.00    -0.359 OA
BRANCH  21  22
HETATM   22  C   UNK N   1      28.051  17.653   7.985  0.00  0.00     0.256 C 
BRANCH  22  23
HETATM   23  C   UNK N   1      28.027  18.556   6.756  0.00  0.00     0.060 C 
BRANCH  23  24
HETATM   24  C   UNK N   1      27.430  19.937   7.012  0.00  0.00     0.005 C 
BRANCH  24  25
HETATM   25  C   UNK N   1      27.413  20.819   5.761  0.00  0.00     0.000 C 
BRANCH  25  26
HETATM   26  C   UNK N   1      27.844  20.102   4.480  0.00  0.00     0.000 C 
BRANCH  26  27
HETATM   27  C   UNK N   1      26.720  19.994   3.460  0.00  0.00     0.000 C 
BRANCH  27  28
HETATM   28  C   UNK N   1      25.445  20.536   4.080  0.00  0.00     0.000 C 
BRANCH  28  29
HETATM   29  C   UNK N   1      24.241  19.739   3.628  0.00  0.00     0.000 C 
BRANCH  29  30
HETATM   30  C   UNK N   1      23.384  20.569   2.686  0.00  0.00     0.000 C 
BRANCH  30  31
HETATM   31  C   UNK N   1      21.899  20.350   2.931  0.00  0.00     0.000 C 
BRANCH  31  32
HETATM   32  C   UNK N   1      21.650  18.929   3.404  0.00  0.00     0.000 C 
BRANCH  32  33
HETATM   33  C   UNK N   1      20.261  18.472   3.008  0.00  0.00     0.000 C 
BRANCH  33  34
HETATM   34  C   UNK N   1      20.105  16.996   3.318  0.00  0.00    -0.000 C 
BRANCH  34  35
HETATM   35  C   UNK N   1      20.993  16.189   2.396  0.00  0.00    -0.005 C 
HETATM   36  C   UNK N   1      20.371  16.140   1.017  0.00  0.00     0.005 C 
ENDBRANCH  34  35
ENDBRANCH  33  34
ENDBRANCH  32  33
ENDBRANCH  31  32
ENDBRANCH  30  31
ENDBRANCH  29  30
ENDBRANCH  28  29
ENDBRANCH  27  28
ENDBRANCH  26  27
ENDBRANCH  25  26
ENDBRANCH  24  25
ENDBRANCH  23  24
ENDBRANCH  22  23
BRANCH  22  37
HETATM   37  O   UNK N   1      26.978  16.769   7.873  0.00  0.00    -0.371 OA
HETATM   38  H   UNK N   1      26.645  16.424   7.029  0.00  0.00     0.212 HD
ENDBRANCH  22  37
ENDBRANCH  21  22
ENDBRANCH   1  21
TORSDOF 28
ENDMDL
MODEL 9
REMARK VINA RESULT:      -5.0      4.723     11.144
REMARK  28 active torsions:
REMARK  status: ('A' for Active; 'I' for Inactive)
REMARK    1  A    between atoms: C_3  and  C_2 
REMARK    2  A    between atoms: C_4  and  C_3 
REMARK    3  A    between atoms: C_5  and  C_4 
REMARK    4  A    between atoms: C_6  and  C_5 
REMARK    5  A    between atoms: C_7  and  C_6 
REMARK    6  A    between atoms: C_8  and  C_7 
REMARK    7  A    between atoms: C_9  and  C_8 
REMARK    8  A    between atoms: C_10  and  C_9 
REMARK    9  A    between atoms: C_11  and  C_10 
REMARK   10  A    between atoms: C_12  and  C_11 
REMARK   11  A    between atoms: C_13  and  C_12 
REMARK   12  A    between atoms: C_14  and  C_13 
REMARK   13  A    between atoms: C_20  and  C_14 
REMARK   14  A    between atoms: C_18  and  C_15 
REMARK   15  A    between atoms: O_29  and  C_15 
REMARK   16  A    between atoms: C_18  and  C_16 
REMARK   17  A    between atoms: O_30  and  C_16 
REMARK   18  A    between atoms: C_19  and  C_17 
REMARK   19  A    between atoms: O_31  and  C_17 
REMARK   20  A    between atoms: C_18  and  O_23 
REMARK   21  A    between atoms: C_21  and  C_19 
REMARK   22  A    between atoms: C_19  and  N_22 
REMARK   23  A    between atoms: C_20  and  O_24 
REMARK   24  A    between atoms: O_29  and  C_20 
REMARK   25  A    between atoms: O_26  and  C_21 
REMARK   26  A    between atoms: P_32  and  O_27 
REMARK   27  A    between atoms: P_32  and  O_30 
REMARK   28  A    between atoms: P_32  and  O_31 
ROOT
HETATM    1  C   UNK N   1      35.046  16.320  10.147  0.00  0.00     0.204 C 
ENDROOT
BRANCH   1   2
HETATM    2  C   UNK N   1      36.023  15.992  11.277  0.00  0.00     0.166 C 
BRANCH   2   3
HETATM    3  C   UNK N   1      35.546  14.811  12.131  0.00  0.00     0.214 C 
BRANCH   3   4
HETATM    4  O   UNK N   1      36.576  13.891  12.368  0.00  0.00    -0.294 OA
BRANCH   4   5
HETATM    5  P   UNK N   1      36.294  13.151  13.932  0.00  0.00     0.393 P 
HETATM    6  O   UNK N   1      34.796  13.310  14.317  0.00  0.00    -0.631 OA
BRANCH   5   7
HETATM    7  O   UNK N   1      37.201  13.961  15.171  0.00  0.00    -0.307 OA
HETATM    8  H   UNK N   1      37.852  13.826  15.878  0.00  0.00     0.222 HD
ENDBRANCH   5   7
BRANCH   5   9
HETATM    9  O   UNK N   1      36.607  11.440  13.924  0.00  0.00    -0.294 OA
BRANCH   9  10
HETATM   10  C   UNK N   1      37.247  11.170  15.137  0.00  0.00     0.216 C 
BRANCH  10  11
HETATM   11  C   UNK N   1      36.266  10.591  16.151  0.00  0.00     0.198 C 
BRANCH  11  12
HETATM   12  C   UNK N   1      35.217   9.794  15.428  0.00  0.00     0.165 C 
HETATM   13  O   UNK N   1      35.388   8.613  15.180  0.00  0.00    -0.648 OA
BRANCH  12  14
HETATM   14  O   UNK N   1      34.072  10.396  15.042  0.00  0.00    -0.775 OA
HETATM   15  H   UNK N   1      33.238   9.994  15.183  0.00  0.00     0.167 HD
ENDBRANCH  12  14
ENDBRANCH  11  12
BRANCH  11  16
HETATM   16  N   UNK N   1      35.662  11.668  16.922  0.00  0.00    -0.416 N 
HETATM   17  H   UNK N   1      35.404  12.551  16.480  0.00  0.00     0.150 HD
HETATM   18  H   UNK N   1      35.492  11.538  17.920  0.00  0.00     0.150 HD
ENDBRANCH  11  16
ENDBRANCH  10  11
ENDBRANCH   9  10
ENDBRANCH   5   9
ENDBRANCH   4   5
ENDBRANCH   3   4
ENDBRANCH   2   3
BRANCH   2  19
HETATM   19  O   UNK N   1      37.265  15.695  10.718  0.00  0.00    -0.391 OA
HETATM   20  H   UNK N   1      37.616  16.197   9.966  0.00  0.00     0.210 HD
ENDBRANCH   2  19
ENDBRANCH   1   2
BRANCH   1  21
HETATM   21  O   UNK N   1      35.167  17.646   9.684  0.00  0.00    -0.359 OA
BRANCH  21  22
HETATM   22  C   UNK N   1      34.518  17.795   8.442  0.00  0.00     0.256 C 
BRANCH  22  23
HETATM   23  C   UNK N   1      33.003  17.740   8.605  0.00  0.00     0.060 C 
BRANCH  23  24
HETATM   24  C   UNK N   1      32.269  17.166   7.397  0.00  0.00     0.005 C 
BRANCH  24  25
HETATM   25  C   UNK N   1      30.776  17.506   7.390  0.00  0.00     0.000 C 
BRANCH  25  26
HETATM   26  C   UNK N   1      30.238  17.997   8.735  0.00  0.00     0.000 C 
BRANCH  26  27
HETATM   27  C   UNK N   1      28.717  18.054   8.774  0.00  0.00     0.000 C 
BRANCH  27  28
HETATM   28  C   UNK N   1      28.208  18.425   7.394  0.00  0.00     0.000 C 
BRANCH  28  29
HETATM   29  C   UNK N   1      27.817  19.885   7.335  0.00  0.00     0.000 C 
BRANCH  29  30
HETATM   30  C   UNK N   1      27.630  20.321   5.891  0.00  0.00     0.000 C 
BRANCH  30  31
HETATM   31  C   UNK N   1      28.147  19.278   4.912  0.00  0.00     0.000 C 
BRANCH  31  32
HETATM   32  C   UNK N   1      27.175  19.118   3.756  0.00  0.00     0.000 C 
BRANCH  32  33
HETATM   33  C   UNK N   1      26.386  20.394   3.545  0.00  0.00     0.000 C 
BRANCH  33  34
HETATM   34  C   UNK N   1      24.905  20.104   3.691  0.00  0.00    -0.000 C 
BRANCH  34  35
HETATM   35  C   UNK N   1      24.693  18.612   3.834  0.00  0.00    -0.005 C 
HETATM   36  C   UNK N   1      23.530  18.359   4.769  0.00  0.00     0.005 C 
ENDBRANCH  34  35
ENDBRANCH  33  34
ENDBRANCH  32  33
ENDBRANCH  31  32
ENDBRANCH  30  31
ENDBRANCH  29  30
ENDBRANCH  28  29
ENDBRANCH  27  28
ENDBRANCH  26  27
ENDBRANCH  25  26
ENDBRANCH  24  25
ENDBRANCH  23  24
ENDBRANCH  22  23
BRANCH  22  37
HETATM   37  O   UNK N   1      34.838  19.058   7.945  0.00  0.00    -0.371 OA
HETATM   38  H   UNK N   1      35.211  19.773   8.483  0.00  0.00     0.212 HD
ENDBRANCH  22  37
ENDBRANCH  21  22
ENDBRANCH   1  21
TORSDOF 28
ENDMDL
