MODEL 1
REMARK VINA RESULT:      -6.9      0.000      0.000
REMARK  17 active torsions:
REMARK  status: ('A' for Active; 'I' for Inactive)
REMARK    1  A    between atoms: C_3  and  C_1 
REMARK    2  A    between atoms: C_5  and  C_1 
REMARK    3  A    between atoms: C_4  and  C_2 
REMARK    4  A    between atoms: C_6  and  C_2 
REMARK    5  A    between atoms: N_24  and  C_3 
REMARK    6  A    between atoms: N_25  and  C_4 
REMARK    7  A    between atoms: N_27  and  C_5 
REMARK    8  A    between atoms: N_28  and  C_6 
REMARK    9  A    between atoms: C_18  and  C_14 
REMARK   10  A    between atoms: O_30  and  C_14 
REMARK   11  A    between atoms: C_22  and  C_15 
REMARK   12  A    between atoms: N_29  and  C_16 
REMARK   13  A    between atoms: O_37  and  C_17 
REMARK   14  A    between atoms: C_19  and  O_31 
REMARK   15  A    between atoms: C_20  and  O_32 
REMARK   16  A    between atoms: O_34  and  C_22 
REMARK   17  A    between atoms: C_23  and  O_37 
ROOT
HETATM    1  C   UNK N   1      33.675  16.076   9.365  0.00  0.00     0.179 C 
HETATM    2  C   UNK N   1      34.892  17.004   9.170  0.00  0.00     0.180 C 
HETATM    3  C   UNK N   1      34.362  18.340   8.642  0.00  0.00     0.183 C 
HETATM    4  C   UNK N   1      33.570  18.103   7.369  0.00  0.00     0.205 C 
HETATM    5  C   UNK N   1      32.511  16.987   7.597  0.00  0.00     0.298 C 
HETATM    6  O   UNK N   1      34.417  17.733   6.321  0.00  0.00    -0.388 OA
HETATM    7  O   UNK N   1      33.099  15.807   8.098  0.00  0.00    -0.348 OA
HETATM    8  H   UNK N   1      35.008  17.318   5.673  0.00  0.00     0.210 HD
ENDROOT
BRANCH   3   9
HETATM    9  O   UNK N   1      35.404  19.239   8.396  0.00  0.00    -0.390 OA
HETATM   10  H   UNK N   1      35.950  19.185   7.597  0.00  0.00     0.210 HD
ENDBRANCH   3   9
BRANCH   5  11
HETATM   11  O   UNK N   1      31.853  16.694   6.422  0.00  0.00    -0.318 OA
BRANCH  11  12
HETATM   12  C   UNK N   1      30.528  16.863   6.401  0.00  0.00     0.075 A 
HETATM   13  C   UNK N   1      29.838  16.412   5.305  0.00  0.00     0.052 A 
HETATM   14  C   UNK N   1      28.460  16.327   5.334  0.00  0.00     0.019 A 
HETATM   15  C   UNK N   1      27.755  16.660   6.514  0.00  0.00     0.052 A 
HETATM   16  C   UNK N   1      28.471  17.105   7.646  0.00  0.00     0.106 A 
HETATM   17  C   UNK N   1      29.847  17.236   7.553  0.00  0.00     0.073 A 
BRANCH  14  18
HETATM   18  C   UNK N   1      27.814  16.012   4.069  0.00  0.00     0.146 C 
HETATM   19  N   UNK N   1      28.168  14.964   3.426  0.00  0.00    -0.370 N 
ATOM     20  HN  UNK N   1      29.045  14.502   3.665  1.00  0.00     0.161 HD
BRANCH  19  21
HETATM   21  C   UNK N   1      27.351  14.425   2.372  0.00  0.00     0.123 C 
BRANCH  21  22
HETATM   22  C   UNK N   1      26.534  13.226   2.903  0.00  0.00     0.050 C 
BRANCH  22  23
HETATM   23  C   UNK N   1      25.061  13.522   3.292  0.00  0.00     0.274 C 
BRANCH  23  24
HETATM   24  N   UNK N   1      24.681  13.270   4.691  0.00  0.00     0.091 N 
HETATM   25  C   UNK N   1      25.764  13.544   5.642  0.00  0.00     0.302 C 
HETATM   26  C   UNK N   1      25.293  13.265   7.065  0.00  0.00     0.302 C 
HETATM   27  N   UNK N   1      24.105  14.056   7.393  0.00  0.00     0.091 N 
HETATM   28  C   UNK N   1      23.043  13.780   6.426  0.00  0.00     0.302 C 
HETATM   29  C   UNK N   1      23.508  14.081   5.009  0.00  0.00     0.302 C 
BRANCH  27  30
HETATM   30  C   UNK N   1      23.607  13.520   8.644  0.00  0.00     0.274 C 
BRANCH  30  31
HETATM   31  C   UNK N   1      24.137  12.123   8.895  0.00  0.00     0.049 C 
BRANCH  31  32
HETATM   32  C   UNK N   1      24.600  12.023  10.338  0.00  0.00     0.112 C 
BRANCH  32  33
HETATM   33  N   UNK N   1      25.308  13.234  10.720  0.00  0.00    -0.430 N 
HETATM   34  H   UNK N   1      25.195  14.134  10.254  0.00  0.00     0.149 HD
HETATM   35  H   UNK N   1      25.961  13.179  11.503  0.00  0.00     0.149 HD
ENDBRANCH  32  33
ENDBRANCH  31  32
ENDBRANCH  30  31
ENDBRANCH  27  30
ENDBRANCH  23  24
ENDBRANCH  22  23
ENDBRANCH  21  22
ENDBRANCH  19  21
BRANCH  18  36
HETATM   36  O   UNK N   1      26.725  16.718   3.684  0.00  0.00    -0.346 OA
HETATM   37  H   UNK N   1      25.880  16.501   4.027  0.00  0.00     0.219 HD
ENDBRANCH  18  36
ENDBRANCH  14  18
BRANCH  16  38
HETATM   38  N   UNK N   1      27.842  17.302   8.909  0.00  0.00    -0.116 N 
HETATM   39  O   UNK N   1      27.201  16.413   9.398  0.00  0.00    -0.532 OA
HETATM   40  O   UNK N   1      27.805  18.384   9.400  0.00  0.00    -0.532 OA
ENDBRANCH  16  38
ENDBRANCH  11  12
ENDBRANCH   5  11
BRANCH   2  41
HETATM   41  O   UNK N   1      35.557  17.214  10.378  0.00  0.00    -0.390 OA
HETATM   42  H   UNK N   1      35.330  16.896  11.267  0.00  0.00     0.210 HD
ENDBRANCH   2  41
BRANCH   1  43
HETATM   43  C   UNK N   1      34.021  14.762  10.050  0.00  0.00     0.198 C 
BRANCH  43  44
HETATM   44  O   UNK N   1      33.748  14.821  11.415  0.00  0.00    -0.398 OA
HETATM   45  H   UNK N   1      33.309  14.781  12.279  0.00  0.00     0.209 HD
ENDBRANCH  43  44
ENDBRANCH   1  43
TORSDOF 17
ENDMDL
MODEL 2
REMARK VINA RESULT:      -6.9      4.682     10.230
REMARK  17 active torsions:
REMARK  status: ('A' for Active; 'I' for Inactive)
REMARK    1  A    between atoms: C_3  and  C_1 
REMARK    2  A    between atoms: C_5  and  C_1 
REMARK    3  A    between atoms: C_4  and  C_2 
REMARK    4  A    between atoms: C_6  and  C_2 
REMARK    5  A    between atoms: N_24  and  C_3 
REMARK    6  A    between atoms: N_25  and  C_4 
REMARK    7  A    between atoms: N_27  and  C_5 
REMARK    8  A    between atoms: N_28  and  C_6 
REMARK    9  A    between atoms: C_18  and  C_14 
REMARK   10  A    between atoms: O_30  and  C_14 
REMARK   11  A    between atoms: C_22  and  C_15 
REMARK   12  A    between atoms: N_29  and  C_16 
REMARK   13  A    between atoms: O_37  and  C_17 
REMARK   14  A    between atoms: C_19  and  O_31 
REMARK   15  A    between atoms: C_20  and  O_32 
REMARK   16  A    between atoms: O_34  and  C_22 
REMARK   17  A    between atoms: C_23  and  O_37 
ROOT
HETATM    1  C   UNK N   1      20.630  18.030   1.761  0.00  0.00     0.179 C 
HETATM    2  C   UNK N   1      20.396  19.504   1.372  0.00  0.00     0.180 C 
HETATM    3  C   UNK N   1      21.425  20.342   2.134  0.00  0.00     0.183 C 
HETATM    4  C   UNK N   1      21.291  20.078   3.624  0.00  0.00     0.205 C 
HETATM    5  C   UNK N   1      21.311  18.548   3.901  0.00  0.00     0.298 C 
HETATM    6  O   UNK N   1      20.102  20.624   4.117  0.00  0.00    -0.388 OA
HETATM    7  O   UNK N   1      20.337  17.869   3.139  0.00  0.00    -0.348 OA
HETATM    8  H   UNK N   1      19.200  20.864   4.383  0.00  0.00     0.210 HD
ENDROOT
BRANCH   3   9
HETATM    9  O   UNK N   1      21.264  21.706   1.874  0.00  0.00    -0.390 OA
HETATM   10  H   UNK N   1      21.633  22.124   1.081  0.00  0.00     0.210 HD
ENDBRANCH   3   9
BRANCH   5  11
HETATM   11  O   UNK N   1      21.090  18.293   5.237  0.00  0.00    -0.318 OA
BRANCH  11  12
HETATM   12  C   UNK N   1      21.508  17.119   5.715  0.00  0.00     0.075 A 
HETATM   13  C   UNK N   1      22.851  16.843   5.664  0.00  0.00     0.052 A 
HETATM   14  C   UNK N   1      23.371  15.773   6.364  0.00  0.00     0.019 A 
HETATM   15  C   UNK N   1      22.528  14.981   7.178  0.00  0.00     0.052 A 
HETATM   16  C   UNK N   1      21.149  15.280   7.243  0.00  0.00     0.106 A 
HETATM   17  C   UNK N   1      20.659  16.323   6.475  0.00  0.00     0.073 A 
BRANCH  14  18
HETATM   18  C   UNK N   1      24.768  15.457   6.101  0.00  0.00     0.146 C 
HETATM   19  N   UNK N   1      25.111  15.043   4.940  0.00  0.00    -0.370 N 
ATOM     20  HN  UNK N   1      24.395  14.705   4.297  1.00  0.00     0.161 HD
BRANCH  19  21
HETATM   21  C   UNK N   1      26.488  15.045   4.527  0.00  0.00     0.123 C 
BRANCH  21  22
HETATM   22  C   UNK N   1      26.765  16.273   3.631  0.00  0.00     0.050 C 
BRANCH  22  23
HETATM   23  C   UNK N   1      27.648  17.387   4.253  0.00  0.00     0.274 C 
BRANCH  23  24
HETATM   24  N   UNK N   1      28.459  17.014   5.423  0.00  0.00     0.091 N 
HETATM   25  C   UNK N   1      29.873  16.796   5.099  0.00  0.00     0.302 C 
HETATM   26  C   UNK N   1      30.646  16.420   6.358  0.00  0.00     0.302 C 
HETATM   27  N   UNK N   1      30.505  17.449   7.391  0.00  0.00     0.091 N 
HETATM   28  C   UNK N   1      29.090  17.662   7.689  0.00  0.00     0.302 C 
HETATM   29  C   UNK N   1      28.325  18.058   6.435  0.00  0.00     0.302 C 
BRANCH  27  30
HETATM   30  C   UNK N   1      31.050  16.868   8.602  0.00  0.00     0.274 C 
BRANCH  30  31
HETATM   31  C   UNK N   1      32.454  16.344   8.380  0.00  0.00     0.049 C 
BRANCH  31  32
HETATM   32  C   UNK N   1      32.678  15.139   9.276  0.00  0.00     0.112 C 
BRANCH  32  33
HETATM   33  N   UNK N   1      31.743  15.163  10.389  0.00  0.00    -0.430 N 
HETATM   34  H   UNK N   1      31.141  15.956  10.613  0.00  0.00     0.149 HD
HETATM   35  H   UNK N   1      31.684  14.335  10.983  0.00  0.00     0.149 HD
ENDBRANCH  32  33
ENDBRANCH  31  32
ENDBRANCH  30  31
ENDBRANCH  27  30
ENDBRANCH  23  24
ENDBRANCH  22  23
ENDBRANCH  21  22
ENDBRANCH  19  21
BRANCH  18  36
HETATM   36  O   UNK N   1      25.707  15.785   7.019  0.00  0.00    -0.346 OA
HETATM   37  H   UNK N   1      26.604  15.555   6.875  0.00  0.00     0.219 HD
ENDBRANCH  18  36
ENDBRANCH  14  18
BRANCH  16  38
HETATM   38  N   UNK N   1      20.277  14.628   8.160  0.00  0.00    -0.116 N 
HETATM   39  O   UNK N   1      19.489  15.276   8.793  0.00  0.00    -0.532 OA
HETATM   40  O   UNK N   1      20.435  13.480   8.428  0.00  0.00    -0.532 OA
ENDBRANCH  16  38
ENDBRANCH  11  12
ENDBRANCH   5  11
BRANCH   2  41
HETATM   41  O   UNK N   1      20.569  19.691   0.001  0.00  0.00    -0.390 OA
HETATM   42  H   UNK N   1      21.391  19.753  -0.511  0.00  0.00     0.210 HD
ENDBRANCH   2  41
BRANCH   1  43
HETATM   43  C   UNK N   1      19.792  17.051   0.951  0.00  0.00     0.198 C 
BRANCH  43  44
HETATM   44  O   UNK N   1      19.449  15.936   1.713  0.00  0.00    -0.398 OA
HETATM   45  H   UNK N   1      19.349  15.298   2.436  0.00  0.00     0.209 HD
ENDBRANCH  43  44
ENDBRANCH   1  43
TORSDOF 17
ENDMDL
MODEL 3
REMARK VINA RESULT:      -6.9      6.863     10.300
REMARK  17 active torsions:
REMARK  status: ('A' for Active; 'I' for Inactive)
REMARK    1  A    between atoms: C_3  and  C_1 
REMARK    2  A    between atoms: C_5  and  C_1 
REMARK    3  A    between atoms: C_4  and  C_2 
REMARK    4  A    between atoms: C_6  and  C_2 
REMARK    5  A    between atoms: N_24  and  C_3 
REMARK    6  A    between atoms: N_25  and  C_4 
REMARK    7  A    between atoms: N_27  and  C_5 
REMARK    8  A    between atoms: N_28  and  C_6 
REMARK    9  A    between atoms: C_18  and  C_14 
REMARK   10  A    between atoms: O_30  and  C_14 
REMARK   11  A    between atoms: C_22  and  C_15 
REMARK   12  A    between atoms: N_29  and  C_16 
REMARK   13  A    between atoms: O_37  and  C_17 
REMARK   14  A    between atoms: C_19  and  O_31 
REMARK   15  A    between atoms: C_20  and  O_32 
REMARK   16  A    between atoms: O_34  and  C_22 
REMARK   17  A    between atoms: C_23  and  O_37 
ROOT
HETATM    1  C   UNK N   1      21.636  19.794   3.241  0.00  0.00     0.179 C 
HETATM    2  C   UNK N   1      20.770  19.280   2.073  0.00  0.00     0.180 C 
HETATM    3  C   UNK N   1      19.616  18.481   2.684  0.00  0.00     0.183 C 
HETATM    4  C   UNK N   1      20.173  17.373   3.558  0.00  0.00     0.205 C 
HETATM    5  C   UNK N   1      21.211  17.952   4.561  0.00  0.00     0.298 C 
HETATM    6  O   UNK N   1      20.781  16.386   2.778  0.00  0.00    -0.388 OA
HETATM    7  O   UNK N   1      22.221  18.682   3.899  0.00  0.00    -0.348 OA
HETATM    8  H   UNK N   1      21.337  15.816   2.222  0.00  0.00     0.210 HD
ENDROOT
BRANCH   3   9
HETATM    9  O   UNK N   1      18.792  17.940   1.693  0.00  0.00    -0.390 OA
HETATM   10  H   UNK N   1      18.130  18.474   1.227  0.00  0.00     0.210 HD
ENDBRANCH   3   9
BRANCH   5  11
HETATM   11  O   UNK N   1      21.798  16.942   5.292  0.00  0.00    -0.318 OA
BRANCH  11  12
HETATM   12  C   UNK N   1      21.149  16.513   6.377  0.00  0.00     0.075 A 
HETATM   13  C   UNK N   1      21.451  15.264   6.858  0.00  0.00     0.052 A 
HETATM   14  C   UNK N   1      21.008  14.870   8.105  0.00  0.00     0.019 A 
HETATM   15  C   UNK N   1      20.280  15.772   8.916  0.00  0.00     0.052 A 
HETATM   16  C   UNK N   1      19.988  17.063   8.425  0.00  0.00     0.106 A 
HETATM   17  C   UNK N   1      20.396  17.395   7.143  0.00  0.00     0.073 A 
BRANCH  14  18
HETATM   18  C   UNK N   1      21.225  13.472   8.446  0.00  0.00     0.146 C 
HETATM   19  N   UNK N   1      22.055  12.780   7.762  0.00  0.00    -0.370 N 
ATOM     20  HN  UNK N   1      22.366  13.124   6.854  1.00  0.00     0.161 HD
BRANCH  19  21
HETATM   21  C   UNK N   1      22.558  11.524   8.251  0.00  0.00     0.123 C 
BRANCH  21  22
HETATM   22  C   UNK N   1      24.100  11.572   8.332  0.00  0.00     0.050 C 
BRANCH  22  23
HETATM   23  C   UNK N   1      24.735  12.987   8.400  0.00  0.00     0.274 C 
BRANCH  23  24
HETATM   24  N   UNK N   1      25.486  13.434   7.216  0.00  0.00     0.091 N 
HETATM   25  C   UNK N   1      25.322  12.547   6.060  0.00  0.00     0.302 C 
HETATM   26  C   UNK N   1      26.123  13.079   4.876  0.00  0.00     0.302 C 
HETATM   27  N   UNK N   1      25.722  14.447   4.539  0.00  0.00     0.091 N 
HETATM   28  C   UNK N   1      25.879  15.311   5.708  0.00  0.00     0.302 C 
HETATM   29  C   UNK N   1      25.061  14.791   6.880  0.00  0.00     0.302 C 
BRANCH  27  30
HETATM   30  C   UNK N   1      26.713  14.926   3.595  0.00  0.00     0.274 C 
BRANCH  30  31
HETATM   31  C   UNK N   1      26.115  15.113   2.216  0.00  0.00     0.049 C 
BRANCH  31  32
HETATM   32  C   UNK N   1      24.611  14.922   2.301  0.00  0.00     0.112 C 
BRANCH  32  33
HETATM   33  N   UNK N   1      24.096  14.436   1.032  0.00  0.00    -0.430 N 
HETATM   34  H   UNK N   1      23.558  13.576   0.924  0.00  0.00     0.149 HD
HETATM   35  H   UNK N   1      24.284  14.991   0.195  0.00  0.00     0.149 HD
ENDBRANCH  32  33
ENDBRANCH  31  32
ENDBRANCH  30  31
ENDBRANCH  27  30
ENDBRANCH  23  24
ENDBRANCH  22  23
ENDBRANCH  21  22
ENDBRANCH  19  21
BRANCH  18  36
HETATM   36  O   UNK N   1      20.696  12.977   9.590  0.00  0.00    -0.346 OA
HETATM   37  H   UNK N   1      20.669  13.507  10.362  0.00  0.00     0.219 HD
ENDBRANCH  18  36
ENDBRANCH  14  18
BRANCH  16  38
HETATM   38  N   UNK N   1      19.402  18.069   9.245  0.00  0.00    -0.116 N 
HETATM   39  O   UNK N   1      18.250  17.973   9.570  0.00  0.00    -0.532 OA
HETATM   40  O   UNK N   1      19.987  19.079   9.471  0.00  0.00    -0.532 OA
ENDBRANCH  16  38
ENDBRANCH  11  12
ENDBRANCH   5  11
BRANCH   2  41
HETATM   41  O   UNK N   1      20.256  20.343   1.330  0.00  0.00    -0.390 OA
HETATM   42  H   UNK N   1      19.700  21.083   1.620  0.00  0.00     0.210 HD
ENDBRANCH   2  41
BRANCH   1  43
HETATM   43  C   UNK N   1      22.733  20.754   2.804  0.00  0.00     0.198 C 
BRANCH  43  44
HETATM   44  O   UNK N   1      22.287  22.073   2.836  0.00  0.00    -0.398 OA
HETATM   45  H   UNK N   1      21.733  22.867   2.894  0.00  0.00     0.209 HD
ENDBRANCH  43  44
ENDBRANCH   1  43
TORSDOF 17
ENDMDL
MODEL 4
REMARK VINA RESULT:      -6.9      6.186     10.330
REMARK  17 active torsions:
REMARK  status: ('A' for Active; 'I' for Inactive)
REMARK    1  A    between atoms: C_3  and  C_1 
REMARK    2  A    between atoms: C_5  and  C_1 
REMARK    3  A    between atoms: C_4  and  C_2 
REMARK    4  A    between atoms: C_6  and  C_2 
REMARK    5  A    between atoms: N_24  and  C_3 
REMARK    6  A    between atoms: N_25  and  C_4 
REMARK    7  A    between atoms: N_27  and  C_5 
REMARK    8  A    between atoms: N_28  and  C_6 
REMARK    9  A    between atoms: C_18  and  C_14 
REMARK   10  A    between atoms: O_30  and  C_14 
REMARK   11  A    between atoms: C_22  and  C_15 
REMARK   12  A    between atoms: N_29  and  C_16 
REMARK   13  A    between atoms: O_37  and  C_17 
REMARK   14  A    between atoms: C_19  and  O_31 
REMARK   15  A    between atoms: C_20  and  O_32 
REMARK   16  A    between atoms: O_34  and  C_22 
REMARK   17  A    between atoms: C_23  and  O_37 
ROOT
HETATM    1  C   UNK N   1      20.765  17.361   2.355  0.00  0.00     0.179 C 
HETATM    2  C   UNK N   1      20.342  18.649   1.621  0.00  0.00     0.180 C 
HETATM    3  C   UNK N   1      21.380  19.723   1.957  0.00  0.00     0.183 C 
HETATM    4  C   UNK N   1      21.471  19.885   3.464  0.00  0.00     0.205 C 
HETATM    5  C   UNK N   1      21.674  18.500   4.141  0.00  0.00     0.298 C 
HETATM    6  O   UNK N   1      20.313  20.484   3.967  0.00  0.00    -0.388 OA
HETATM    7  O   UNK N   1      20.676  17.581   3.753  0.00  0.00    -0.348 OA
HETATM    8  H   UNK N   1      19.436  20.740   4.294  0.00  0.00     0.210 HD
ENDROOT
BRANCH   3   9
HETATM    9  O   UNK N   1      21.057  20.946   1.363  0.00  0.00    -0.390 OA
HETATM   10  H   UNK N   1      20.276  21.455   1.629  0.00  0.00     0.210 HD
ENDBRANCH   3   9
BRANCH   5  11
HETATM   11  O   UNK N   1      21.658  18.623   5.514  0.00  0.00    -0.318 OA
BRANCH  11  12
HETATM   12  C   UNK N   1      21.336  17.538   6.223  0.00  0.00     0.075 A 
HETATM   13  C   UNK N   1      22.238  16.506   6.268  0.00  0.00     0.052 A 
HETATM   14  C   UNK N   1      22.079  15.480   7.178  0.00  0.00     0.019 A 
HETATM   15  C   UNK N   1      21.009  15.512   8.103  0.00  0.00     0.052 A 
HETATM   16  C   UNK N   1      20.094  16.587   8.065  0.00  0.00     0.106 A 
HETATM   17  C   UNK N   1      20.254  17.562   7.095  0.00  0.00     0.073 A 
BRANCH  14  18
HETATM   18  C   UNK N   1      22.981  14.348   7.026  0.00  0.00     0.146 C 
HETATM   19  N   UNK N   1      23.927  14.409   6.167  0.00  0.00    -0.370 N 
ATOM     20  HN  UNK N   1      23.898  15.123   5.440  1.00  0.00     0.161 HD
BRANCH  19  21
HETATM   21  C   UNK N   1      25.032  13.489   6.210  0.00  0.00     0.123 C 
BRANCH  21  22
HETATM   22  C   UNK N   1      26.286  14.146   5.593  0.00  0.00     0.050 C 
BRANCH  22  23
HETATM   23  C   UNK N   1      26.027  15.221   4.504  0.00  0.00     0.274 C 
BRANCH  23  24
HETATM   24  N   UNK N   1      26.302  16.619   4.873  0.00  0.00     0.091 N 
HETATM   25  C   UNK N   1      27.443  16.762   5.783  0.00  0.00     0.302 C 
HETATM   26  C   UNK N   1      27.667  18.234   6.114  0.00  0.00     0.302 C 
HETATM   27  N   UNK N   1      27.874  19.022   4.897  0.00  0.00     0.091 N 
HETATM   28  C   UNK N   1      26.733  18.855   3.997  0.00  0.00     0.302 C 
HETATM   29  C   UNK N   1      26.526  17.388   3.652  0.00  0.00     0.302 C 
BRANCH  27  30
HETATM   30  C   UNK N   1      27.810  20.410   5.312  0.00  0.00     0.274 C 
BRANCH  30  31
HETATM   31  C   UNK N   1      26.383  20.840   5.582  0.00  0.00     0.049 C 
BRANCH  31  32
HETATM   32  C   UNK N   1      26.358  21.712   6.825  0.00  0.00     0.112 C 
BRANCH  32  33
HETATM   33  N   UNK N   1      25.940  20.929   7.976  0.00  0.00    -0.430 N 
HETATM   34  H   UNK N   1      25.141  21.161   8.566  0.00  0.00     0.149 HD
HETATM   35  H   UNK N   1      26.480  20.094   8.209  0.00  0.00     0.149 HD
ENDBRANCH  32  33
ENDBRANCH  31  32
ENDBRANCH  30  31
ENDBRANCH  27  30
ENDBRANCH  23  24
ENDBRANCH  22  23
ENDBRANCH  21  22
ENDBRANCH  19  21
BRANCH  18  36
HETATM   36  O   UNK N   1      22.928  13.331   7.918  0.00  0.00    -0.346 OA
HETATM   37  H   UNK N   1      23.463  13.352   8.687  0.00  0.00     0.219 HD
ENDBRANCH  18  36
ENDBRANCH  14  18
BRANCH  16  38
HETATM   38  N   UNK N   1      19.094  16.763   9.063  0.00  0.00    -0.116 N 
HETATM   39  O   UNK N   1      18.453  15.817   9.435  0.00  0.00    -0.532 OA
HETATM   40  O   UNK N   1      18.773  17.854   9.409  0.00  0.00    -0.532 OA
ENDBRANCH  16  38
ENDBRANCH  11  12
ENDBRANCH   5  11
BRANCH   2  41
HETATM   41  O   UNK N   1      20.312  18.448   0.241  0.00  0.00    -0.390 OA
HETATM   42  H   UNK N   1      20.292  19.104  -0.475  0.00  0.00     0.210 HD
ENDBRANCH   2  41
BRANCH   1  43
HETATM   43  C   UNK N   1      19.924  16.148   1.983  0.00  0.00     0.198 C 
BRANCH  43  44
HETATM   44  O   UNK N   1      20.187  15.737   0.678  0.00  0.00    -0.398 OA
HETATM   45  H   UNK N   1      20.558  15.296  -0.102  0.00  0.00     0.209 HD
ENDBRANCH  43  44
ENDBRANCH   1  43
TORSDOF 17
ENDMDL
MODEL 5
REMARK VINA RESULT:      -6.8      4.681      8.744
REMARK  17 active torsions:
REMARK  status: ('A' for Active; 'I' for Inactive)
REMARK    1  A    between atoms: C_3  and  C_1 
REMARK    2  A    between atoms: C_5  and  C_1 
REMARK    3  A    between atoms: C_4  and  C_2 
REMARK    4  A    between atoms: C_6  and  C_2 
REMARK    5  A    between atoms: N_24  and  C_3 
REMARK    6  A    between atoms: N_25  and  C_4 
REMARK    7  A    between atoms: N_27  and  C_5 
REMARK    8  A    between atoms: N_28  and  C_6 
REMARK    9  A    between atoms: C_18  and  C_14 
REMARK   10  A    between atoms: O_30  and  C_14 
REMARK   11  A    between atoms: C_22  and  C_15 
REMARK   12  A    between atoms: N_29  and  C_16 
REMARK   13  A    between atoms: O_37  and  C_17 
REMARK   14  A    between atoms: C_19  and  O_31 
REMARK   15  A    between atoms: C_20  and  O_32 
REMARK   16  A    between atoms: O_34  and  C_22 
REMARK   17  A    between atoms: C_23  and  O_37 
ROOT
HETATM    1  C   UNK N   1      20.896  18.326   3.353  0.00  0.00     0.179 C 
HETATM    2  C   UNK N   1      19.969  19.277   2.569  0.00  0.00     0.180 C 
HETATM    3  C   UNK N   1      20.817  19.936   1.478  0.00  0.00     0.183 C 
HETATM    4  C   UNK N   1      22.006  20.635   2.112  0.00  0.00     0.205 C 
HETATM    5  C   UNK N   1      22.754  19.660   3.065  0.00  0.00     0.298 C 
HETATM    6  O   UNK N   1      21.593  21.761   2.829  0.00  0.00    -0.388 OA
HETATM    7  O   UNK N   1      21.882  19.096   4.021  0.00  0.00    -0.348 OA
HETATM    8  H   UNK N   1      21.255  22.426   3.450  0.00  0.00     0.210 HD
ENDROOT
BRANCH   3   9
HETATM    9  O   UNK N   1      20.066  20.851   0.734  0.00  0.00    -0.390 OA
HETATM   10  H   UNK N   1      20.414  21.723   0.491  0.00  0.00     0.210 HD
ENDBRANCH   3   9
BRANCH   5  11
HETATM   11  O   UNK N   1      23.776  20.310   3.723  0.00  0.00    -0.318 OA
BRANCH  11  12
HETATM   12  C   UNK N   1      24.762  19.559   4.220  0.00  0.00     0.075 A 
HETATM   13  C   UNK N   1      25.128  18.435   3.525  0.00  0.00     0.052 A 
HETATM   14  C   UNK N   1      26.293  17.766   3.845  0.00  0.00     0.019 A 
HETATM   15  C   UNK N   1      27.142  18.265   4.860  0.00  0.00     0.052 A 
HETATM   16  C   UNK N   1      26.770  19.435   5.559  0.00  0.00     0.106 A 
HETATM   17  C   UNK N   1      25.562  20.038   5.250  0.00  0.00     0.073 A 
BRANCH  14  18
HETATM   18  C   UNK N   1      26.500  16.490   3.175  0.00  0.00     0.146 C 
HETATM   19  N   UNK N   1      25.487  15.823   2.767  0.00  0.00    -0.370 N 
ATOM     20  HN  UNK N   1      24.559  16.055   3.121  1.00  0.00     0.161 HD
BRANCH  19  21
HETATM   21  C   UNK N   1      25.634  14.752   1.818  0.00  0.00     0.123 C 
BRANCH  21  22
HETATM   22  C   UNK N   1      25.519  13.392   2.540  0.00  0.00     0.050 C 
BRANCH  22  23
HETATM   23  C   UNK N   1      24.187  13.130   3.292  0.00  0.00     0.274 C 
BRANCH  23  24
HETATM   24  N   UNK N   1      24.182  13.385   4.742  0.00  0.00     0.091 N 
HETATM   25  C   UNK N   1      23.113  12.674   5.450  0.00  0.00     0.302 C 
HETATM   26  C   UNK N   1      23.176  12.984   6.941  0.00  0.00     0.302 C 
HETATM   27  N   UNK N   1      24.486  12.635   7.497  0.00  0.00     0.091 N 
HETATM   28  C   UNK N   1      25.539  13.342   6.769  0.00  0.00     0.302 C 
HETATM   29  C   UNK N   1      25.486  13.013   5.285  0.00  0.00     0.302 C 
BRANCH  27  30
HETATM   30  C   UNK N   1      24.514  13.209   8.828  0.00  0.00     0.274 C 
BRANCH  30  31
HETATM   31  C   UNK N   1      24.295  12.150   9.890  0.00  0.00     0.049 C 
BRANCH  31  32
HETATM   32  C   UNK N   1      23.027  12.479  10.658  0.00  0.00     0.112 C 
BRANCH  32  33
HETATM   33  N   UNK N   1      22.838  11.527  11.741  0.00  0.00    -0.430 N 
HETATM   34  H   UNK N   1      23.510  10.799  11.986  0.00  0.00     0.149 HD
HETATM   35  H   UNK N   1      21.980  11.591  12.290  0.00  0.00     0.149 HD
ENDBRANCH  32  33
ENDBRANCH  31  32
ENDBRANCH  30  31
ENDBRANCH  27  30
ENDBRANCH  23  24
ENDBRANCH  22  23
ENDBRANCH  21  22
ENDBRANCH  19  21
BRANCH  18  36
HETATM   36  O   UNK N   1      27.753  16.118   2.825  0.00  0.00    -0.346 OA
HETATM   37  H   UNK N   1      28.252  15.560   3.389  0.00  0.00     0.219 HD
ENDBRANCH  18  36
ENDBRANCH  14  18
BRANCH  16  38
HETATM   38  N   UNK N   1      27.649  20.077   6.477  0.00  0.00    -0.116 N 
HETATM   39  O   UNK N   1      27.920  21.237   6.326  0.00  0.00    -0.532 OA
HETATM   40  O   UNK N   1      28.245  19.442   7.286  0.00  0.00    -0.532 OA
ENDBRANCH  16  38
ENDBRANCH  11  12
ENDBRANCH   5  11
BRANCH   2  41
HETATM   41  O   UNK N   1      18.918  18.574   1.980  0.00  0.00    -0.390 OA
HETATM   42  H   UNK N   1      18.142  18.914   1.507  0.00  0.00     0.210 HD
ENDBRANCH   2  41
BRANCH   1  43
HETATM   43  C   UNK N   1      20.159  17.464   4.368  0.00  0.00     0.198 C 
BRANCH  43  44
HETATM   44  O   UNK N   1      19.348  16.526   3.734  0.00  0.00    -0.398 OA
HETATM   45  H   UNK N   1      19.027  15.754   3.242  0.00  0.00     0.209 HD
ENDBRANCH  43  44
ENDBRANCH   1  43
TORSDOF 17
ENDMDL
MODEL 6
REMARK VINA RESULT:      -6.8      4.566      9.750
REMARK  17 active torsions:
REMARK  status: ('A' for Active; 'I' for Inactive)
REMARK    1  A    between atoms: C_3  and  C_1 
REMARK    2  A    between atoms: C_5  and  C_1 
REMARK    3  A    between atoms: C_4  and  C_2 
REMARK    4  A    between atoms: C_6  and  C_2 
REMARK    5  A    between atoms: N_24  and  C_3 
REMARK    6  A    between atoms: N_25  and  C_4 
REMARK    7  A    between atoms: N_27  and  C_5 
REMARK    8  A    between atoms: N_28  and  C_6 
REMARK    9  A    between atoms: C_18  and  C_14 
REMARK   10  A    between atoms: O_30  and  C_14 
REMARK   11  A    between atoms: C_22  and  C_15 
REMARK   12  A    between atoms: N_29  and  C_16 
REMARK   13  A    between atoms: O_37  and  C_17 
REMARK   14  A    between atoms: C_19  and  O_31 
REMARK   15  A    between atoms: C_20  and  O_32 
REMARK   16  A    between atoms: O_34  and  C_22 
REMARK   17  A    between atoms: C_23  and  O_37 
ROOT
HETATM    1  C   UNK N   1      20.911  18.369   3.439  0.00  0.00     0.179 C 
HETATM    2  C   UNK N   1      19.966  19.328   2.686  0.00  0.00     0.180 C 
HETATM    3  C   UNK N   1      20.771  19.950   1.543  0.00  0.00     0.183 C 
HETATM    4  C   UNK N   1      22.006  20.632   2.104  0.00  0.00     0.205 C 
HETATM    5  C   UNK N   1      22.780  19.656   3.034  0.00  0.00     0.298 C 
HETATM    6  O   UNK N   1      21.655  21.779   2.821  0.00  0.00    -0.388 OA
HETATM    7  O   UNK N   1      21.946  19.127   4.042  0.00  0.00    -0.348 OA
HETATM    8  H   UNK N   1      21.362  22.461   3.447  0.00  0.00     0.210 HD
ENDROOT
BRANCH   3   9
HETATM    9  O   UNK N   1      20.003  20.870   0.822  0.00  0.00    -0.390 OA
HETATM   10  H   UNK N   1      19.364  21.457   1.256  0.00  0.00     0.210 HD
ENDBRANCH   3   9
BRANCH   5  11
HETATM   11  O   UNK N   1      23.848  20.294   3.628  0.00  0.00    -0.318 OA
BRANCH  11  12
HETATM   12  C   UNK N   1      24.814  19.527   4.140  0.00  0.00     0.075 A 
HETATM   13  C   UNK N   1      25.162  18.388   3.458  0.00  0.00     0.052 A 
HETATM   14  C   UNK N   1      26.310  17.698   3.792  0.00  0.00     0.019 A 
HETATM   15  C   UNK N   1      27.160  18.189   4.811  0.00  0.00     0.052 A 
HETATM   16  C   UNK N   1      26.808  19.371   5.497  0.00  0.00     0.106 A 
HETATM   17  C   UNK N   1      25.615  19.997   5.172  0.00  0.00     0.073 A 
BRANCH  14  18
HETATM   18  C   UNK N   1      26.495  16.412   3.136  0.00  0.00     0.146 C 
HETATM   19  N   UNK N   1      27.670  16.051   2.781  0.00  0.00    -0.370 N 
ATOM     20  HN  UNK N   1      28.414  16.746   2.733  1.00  0.00     0.161 HD
BRANCH  19  21
HETATM   21  C   UNK N   1      27.959  14.681   2.450  0.00  0.00     0.123 C 
BRANCH  21  22
HETATM   22  C   UNK N   1      29.267  14.239   3.142  0.00  0.00     0.050 C 
BRANCH  22  23
HETATM   23  C   UNK N   1      30.398  15.300   3.205  0.00  0.00     0.274 C 
BRANCH  23  24
HETATM   24  N   UNK N   1      30.966  15.586   4.532  0.00  0.00     0.091 N 
HETATM   25  C   UNK N   1      32.432  15.615   4.538  0.00  0.00     0.302 C 
HETATM   26  C   UNK N   1      32.944  15.921   5.942  0.00  0.00     0.302 C 
HETATM   27  N   UNK N   1      32.400  17.188   6.437  0.00  0.00     0.091 N 
HETATM   28  C   UNK N   1      30.938  17.145   6.409  0.00  0.00     0.302 C 
HETATM   29  C   UNK N   1      30.431  16.861   5.004  0.00  0.00     0.302 C 
BRANCH  27  30
HETATM   30  C   UNK N   1      32.737  17.237   7.846  0.00  0.00     0.274 C 
BRANCH  30  31
HETATM   31  C   UNK N   1      32.679  15.860   8.475  0.00  0.00     0.049 C 
BRANCH  31  32
HETATM   32  C   UNK N   1      33.795  15.739   9.498  0.00  0.00     0.112 C 
BRANCH  32  33
HETATM   33  N   UNK N   1      33.296  15.104  10.707  0.00  0.00    -0.430 N 
HETATM   34  H   UNK N   1      32.353  14.731  10.810  0.00  0.00     0.149 HD
HETATM   35  H   UNK N   1      33.931  15.027  11.503  0.00  0.00     0.149 HD
ENDBRANCH  32  33
ENDBRANCH  31  32
ENDBRANCH  30  31
ENDBRANCH  27  30
ENDBRANCH  23  24
ENDBRANCH  22  23
ENDBRANCH  21  22
ENDBRANCH  19  21
BRANCH  18  36
HETATM   36  O   UNK N   1      25.461  15.539   3.080  0.00  0.00    -0.346 OA
HETATM   37  H   UNK N   1      24.992  15.419   2.278  0.00  0.00     0.219 HD
ENDBRANCH  18  36
ENDBRANCH  14  18
BRANCH  16  38
HETATM   38  N   UNK N   1      27.693  20.003   6.416  0.00  0.00    -0.116 N 
HETATM   39  O   UNK N   1      28.115  19.384   7.354  0.00  0.00    -0.532 OA
HETATM   40  O   UNK N   1      27.882  21.176   6.360  0.00  0.00    -0.532 OA
ENDBRANCH  16  38
ENDBRANCH  11  12
ENDBRANCH   5  11
BRANCH   2  41
HETATM   41  O   UNK N   1      18.871  18.640   2.163  0.00  0.00    -0.390 OA
HETATM   42  H   UNK N   1      17.973  18.961   1.983  0.00  0.00     0.210 HD
ENDBRANCH   2  41
BRANCH   1  43
HETATM   43  C   UNK N   1      20.208  17.540   4.504  0.00  0.00     0.198 C 
BRANCH  43  44
HETATM   44  O   UNK N   1      19.378  16.582   3.927  0.00  0.00    -0.398 OA
HETATM   45  H   UNK N   1      18.688  16.138   3.410  0.00  0.00     0.209 HD
ENDBRANCH  43  44
ENDBRANCH   1  43
TORSDOF 17
ENDMDL
MODEL 7
REMARK VINA RESULT:      -6.7      3.611      5.164
REMARK  17 active torsions:
REMARK  status: ('A' for Active; 'I' for Inactive)
REMARK    1  A    between atoms: C_3  and  C_1 
REMARK    2  A    between atoms: C_5  and  C_1 
REMARK    3  A    between atoms: C_4  and  C_2 
REMARK    4  A    between atoms: C_6  and  C_2 
REMARK    5  A    between atoms: N_24  and  C_3 
REMARK    6  A    between atoms: N_25  and  C_4 
REMARK    7  A    between atoms: N_27  and  C_5 
REMARK    8  A    between atoms: N_28  and  C_6 
REMARK    9  A    between atoms: C_18  and  C_14 
REMARK   10  A    between atoms: O_30  and  C_14 
REMARK   11  A    between atoms: C_22  and  C_15 
REMARK   12  A    between atoms: N_29  and  C_16 
REMARK   13  A    between atoms: O_37  and  C_17 
REMARK   14  A    between atoms: C_19  and  O_31 
REMARK   15  A    between atoms: C_20  and  O_32 
REMARK   16  A    between atoms: O_34  and  C_22 
REMARK   17  A    between atoms: C_23  and  O_37 
ROOT
HETATM    1  C   UNK N   1      34.673  13.421  10.517  0.00  0.00     0.179 C 
HETATM    2  C   UNK N   1      35.733  13.542  11.630  0.00  0.00     0.180 C 
HETATM    3  C   UNK N   1      35.592  14.939  12.239  0.00  0.00     0.183 C 
HETATM    4  C   UNK N   1      35.736  15.984  11.148  0.00  0.00     0.205 C 
HETATM    5  C   UNK N   1      34.787  15.655   9.961  0.00  0.00     0.298 C 
HETATM    6  O   UNK N   1      37.055  16.039  10.687  0.00  0.00    -0.388 OA
HETATM    7  O   UNK N   1      34.986  14.342   9.485  0.00  0.00    -0.348 OA
HETATM    8  H   UNK N   1      37.929  15.928  10.279  0.00  0.00     0.210 HD
ENDROOT
BRANCH   3   9
HETATM    9  O   UNK N   1      36.545  15.157  13.238  0.00  0.00    -0.390 OA
HETATM   10  H   UNK N   1      37.492  15.221  13.039  0.00  0.00     0.210 HD
ENDBRANCH   3   9
BRANCH   5  11
HETATM   11  O   UNK N   1      34.980  16.540   8.922  0.00  0.00    -0.318 OA
BRANCH  11  12
HETATM   12  C   UNK N   1      33.905  16.910   8.223  0.00  0.00     0.075 A 
HETATM   13  C   UNK N   1      33.790  16.462   6.932  0.00  0.00     0.052 A 
HETATM   14  C   UNK N   1      32.597  16.596   6.250  0.00  0.00     0.019 A 
HETATM   15  C   UNK N   1      31.469  17.152   6.898  0.00  0.00     0.052 A 
HETATM   16  C   UNK N   1      31.587  17.594   8.234  0.00  0.00     0.106 A 
HETATM   17  C   UNK N   1      32.819  17.500   8.859  0.00  0.00     0.073 A 
BRANCH  14  18
HETATM   18  C   UNK N   1      32.630  16.257   4.835  0.00  0.00     0.146 C 
HETATM   19  N   UNK N   1      32.112  15.156   4.440  0.00  0.00    -0.370 N 
ATOM     20  HN  UNK N   1      31.908  14.425   5.121  1.00  0.00     0.161 HD
BRANCH  19  21
HETATM   21  C   UNK N   1      31.813  14.930   3.051  0.00  0.00     0.123 C 
BRANCH  21  22
HETATM   22  C   UNK N   1      30.398  15.458   2.727  0.00  0.00     0.050 C 
BRANCH  22  23
HETATM   23  C   UNK N   1      29.259  14.978   3.667  0.00  0.00     0.274 C 
BRANCH  23  24
HETATM   24  N   UNK N   1      28.506  16.020   4.382  0.00  0.00     0.091 N 
HETATM   25  C   UNK N   1      28.521  15.847   5.838  0.00  0.00     0.302 C 
HETATM   26  C   UNK N   1      27.726  16.965   6.505  0.00  0.00     0.302 C 
HETATM   27  N   UNK N   1      28.252  18.281   6.136  0.00  0.00     0.091 N 
HETATM   28  C   UNK N   1      28.243  18.428   4.681  0.00  0.00     0.302 C 
HETATM   29  C   UNK N   1      29.055  17.324   4.019  0.00  0.00     0.302 C 
BRANCH  27  30
HETATM   30  C   UNK N   1      27.275  19.243   6.605  0.00  0.00     0.274 C 
BRANCH  30  31
HETATM   31  C   UNK N   1      27.456  20.587   5.930  0.00  0.00     0.049 C 
BRANCH  31  32
HETATM   32  C   UNK N   1      26.684  21.637   6.709  0.00  0.00     0.112 C 
BRANCH  32  33
HETATM   33  N   UNK N   1      26.021  21.026   7.849  0.00  0.00    -0.430 N 
HETATM   34  H   UNK N   1      26.027  21.417   8.791  0.00  0.00     0.149 HD
HETATM   35  H   UNK N   1      25.518  20.151   7.698  0.00  0.00     0.149 HD
ENDBRANCH  32  33
ENDBRANCH  31  32
ENDBRANCH  30  31
ENDBRANCH  27  30
ENDBRANCH  23  24
ENDBRANCH  22  23
ENDBRANCH  21  22
ENDBRANCH  19  21
BRANCH  18  36
HETATM   36  O   UNK N   1      33.032  17.188   3.938  0.00  0.00    -0.346 OA
HETATM   37  H   UNK N   1      32.420  17.543   3.324  0.00  0.00     0.219 HD
ENDBRANCH  18  36
ENDBRANCH  14  18
BRANCH  16  38
HETATM   38  N   UNK N   1      30.457  18.014   8.992  0.00  0.00    -0.116 N 
HETATM   39  O   UNK N   1      29.814  17.201   9.599  0.00  0.00    -0.532 OA
HETATM   40  O   UNK N   1      30.047  19.126   8.897  0.00  0.00    -0.532 OA
ENDBRANCH  16  38
ENDBRANCH  11  12
ENDBRANCH   5  11
BRANCH   2  41
HETATM   41  O   UNK N   1      35.527  12.581  12.620  0.00  0.00    -0.390 OA
HETATM   42  H   UNK N   1      35.167  12.689  13.515  0.00  0.00     0.210 HD
ENDBRANCH   2  41
BRANCH   1  43
HETATM   43  C   UNK N   1      34.571  12.021   9.928  0.00  0.00     0.198 C 
BRANCH  43  44
HETATM   44  O   UNK N   1      33.784  11.196  10.728  0.00  0.00    -0.398 OA
HETATM   45  H   UNK N   1      33.237  10.467  11.058  0.00  0.00     0.209 HD
ENDBRANCH  43  44
ENDBRANCH   1  43
TORSDOF 17
ENDMDL
MODEL 8
REMARK VINA RESULT:      -6.7      5.701     10.167
REMARK  17 active torsions:
REMARK  status: ('A' for Active; 'I' for Inactive)
REMARK    1  A    between atoms: C_3  and  C_1 
REMARK    2  A    between atoms: C_5  and  C_1 
REMARK    3  A    between atoms: C_4  and  C_2 
REMARK    4  A    between atoms: C_6  and  C_2 
REMARK    5  A    between atoms: N_24  and  C_3 
REMARK    6  A    between atoms: N_25  and  C_4 
REMARK    7  A    between atoms: N_27  and  C_5 
REMARK    8  A    between atoms: N_28  and  C_6 
REMARK    9  A    between atoms: C_18  and  C_14 
REMARK   10  A    between atoms: O_30  and  C_14 
REMARK   11  A    between atoms: C_22  and  C_15 
REMARK   12  A    between atoms: N_29  and  C_16 
REMARK   13  A    between atoms: O_37  and  C_17 
REMARK   14  A    between atoms: C_19  and  O_31 
REMARK   15  A    between atoms: C_20  and  O_32 
REMARK   16  A    between atoms: O_34  and  C_22 
REMARK   17  A    between atoms: C_23  and  O_37 
ROOT
HETATM    1  C   UNK N   1      20.652  18.074   1.733  0.00  0.00     0.179 C 
HETATM    2  C   UNK N   1      20.467  19.576   1.436  0.00  0.00     0.180 C 
HETATM    3  C   UNK N   1      21.523  20.330   2.247  0.00  0.00     0.183 C 
HETATM    4  C   UNK N   1      21.379  19.980   3.717  0.00  0.00     0.205 C 
HETATM    5  C   UNK N   1      21.348  18.436   3.900  0.00  0.00     0.298 C 
HETATM    6  O   UNK N   1      20.209  20.534   4.245  0.00  0.00    -0.388 OA
HETATM    7  O   UNK N   1      20.353  17.837   3.099  0.00  0.00    -0.348 OA
HETATM    8  H   UNK N   1      19.315  20.786   4.526  0.00  0.00     0.210 HD
ENDROOT
BRANCH   3   9
HETATM    9  O   UNK N   1      21.408  21.712   2.071  0.00  0.00    -0.390 OA
HETATM   10  H   UNK N   1      20.672  22.218   2.449  0.00  0.00     0.210 HD
ENDBRANCH   3   9
BRANCH   5  11
HETATM   11  O   UNK N   1      21.117  18.106   5.218  0.00  0.00    -0.318 OA
BRANCH  11  12
HETATM   12  C   UNK N   1      21.702  17.001   5.686  0.00  0.00     0.075 A 
HETATM   13  C   UNK N   1      23.055  16.861   5.504  0.00  0.00     0.052 A 
HETATM   14  C   UNK N   1      23.752  15.878   6.178  0.00  0.00     0.019 A 
HETATM   15  C   UNK N   1      23.082  15.039   7.099  0.00  0.00     0.052 A 
HETATM   16  C   UNK N   1      21.693  15.200   7.298  0.00  0.00     0.106 A 
HETATM   17  C   UNK N   1      21.022  16.156   6.554  0.00  0.00     0.073 A 
BRANCH  14  18
HETATM   18  C   UNK N   1      25.140  15.695   5.782  0.00  0.00     0.146 C 
HETATM   19  N   UNK N   1      25.497  14.597   5.231  0.00  0.00    -0.370 N 
ATOM     20  HN  UNK N   1      24.887  13.783   5.296  1.00  0.00     0.161 HD
BRANCH  19  21
HETATM   21  C   UNK N   1      26.744  14.491   4.521  0.00  0.00     0.123 C 
BRANCH  21  22
HETATM   22  C   UNK N   1      26.503  13.871   3.127  0.00  0.00     0.050 C 
BRANCH  22  23
HETATM   23  C   UNK N   1      25.564  14.665   2.181  0.00  0.00     0.274 C 
BRANCH  23  24
HETATM   24  N   UNK N   1      24.218  14.110   1.964  0.00  0.00     0.091 N 
HETATM   25  C   UNK N   1      23.150  14.964   2.494  0.00  0.00     0.302 C 
HETATM   26  C   UNK N   1      21.790  14.327   2.227  0.00  0.00     0.302 C 
HETATM   27  N   UNK N   1      21.594  14.082   0.796  0.00  0.00     0.091 N 
HETATM   28  C   UNK N   1      22.676  13.242   0.284  0.00  0.00     0.302 C 
HETATM   29  C   UNK N   1      24.029  13.891   0.532  0.00  0.00     0.302 C 
BRANCH  27  30
HETATM   30  C   UNK N   1      20.410  13.251   0.697  0.00  0.00     0.274 C 
BRANCH  30  31
HETATM   31  C   UNK N   1      19.908  12.842   2.067  0.00  0.00     0.049 C 
BRANCH  31  32
HETATM   32  C   UNK N   1      18.498  12.295   1.932  0.00  0.00     0.112 C 
BRANCH  32  33
HETATM   33  N   UNK N   1      17.883  12.795   0.714  0.00  0.00    -0.430 N 
HETATM   34  H   UNK N   1      18.361  12.853  -0.186  0.00  0.00     0.149 HD
HETATM   35  H   UNK N   1      16.912  13.108   0.761  0.00  0.00     0.149 HD
ENDBRANCH  32  33
ENDBRANCH  31  32
ENDBRANCH  30  31
ENDBRANCH  27  30
ENDBRANCH  23  24
ENDBRANCH  22  23
ENDBRANCH  21  22
ENDBRANCH  19  21
BRANCH  18  36
HETATM   36  O   UNK N   1      25.988  16.750   5.825  0.00  0.00    -0.346 OA
HETATM   37  H   UNK N   1      25.660  17.608   6.006  0.00  0.00     0.219 HD
ENDBRANCH  18  36
ENDBRANCH  14  18
BRANCH  16  38
HETATM   38  N   UNK N   1      20.990  14.501   8.321  0.00  0.00    -0.116 N 
HETATM   39  O   UNK N   1      20.298  13.564   8.031  0.00  0.00    -0.532 OA
HETATM   40  O   UNK N   1      20.948  14.935   9.426  0.00  0.00    -0.532 OA
ENDBRANCH  16  38
ENDBRANCH  11  12
ENDBRANCH   5  11
BRANCH   2  41
HETATM   41  O   UNK N   1      20.648  19.841   0.078  0.00  0.00    -0.390 OA
HETATM   42  H   UNK N   1      20.412  19.296  -0.690  0.00  0.00     0.210 HD
ENDBRANCH   2  41
BRANCH   1  43
HETATM   43  C   UNK N   1      19.783  17.174   0.865  0.00  0.00     0.198 C 
BRANCH  43  44
HETATM   44  O   UNK N   1      20.302  17.067  -0.423  0.00  0.00    -0.398 OA
HETATM   45  H   UNK N   1      20.828  17.193  -1.228  0.00  0.00     0.209 HD
ENDBRANCH  43  44
ENDBRANCH   1  43
TORSDOF 17
ENDMDL
MODEL 9
REMARK VINA RESULT:      -6.6      5.589      8.871
REMARK  17 active torsions:
REMARK  status: ('A' for Active; 'I' for Inactive)
REMARK    1  A    between atoms: C_3  and  C_1 
REMARK    2  A    between atoms: C_5  and  C_1 
REMARK    3  A    between atoms: C_4  and  C_2 
REMARK    4  A    between atoms: C_6  and  C_2 
REMARK    5  A    between atoms: N_24  and  C_3 
REMARK    6  A    between atoms: N_25  and  C_4 
REMARK    7  A    between atoms: N_27  and  C_5 
REMARK    8  A    between atoms: N_28  and  C_6 
REMARK    9  A    between atoms: C_18  and  C_14 
REMARK   10  A    between atoms: O_30  and  C_14 
REMARK   11  A    between atoms: C_22  and  C_15 
REMARK   12  A    between atoms: N_29  and  C_16 
REMARK   13  A    between atoms: O_37  and  C_17 
REMARK   14  A    between atoms: C_19  and  O_31 
REMARK   15  A    between atoms: C_20  and  O_32 
REMARK   16  A    between atoms: O_34  and  C_22 
REMARK   17  A    between atoms: C_23  and  O_37 
ROOT
HETATM    1  C   UNK N   1      22.806  19.587   3.049  0.00  0.00     0.179 C 
HETATM    2  C   UNK N   1      24.206  20.230   3.121  0.00  0.00     0.180 C 
HETATM    3  C   UNK N   1      25.217  19.094   3.293  0.00  0.00     0.183 C 
HETATM    4  C   UNK N   1      24.860  18.280   4.524  0.00  0.00     0.205 C 
HETATM    5  C   UNK N   1      23.363  17.863   4.475  0.00  0.00     0.298 C 
HETATM    6  O   UNK N   1      25.100  19.014   5.689  0.00  0.00    -0.388 OA
HETATM    7  O   UNK N   1      22.518  18.979   4.298  0.00  0.00    -0.348 OA
HETATM    8  H   UNK N   1      25.117  19.608   6.456  0.00  0.00     0.210 HD
ENDROOT
BRANCH   3   9
HETATM    9  O   UNK N   1      26.520  19.586   3.408  0.00  0.00    -0.390 OA
HETATM   10  H   UNK N   1      26.781  20.441   3.031  0.00  0.00     0.210 HD
ENDBRANCH   3   9
BRANCH   5  11
HETATM   11  O   UNK N   1      23.001  17.209   5.633  0.00  0.00    -0.318 OA
BRANCH  11  12
HETATM   12  C   UNK N   1      21.698  17.013   5.846  0.00  0.00     0.075 A 
HETATM   13  C   UNK N   1      21.049  16.090   5.066  0.00  0.00     0.052 A 
HETATM   14  C   UNK N   1      19.780  15.661   5.401  0.00  0.00     0.019 A 
HETATM   15  C   UNK N   1      19.160  16.136   6.580  0.00  0.00     0.052 A 
HETATM   16  C   UNK N   1      19.839  17.072   7.390  0.00  0.00     0.106 A 
HETATM   17  C   UNK N   1      21.084  17.523   6.983  0.00  0.00     0.073 A 
BRANCH  14  18
HETATM   18  C   UNK N   1      19.110  14.823   4.417  0.00  0.00     0.146 C 
HETATM   19  N   UNK N   1      19.499  14.851   3.199  0.00  0.00    -0.370 N 
ATOM     20  HN  UNK N   1      20.090  15.618   2.879  1.00  0.00     0.161 HD
BRANCH  19  21
HETATM   21  C   UNK N   1      19.117  13.819   2.272  0.00  0.00     0.123 C 
BRANCH  21  22
HETATM   22  C   UNK N   1      20.344  12.948   1.923  0.00  0.00     0.050 C 
BRANCH  22  23
HETATM   23  C   UNK N   1      20.855  12.007   3.046  0.00  0.00     0.274 C 
BRANCH  23  24
HETATM   24  N   UNK N   1      22.162  12.332   3.639  0.00  0.00     0.091 N 
HETATM   25  C   UNK N   1      22.782  13.524   3.053  0.00  0.00     0.302 C 
HETATM   26  C   UNK N   1      24.126  13.797   3.721  0.00  0.00     0.302 C 
HETATM   27  N   UNK N   1      23.973  13.953   5.170  0.00  0.00     0.091 N 
HETATM   28  C   UNK N   1      23.340  12.761   5.733  0.00  0.00     0.302 C 
HETATM   29  C   UNK N   1      21.990  12.504   5.080  0.00  0.00     0.302 C 
BRANCH  27  30
HETATM   30  C   UNK N   1      25.317  13.942   5.711  0.00  0.00     0.274 C 
BRANCH  30  31
HETATM   31  C   UNK N   1      25.519  15.066   6.707  0.00  0.00     0.049 C 
BRANCH  31  32
HETATM   32  C   UNK N   1      26.822  15.778   6.389  0.00  0.00     0.112 C 
BRANCH  32  33
HETATM   33  N   UNK N   1      26.966  16.955   7.229  0.00  0.00    -0.430 N 
HETATM   34  H   UNK N   1      27.784  17.150   7.806  0.00  0.00     0.149 HD
HETATM   35  H   UNK N   1      26.200  17.630   7.242  0.00  0.00     0.149 HD
ENDBRANCH  32  33
ENDBRANCH  31  32
ENDBRANCH  30  31
ENDBRANCH  27  30
ENDBRANCH  23  24
ENDBRANCH  22  23
ENDBRANCH  21  22
ENDBRANCH  19  21
BRANCH  18  36
HETATM   36  O   UNK N   1      18.220  13.892   4.833  0.00  0.00    -0.346 OA
HETATM   37  H   UNK N   1      18.508  13.023   5.031  0.00  0.00     0.219 HD
ENDBRANCH  18  36
ENDBRANCH  14  18
BRANCH  16  38
HETATM   38  N   UNK N   1      19.343  17.468   8.665  0.00  0.00    -0.116 N 
HETATM   39  O   UNK N   1      19.900  18.341   9.274  0.00  0.00    -0.532 OA
HETATM   40  O   UNK N   1      18.494  16.834   9.204  0.00  0.00    -0.532 OA
ENDBRANCH  16  38
ENDBRANCH  11  12
ENDBRANCH   5  11
BRANCH   2  41
HETATM   41  O   UNK N   1      24.491  20.932   1.950  0.00  0.00    -0.390 OA
HETATM   42  H   UNK N   1      25.230  20.818   1.330  0.00  0.00     0.210 HD
ENDBRANCH   2  41
BRANCH   1  43
HETATM   43  C   UNK N   1      21.702  20.577   2.706  0.00  0.00     0.198 C 
BRANCH  43  44
HETATM   44  O   UNK N   1      22.138  21.890   2.868  0.00  0.00    -0.398 OA
HETATM   45  H   UNK N   1      22.519  22.706   3.227  0.00  0.00     0.209 HD
ENDBRANCH  43  44
ENDBRANCH   1  43
TORSDOF 17
ENDMDL
