MODEL 1
REMARK VINA RESULT:     -15.3      0.000      0.000
REMARK  8 active torsions:
REMARK  status: ('A' for Active; 'I' for Inactive)
REMARK    1  A    between atoms: C_8  and  N_26 
REMARK    2  A    between atoms: C_18  and  O_36 
REMARK    3  A    between atoms: C_23  and  O_39 
REMARK    4  A    between atoms: O_41  and  C_23 
REMARK    5  A    between atoms: O_40  and  C_24 
REMARK    6  A    between atoms: C_24  and  O_43 
REMARK    7  A    between atoms: O_42  and  C_25 
REMARK    8  A    between atoms: C_25  and  O_44 
ROOT
HETATM    1  C   UNK N   1      20.429  17.972   2.922  0.00  0.00     0.042 A 
HETATM    2  C   UNK N   1      20.625  19.355   2.027  0.00  0.00     0.036 A 
HETATM    3  C   UNK N   1      20.798  19.280   3.858  0.00  0.00     0.171 A 
HETATM    4  C   UNK N   1      20.455  16.913   5.308  0.00  0.00     0.198 A 
HETATM    5  C   UNK N   1      20.321  17.081   3.672  0.00  0.00     0.198 A 
HETATM    6  C   UNK N   1      20.245  17.318   2.454  0.00  0.00     0.145 A 
HETATM    7  C   UNK N   1      20.858  19.948   3.089  0.00  0.00     0.042 A 
HETATM    8  C   UNK N   1      20.557  19.439   1.209  0.00  0.00     0.109 A 
HETATM    9  C   UNK N   1      20.523  16.830   6.125  0.00  0.00     0.180 A 
HETATM   10  C   UNK N   1      20.028  15.820   3.378  0.00  0.00     0.180 A 
HETATM   11  C   UNK N   1      20.129  17.463   1.042  0.00  0.00     0.137 A 
HETATM   12  C   UNK N   1      20.975  20.686   2.739  0.00  0.00     0.155 A 
HETATM   13  C   UNK N   1      20.675  20.176   0.858  0.00  0.00     0.171 A 
HETATM   14  C   UNK N   1      19.944  16.809   0.573  0.00  0.00     0.176 A 
HETATM   15  C   UNK N   1      20.859  20.831   1.326  0.00  0.00     0.178 A 
HETATM   16  C   UNK N   1      20.346  15.424   7.245  0.00  0.00     0.183 A 
HETATM   17  C   UNK N   1      19.775  14.367   3.855  0.00  0.00     0.183 A 
HETATM   18  C   UNK N   1      20.657  16.662   7.762  0.00  0.00     0.204 A 
HETATM   19  C   UNK N   1      19.827  16.071   0.924  0.00  0.00     0.204 A 
HETATM   20  C   UNK N   1      19.842  14.284   4.673  0.00  0.00     0.204 A 
HETATM   21  C   UNK N   1      20.230  15.569   5.832  0.00  0.00     0.187 A 
HETATM   22  C   UNK N   1      19.844  15.166   2.911  0.00  0.00     0.187 A 
HETATM   23  C   UNK N   1      20.726  17.461   6.817  0.00  0.00     0.288 A 
HETATM   24  C   UNK N   1      20.021  16.572   1.791  0.00  0.00     0.292 A 
HETATM   25  C   UNK N   1      19.978  14.999   4.547  0.00  0.00     0.292 A 
HETATM   26  N   UNK N   1      20.246  18.200   0.691  0.00  0.00    -0.406 N 
HETATM   27  O   UNK N   1      20.983  19.934   4.326  0.00  0.00    -0.400 OA
HETATM   28  O   UNK N   1      20.573  17.651   4.958  0.00  0.00    -0.398 OA
HETATM   29  O   UNK N   1      20.457  17.796   3.545  0.00  0.00    -0.398 OA
HETATM   30  O   UNK N   1      21.160  21.340   3.206  0.00  0.00    -0.392 OA
HETATM   31  O   UNK N   1      20.607  20.260   0.040  0.00  0.00    -0.391 OA
HETATM   32  O   UNK N   1      20.004  17.476  -0.195  0.00  0.00    -0.391 OA
HETATM   33  O   UNK N   1      20.977  21.568   0.975  0.00  0.00    -0.390 OA
HETATM   34  O   UNK N   1      20.180  14.748   7.001  0.00  0.00    -0.390 OA
HETATM   35  O   UNK N   1      19.669  14.359   2.842  0.00  0.00    -0.390 OA
HETATM   36  O   UNK N   1      19.642  15.417   0.456  0.00  0.00    -0.388 OA
HETATM   37  O   UNK N   1      19.725  13.546   5.024  0.00  0.00    -0.388 OA
HETATM   38  O   UNK N   1      20.205  17.225   2.259  0.00  0.00    -0.352 OA
HETATM   39  O   UNK N   1      20.658  17.545   5.999  0.00  0.00    -0.349 OA
HETATM   40  O   UNK N   1      20.095  15.736   4.196  0.00  0.00    -0.348 OA
HETATM   41  O   UNK N   1      19.777  15.250   2.092  0.00  0.00    -0.348 OA
HETATM   42  O   UNK N   1      20.094  14.854   5.958  0.00  0.00    -0.348 OA
HETATM   43  H   UNK N   1      20.140  18.195  -0.323  0.00  0.00     0.154 HD
HETATM   44  H   UNK N   1      21.062  19.836   5.287  0.00  0.00     0.209 HD
HETATM   45  H   UNK N   1      20.790  18.420   5.508  0.00  0.00     0.209 HD
HETATM   46  H   UNK N   1      20.657  18.390   4.284  0.00  0.00     0.209 HD
HETATM   47  H   UNK N   1      21.239  21.241   4.168  0.00  0.00     0.210 HD
HETATM   48  H   UNK N   1      20.745  21.127  -0.372  0.00  0.00     0.210 HD
HETATM   49  H   UNK N   1      20.216  18.406  -0.015  0.00  0.00     0.210 HD
HETATM   50  H   UNK N   1      21.194  22.337   1.526  0.00  0.00     0.210 HD
HETATM   51  H   UNK N   1      20.049  14.593   6.051  0.00  0.00     0.210 HD
HETATM   52  H   UNK N   1      19.787  15.177   2.334  0.00  0.00     0.210 HD
HETATM   53  H   UNK N   1      19.563  15.515  -0.505  0.00  0.00     0.210 HD
HETATM   54  H   UNK N   1      19.508  12.777   4.473  0.00  0.00     0.210 HD
ENDROOT
BRANCH  18  55
HETATM   55  O   UNK N   1      20.724  16.579   8.579  0.00  0.00    -0.388 OA
HETATM   56  H   UNK N   1      21.156  17.271   9.104  0.00  0.00     0.210 HD
ENDBRANCH  18  55
BRANCH  23  57
HETATM   57  O   UNK N   1      20.910  18.115   7.285  0.00  0.00    -0.369 OA
HETATM   58  H   UNK N   1      20.341  18.352   8.033  0.00  0.00     0.212 HD
ENDBRANCH  23  57
TORSDOF 8
ENDMDL
MODEL 2
REMARK VINA RESULT:     -14.0      1.089      5.131
REMARK  8 active torsions:
REMARK  status: ('A' for Active; 'I' for Inactive)
REMARK    1  A    between atoms: C_8  and  N_26 
REMARK    2  A    between atoms: C_18  and  O_36 
REMARK    3  A    between atoms: C_23  and  O_39 
REMARK    4  A    between atoms: O_41  and  C_23 
REMARK    5  A    between atoms: O_40  and  C_24 
REMARK    6  A    between atoms: C_24  and  O_43 
REMARK    7  A    between atoms: O_42  and  C_25 
REMARK    8  A    between atoms: C_25  and  O_44 
ROOT
HETATM    1  C   UNK N   1      20.372  16.705   4.516  0.00  0.00     0.042 A 
HETATM    2  C   UNK N   1      20.413  16.231   6.105  0.00  0.00     0.036 A 
HETATM    3  C   UNK N   1      20.689  17.961   5.538  0.00  0.00     0.171 A 
HETATM    4  C   UNK N   1      20.606  18.695   2.841  0.00  0.00     0.198 A 
HETATM    5  C   UNK N   1      20.373  17.177   3.445  0.00  0.00     0.198 A 
HETATM    6  C   UNK N   1      20.214  16.078   4.004  0.00  0.00     0.145 A 
HETATM    7  C   UNK N   1      20.656  17.410   6.397  0.00  0.00     0.042 A 
HETATM    8  C   UNK N   1      20.296  15.473   6.407  0.00  0.00     0.109 A 
HETATM    9  C   UNK N   1      20.723  19.452   2.539  0.00  0.00     0.180 A 
HETATM   10  C   UNK N   1      20.162  16.547   2.295  0.00  0.00     0.180 A 
HETATM   11  C   UNK N   1      20.012  14.768   4.526  0.00  0.00     0.137 A 
HETATM   12  C   UNK N   1      20.698  17.280   7.211  0.00  0.00     0.155 A 
HETATM   13  C   UNK N   1      20.338  15.341   7.221  0.00  0.00     0.171 A 
HETATM   14  C   UNK N   1      19.853  14.140   4.015  0.00  0.00     0.176 A 
HETATM   15  C   UNK N   1      20.496  15.969   7.732  0.00  0.00     0.178 A 
HETATM   16  C   UNK N   1      20.714  20.135   0.867  0.00  0.00     0.183 A 
HETATM   17  C   UNK N   1      20.046  16.603   0.751  0.00  0.00     0.183 A 
HETATM   18  C   UNK N   1      20.956  20.971   1.935  0.00  0.00     0.204 A 
HETATM   19  C   UNK N   1      19.812  14.271   3.201  0.00  0.00     0.204 A 
HETATM   20  C   UNK N   1      20.163  17.362   0.449  0.00  0.00     0.204 A 
HETATM   21  C   UNK N   1      20.512  18.824   1.389  0.00  0.00     0.187 A 
HETATM   22  C   UNK N   1      20.003  15.920   1.784  0.00  0.00     0.187 A 
HETATM   23  C   UNK N   1      20.913  20.288   2.968  0.00  0.00     0.288 A 
HETATM   24  C   UNK N   1      20.012  15.238   3.456  0.00  0.00     0.292 A 
HETATM   25  C   UNK N   1      20.237  17.438   1.180  0.00  0.00     0.292 A 
HETATM   26  N   UNK N   1      20.053  14.636   5.339  0.00  0.00    -0.406 N 
HETATM   27  O   UNK N   1      20.848  18.589   6.050  0.00  0.00    -0.400 OA
HETATM   28  O   UNK N   1      20.648  18.563   3.655  0.00  0.00    -0.398 OA
HETATM   29  O   UNK N   1      20.446  17.252   4.176  0.00  0.00    -0.398 OA
HETATM   30  O   UNK N   1      20.856  17.907   7.722  0.00  0.00    -0.392 OA
HETATM   31  O   UNK N   1      20.221  14.582   7.523  0.00  0.00    -0.391 OA
HETATM   32  O   UNK N   1      19.821  13.589   4.873  0.00  0.00    -0.391 OA
HETATM   33  O   UNK N   1      20.538  15.837   8.545  0.00  0.00    -0.390 OA
HETATM   34  O   UNK N   1      20.587  19.714   0.274  0.00  0.00    -0.390 OA
HETATM   35  O   UNK N   1      19.887  15.632   1.015  0.00  0.00    -0.390 OA
HETATM   36  O   UNK N   1      19.653  13.643   2.690  0.00  0.00    -0.388 OA
HETATM   37  O   UNK N   1      20.122  17.493  -0.365  0.00  0.00    -0.388 OA
HETATM   38  O   UNK N   1      20.171  15.865   3.967  0.00  0.00    -0.352 OA
HETATM   39  O   UNK N   1      20.796  19.529   3.270  0.00  0.00    -0.349 OA
HETATM   40  O   UNK N   1      20.279  17.306   1.993  0.00  0.00    -0.348 OA
HETATM   41  O   UNK N   1      19.887  15.161   2.086  0.00  0.00    -0.348 OA
HETATM   42  O   UNK N   1      20.438  18.748   0.659  0.00  0.00    -0.348 OA
HETATM   43  H   UNK N   1      19.895  13.665   5.607  0.00  0.00     0.154 HD
HETATM   44  H   UNK N   1      20.985  19.481   5.695  0.00  0.00     0.209 HD
HETATM   45  H   UNK N   1      20.834  19.301   4.256  0.00  0.00     0.209 HD
HETATM   46  H   UNK N   1      20.639  18.123   4.557  0.00  0.00     0.209 HD
HETATM   47  H   UNK N   1      20.994  18.799   7.367  0.00  0.00     0.210 HD
HETATM   48  H   UNK N   1      20.270  14.428   8.479  0.00  0.00     0.210 HD
HETATM   49  H   UNK N   1      19.970  14.018   5.730  0.00  0.00     0.210 HD
HETATM   50  H   UNK N   1      20.725  16.576   9.146  0.00  0.00     0.210 HD
HETATM   51  H   UNK N   1      20.419  18.765   0.379  0.00  0.00     0.210 HD
HETATM   52  H   UNK N   1      19.915  15.373   1.950  0.00  0.00     0.210 HD
HETATM   53  H   UNK N   1      19.516  12.751   3.044  0.00  0.00     0.210 HD
HETATM   54  H   UNK N   1      19.935  16.754  -0.965  0.00  0.00     0.210 HD
ENDROOT
BRANCH  18  55
HETATM   55  O   UNK N   1      21.073  21.729   1.633  0.00  0.00    -0.388 OA
HETATM   56  H   UNK N   1      21.490  21.847   0.765  0.00  0.00     0.210 HD
ENDBRANCH  18  55
BRANCH  23  57
HETATM   57  O   UNK N   1      21.072  20.916   3.479  0.00  0.00    -0.369 OA
HETATM   58  H   UNK N   1      20.572  21.742   3.402  0.00  0.00     0.212 HD
ENDBRANCH  23  57
TORSDOF 8
ENDMDL
MODEL 3
REMARK VINA RESULT:     -13.6      2.859      5.440
REMARK  8 active torsions:
REMARK  status: ('A' for Active; 'I' for Inactive)
REMARK    1  A    between atoms: C_8  and  N_26 
REMARK    2  A    between atoms: C_18  and  O_36 
REMARK    3  A    between atoms: C_23  and  O_39 
REMARK    4  A    between atoms: O_41  and  C_23 
REMARK    5  A    between atoms: O_40  and  C_24 
REMARK    6  A    between atoms: C_24  and  O_43 
REMARK    7  A    between atoms: O_42  and  C_25 
REMARK    8  A    between atoms: C_25  and  O_44 
ROOT
HETATM    1  C   UNK N   1      21.527  17.650   4.237  0.00  0.00     0.042 A 
HETATM    2  C   UNK N   1      20.404  16.512   4.681  0.00  0.00     0.036 A 
HETATM    3  C   UNK N   1      22.146  16.529   5.277  0.00  0.00     0.171 A 
HETATM    4  C   UNK N   1      23.990  18.478   4.490  0.00  0.00     0.198 A 
HETATM    5  C   UNK N   1      22.414  18.379   4.011  0.00  0.00     0.198 A 
HETATM    6  C   UNK N   1      21.218  18.210   3.717  0.00  0.00     0.145 A 
HETATM    7  C   UNK N   1      21.286  15.987   5.374  0.00  0.00     0.042 A 
HETATM    8  C   UNK N   1      19.616  16.462   4.442  0.00  0.00     0.109 A 
HETATM    9  C   UNK N   1      24.777  18.528   4.728  0.00  0.00     0.180 A 
HETATM   10  C   UNK N   1      22.390  19.445   3.220  0.00  0.00     0.180 A 
HETATM   11  C   UNK N   1      19.857  18.125   3.304  0.00  0.00     0.137 A 
HETATM   12  C   UNK N   1      20.808  15.377   5.656  0.00  0.00     0.155 A 
HETATM   13  C   UNK N   1      19.137  15.852   4.722  0.00  0.00     0.171 A 
HETATM   14  C   UNK N   1      19.547  18.685   2.784  0.00  0.00     0.176 A 
HETATM   15  C   UNK N   1      19.446  15.291   5.243  0.00  0.00     0.178 A 
HETATM   16  C   UNK N   1      26.115  19.679   4.351  0.00  0.00     0.183 A 
HETATM   17  C   UNK N   1      23.133  20.652   2.593  0.00  0.00     0.183 A 
HETATM   18  C   UNK N   1      26.354  18.627   5.207  0.00  0.00     0.204 A 
HETATM   19  C   UNK N   1      20.026  19.296   2.503  0.00  0.00     0.204 A 
HETATM   20  C   UNK N   1      23.921  20.701   2.832  0.00  0.00     0.204 A 
HETATM   21  C   UNK N   1      24.754  19.593   3.938  0.00  0.00     0.187 A 
HETATM   22  C   UNK N   1      22.081  20.005   2.700  0.00  0.00     0.187 A 
HETATM   23  C   UNK N   1      25.302  17.980   5.314  0.00  0.00     0.288 A 
HETATM   24  C   UNK N   1      20.743  18.854   3.078  0.00  0.00     0.292 A 
HETATM   25  C   UNK N   1      23.657  20.104   3.179  0.00  0.00     0.292 A 
HETATM   26  N   UNK N   1      19.377  17.515   3.585  0.00  0.00    -0.406 N 
HETATM   27  O   UNK N   1      22.455  15.967   5.798  0.00  0.00    -0.400 OA
HETATM   28  O   UNK N   1      23.511  17.867   4.771  0.00  0.00    -0.398 OA
HETATM   29  O   UNK N   1      22.149  17.782   4.358  0.00  0.00    -0.398 OA
HETATM   30  O   UNK N   1      21.116  14.816   6.176  0.00  0.00    -0.392 OA
HETATM   31  O   UNK N   1      18.349  15.803   4.483  0.00  0.00    -0.391 OA
HETATM   32  O   UNK N   1      18.688  18.145   2.881  0.00  0.00    -0.391 OA
HETATM   33  O   UNK N   1      18.967  14.681   5.523  0.00  0.00    -0.390 OA
HETATM   34  O   UNK N   1      26.021  20.253   3.896  0.00  0.00    -0.390 OA
HETATM   35  O   UNK N   1      22.180  20.684   2.236  0.00  0.00    -0.390 OA
HETATM   36  O   UNK N   1      19.716  19.856   1.983  0.00  0.00    -0.388 OA
HETATM   37  O   UNK N   1      24.400  21.311   2.551  0.00  0.00    -0.388 OA
HETATM   38  O   UNK N   1      21.052  18.293   3.598  0.00  0.00    -0.352 OA
HETATM   39  O   UNK N   1      24.514  17.930   5.075  0.00  0.00    -0.349 OA
HETATM   40  O   UNK N   1      23.178  19.494   3.459  0.00  0.00    -0.348 OA
HETATM   41  O   UNK N   1      21.292  19.955   2.461  0.00  0.00    -0.348 OA
HETATM   42  O   UNK N   1      25.017  20.190   3.591  0.00  0.00    -0.348 OA
HETATM   43  H   UNK N   1      18.423  17.545   3.229  0.00  0.00     0.154 HD
HETATM   44  H   UNK N   1      23.381  16.026   6.079  0.00  0.00     0.209 HD
HETATM   45  H   UNK N   1      23.874  17.208   5.382  0.00  0.00     0.209 HD
HETATM   46  H   UNK N   1      22.727  17.264   4.940  0.00  0.00     0.209 HD
HETATM   47  H   UNK N   1      22.043  14.874   6.457  0.00  0.00     0.210 HD
HETATM   48  H   UNK N   1      17.786  15.085   4.813  0.00  0.00     0.210 HD
HETATM   49  H   UNK N   1      18.671  17.360   3.451  0.00  0.00     0.210 HD
HETATM   50  H   UNK N   1      19.332  14.022   6.135  0.00  0.00     0.210 HD
HETATM   51  H   UNK N   1      25.158  20.406   3.481  0.00  0.00     0.210 HD
HETATM   52  H   UNK N   1      21.536  20.010   2.506  0.00  0.00     0.210 HD
HETATM   53  H   UNK N   1      18.791  19.799   1.701  0.00  0.00     0.210 HD
HETATM   54  H   UNK N   1      24.035  21.970   1.940  0.00  0.00     0.210 HD
ENDROOT
BRANCH  18  55
HETATM   55  O   UNK N   1      27.141  18.676   5.446  0.00  0.00    -0.388 OA
HETATM   56  H   UNK N   1      27.450  19.451   5.942  0.00  0.00     0.210 HD
ENDBRANCH  18  55
BRANCH  23  57
HETATM   57  O   UNK N   1      25.611  17.420   5.834  0.00  0.00    -0.369 OA
HETATM   58  H   UNK N   1      25.542  17.555   6.791  0.00  0.00     0.212 HD
ENDBRANCH  23  57
TORSDOF 8
ENDMDL
MODEL 4
REMARK VINA RESULT:     -13.4      9.903     11.346
REMARK  8 active torsions:
REMARK  status: ('A' for Active; 'I' for Inactive)
REMARK    1  A    between atoms: C_8  and  N_26 
REMARK    2  A    between atoms: C_18  and  O_36 
REMARK    3  A    between atoms: C_23  and  O_39 
REMARK    4  A    between atoms: O_41  and  C_23 
REMARK    5  A    between atoms: O_40  and  C_24 
REMARK    6  A    between atoms: C_24  and  O_43 
REMARK    7  A    between atoms: O_42  and  C_25 
REMARK    8  A    between atoms: C_25  and  O_44 
ROOT
HETATM    1  C   UNK N   1      30.970  17.012   5.851  0.00  0.00     0.042 A 
HETATM    2  C   UNK N   1      32.201  16.289   5.005  0.00  0.00     0.036 A 
HETATM    3  C   UNK N   1      30.876  17.307   4.230  0.00  0.00     0.171 A 
HETATM    4  C   UNK N   1      28.828  18.500   5.714  0.00  0.00     0.198 A 
HETATM    5  C   UNK N   1      30.054  17.574   6.316  0.00  0.00     0.198 A 
HETATM    6  C   UNK N   1      31.016  16.866   6.661  0.00  0.00     0.145 A 
HETATM    7  C   UNK N   1      31.708  16.772   3.977  0.00  0.00     0.042 A 
HETATM    8  C   UNK N   1      32.814  15.826   5.306  0.00  0.00     0.109 A 
HETATM    9  C   UNK N   1      28.216  18.962   5.413  0.00  0.00     0.180 A 
HETATM   10  C   UNK N   1      29.716  17.624   7.598  0.00  0.00     0.180 A 
HETATM   11  C   UNK N   1      32.075  16.066   7.181  0.00  0.00     0.137 A 
HETATM   12  C   UNK N   1      32.275  16.456   3.466  0.00  0.00     0.155 A 
HETATM   13  C   UNK N   1      33.380  15.510   4.797  0.00  0.00     0.171 A 
HETATM   14  C   UNK N   1      32.122  15.919   7.991  0.00  0.00     0.176 A 
HETATM   15  C   UNK N   1      33.334  15.657   3.986  0.00  0.00     0.178 A 
HETATM   16  C   UNK N   1      26.818  19.812   6.176  0.00  0.00     0.183 A 
HETATM   17  C   UNK N   1      28.750  18.130   8.700  0.00  0.00     0.183 A 
HETATM   18  C   UNK N   1      26.989  19.888   4.811  0.00  0.00     0.204 A 
HETATM   19  C   UNK N   1      31.555  16.235   8.501  0.00  0.00     0.204 A 
HETATM   20  C   UNK N   1      28.136  18.593   8.399  0.00  0.00     0.204 A 
HETATM   21  C   UNK N   1      27.876  19.013   6.696  0.00  0.00     0.187 A 
HETATM   22  C   UNK N   1      29.762  17.477   8.408  0.00  0.00     0.187 A 
HETATM   23  C   UNK N   1      28.002  19.235   4.520  0.00  0.00     0.288 A 
HETATM   24  C   UNK N   1      31.160  16.627   7.646  0.00  0.00     0.292 A 
HETATM   25  C   UNK N   1      28.536  18.403   7.806  0.00  0.00     0.292 A 
HETATM   26  N   UNK N   1      32.642  15.750   6.672  0.00  0.00    -0.406 N 
HETATM   27  O   UNK N   1      30.830  17.453   3.419  0.00  0.00    -0.400 OA
HETATM   28  O   UNK N   1      29.395  18.183   5.204  0.00  0.00    -0.398 OA
HETATM   29  O   UNK N   1      30.454  17.384   5.724  0.00  0.00    -0.398 OA
HETATM   30  O   UNK N   1      32.229  16.603   2.657  0.00  0.00    -0.392 OA
HETATM   31  O   UNK N   1      33.993  15.047   5.098  0.00  0.00    -0.391 OA
HETATM   32  O   UNK N   1      32.953  15.385   7.738  0.00  0.00    -0.391 OA
HETATM   33  O   UNK N   1      33.901  15.341   3.477  0.00  0.00    -0.390 OA
HETATM   34  O   UNK N   1      26.697  19.792   6.904  0.00  0.00    -0.390 OA
HETATM   35  O   UNK N   1      29.460  17.576   9.174  0.00  0.00    -0.390 OA
HETATM   36  O   UNK N   1      31.602  16.088   9.311  0.00  0.00    -0.388 OA
HETATM   37  O   UNK N   1      27.570  18.909   8.908  0.00  0.00    -0.388 OA
HETATM   38  O   UNK N   1      31.114  16.774   6.836  0.00  0.00    -0.352 OA
HETATM   39  O   UNK N   1      28.615  18.772   4.821  0.00  0.00    -0.349 OA
HETATM   40  O   UNK N   1      29.103  18.087   7.297  0.00  0.00    -0.348 OA
HETATM   41  O   UNK N   1      30.376  17.014   8.709  0.00  0.00    -0.348 OA
HETATM   42  O   UNK N   1      27.478  19.202   7.287  0.00  0.00    -0.348 OA
HETATM   43  H   UNK N   1      33.354  15.195   7.144  0.00  0.00     0.154 HD
HETATM   44  H   UNK N   1      30.110  17.997   3.065  0.00  0.00     0.209 HD
HETATM   45  H   UNK N   1      29.341  18.356   4.251  0.00  0.00     0.209 HD
HETATM   46  H   UNK N   1      30.191  17.690   4.842  0.00  0.00     0.209 HD
HETATM   47  H   UNK N   1      31.508  17.147   2.303  0.00  0.00     0.210 HD
HETATM   48  H   UNK N   1      34.660  14.675   4.499  0.00  0.00     0.210 HD
HETATM   49  H   UNK N   1      33.229  15.328   6.810  0.00  0.00     0.210 HD
HETATM   50  H   UNK N   1      33.845  15.514   2.524  0.00  0.00     0.210 HD
HETATM   51  H   UNK N   1      27.299  19.297   7.482  0.00  0.00     0.210 HD
HETATM   52  H   UNK N   1      30.173  17.159   8.664  0.00  0.00     0.210 HD
HETATM   53  H   UNK N   1      32.321  15.545   9.665  0.00  0.00     0.210 HD
HETATM   54  H   UNK N   1      27.625  18.736   9.861  0.00  0.00     0.210 HD
ENDROOT
BRANCH  18  55
HETATM   55  O   UNK N   1      26.377  20.351   4.511  0.00  0.00    -0.388 OA
HETATM   56  H   UNK N   1      26.571  21.214   4.113  0.00  0.00     0.210 HD
ENDBRANCH  18  55
BRANCH  23  57
HETATM   57  O   UNK N   1      27.955  19.383   3.710  0.00  0.00    -0.369 OA
HETATM   58  H   UNK N   1      27.289  18.929   3.172  0.00  0.00     0.212 HD
ENDBRANCH  23  57
TORSDOF 8
ENDMDL
MODEL 5
REMARK VINA RESULT:     -13.4      9.373     10.685
REMARK  8 active torsions:
REMARK  status: ('A' for Active; 'I' for Inactive)
REMARK    1  A    between atoms: C_8  and  N_26 
REMARK    2  A    between atoms: C_18  and  O_36 
REMARK    3  A    between atoms: C_23  and  O_39 
REMARK    4  A    between atoms: O_41  and  C_23 
REMARK    5  A    between atoms: O_40  and  C_24 
REMARK    6  A    between atoms: C_24  and  O_43 
REMARK    7  A    between atoms: O_42  and  C_25 
REMARK    8  A    between atoms: C_25  and  O_44 
ROOT
HETATM    1  C   UNK N   1      28.930  18.334   6.186  0.00  0.00     0.042 A 
HETATM    2  C   UNK N   1      27.650  19.369   5.981  0.00  0.00     0.036 A 
HETATM    3  C   UNK N   1      28.699  18.743   4.603  0.00  0.00     0.171 A 
HETATM    4  C   UNK N   1      30.845  16.998   5.017  0.00  0.00     0.198 A 
HETATM    5  C   UNK N   1      29.851  17.612   6.182  0.00  0.00     0.198 A 
HETATM    6  C   UNK N   1      29.046  18.130   6.976  0.00  0.00     0.145 A 
HETATM    7  C   UNK N   1      27.895  19.351   4.767  0.00  0.00     0.042 A 
HETATM    8  C   UNK N   1      27.153  19.676   6.563  0.00  0.00     0.109 A 
HETATM    9  C   UNK N   1      31.342  16.692   4.435  0.00  0.00     0.180 A 
HETATM   10  C   UNK N   1      30.408  17.023   7.233  0.00  0.00     0.180 A 
HETATM   11  C   UNK N   1      28.188  18.660   7.982  0.00  0.00     0.137 A 
HETATM   12  C   UNK N   1      27.282  19.862   4.558  0.00  0.00     0.155 A 
HETATM   13  C   UNK N   1      26.540  20.188   6.356  0.00  0.00     0.171 A 
HETATM   14  C   UNK N   1      28.303  18.456   8.773  0.00  0.00     0.176 A 
HETATM   15  C   UNK N   1      26.424  20.392   5.564  0.00  0.00     0.178 A 
HETATM   16  C   UNK N   1      32.758  15.573   4.480  0.00  0.00     0.183 A 
HETATM   17  C   UNK N   1      31.498  16.084   7.809  0.00  0.00     0.183 A 
HETATM   18  C   UNK N   1      32.336  16.078   3.269  0.00  0.00     0.204 A 
HETATM   19  C   UNK N   1      28.916  17.944   8.981  0.00  0.00     0.204 A 
HETATM   20  C   UNK N   1      31.995  15.777   7.226  0.00  0.00     0.204 A 
HETATM   21  C   UNK N   1      31.899  16.103   5.486  0.00  0.00     0.187 A 
HETATM   22  C   UNK N   1      30.524  16.819   8.024  0.00  0.00     0.187 A 
HETATM   23  C   UNK N   1      31.361  16.813   3.485  0.00  0.00     0.288 A 
HETATM   24  C   UNK N   1      29.107  17.938   7.979  0.00  0.00     0.292 A 
HETATM   25  C   UNK N   1      31.518  16.205   6.858  0.00  0.00     0.292 A 
HETATM   26  N   UNK N   1      27.574  19.171   7.774  0.00  0.00    -0.406 N 
HETATM   27  O   UNK N   1      28.583  18.948   3.813  0.00  0.00    -0.400 OA
HETATM   28  O   UNK N   1      30.232  17.510   4.809  0.00  0.00    -0.398 OA
HETATM   29  O   UNK N   1      29.373  18.040   5.815  0.00  0.00    -0.398 OA
HETATM   30  O   UNK N   1      27.167  20.067   3.768  0.00  0.00    -0.392 OA
HETATM   31  O   UNK N   1      26.042  20.494   6.938  0.00  0.00    -0.391 OA
HETATM   32  O   UNK N   1      27.500  19.063   8.937  0.00  0.00    -0.391 OA
HETATM   33  O   UNK N   1      25.811  20.904   5.357  0.00  0.00    -0.390 OA
HETATM   34  O   UNK N   1      33.009  15.285   5.111  0.00  0.00    -0.390 OA
HETATM   35  O   UNK N   1      30.946  16.403   8.603  0.00  0.00    -0.390 OA
HETATM   36  O   UNK N   1      29.032  17.740   9.772  0.00  0.00    -0.388 OA
HETATM   37  O   UNK N   1      32.608  15.266   7.434  0.00  0.00    -0.388 OA
HETATM   38  O   UNK N   1      28.992  18.142   7.189  0.00  0.00    -0.352 OA
HETATM   39  O   UNK N   1      30.864  17.119   4.067  0.00  0.00    -0.349 OA
HETATM   40  O   UNK N   1      30.905  16.716   6.651  0.00  0.00    -0.348 OA
HETATM   41  O   UNK N   1      30.026  17.126   8.607  0.00  0.00    -0.348 OA
HETATM   42  O   UNK N   1      32.376  15.675   5.853  0.00  0.00    -0.348 OA
HETATM   43  H   UNK N   1      27.021  19.492   8.567  0.00  0.00     0.154 HD
HETATM   44  H   UNK N   1      29.167  18.587   3.128  0.00  0.00     0.209 HD
HETATM   45  H   UNK N   1      30.095  17.750   3.879  0.00  0.00     0.209 HD
HETATM   46  H   UNK N   1      29.440  18.125   4.852  0.00  0.00     0.209 HD
HETATM   47  H   UNK N   1      27.751  19.706   3.083  0.00  0.00     0.210 HD
HETATM   48  H   UNK N   1      25.322  21.096   6.694  0.00  0.00     0.210 HD
HETATM   49  H   UNK N   1      27.069  19.508   8.190  0.00  0.00     0.210 HD
HETATM   50  H   UNK N   1      25.675  21.144   4.426  0.00  0.00     0.210 HD
HETATM   51  H   UNK N   1      32.576  15.504   5.951  0.00  0.00     0.210 HD
HETATM   52  H   UNK N   1      30.201  17.009   8.465  0.00  0.00     0.210 HD
HETATM   53  H   UNK N   1      28.448  18.099  10.457  0.00  0.00     0.210 HD
HETATM   54  H   UNK N   1      32.744  15.026   8.364  0.00  0.00     0.210 HD
ENDROOT
BRANCH  18  55
HETATM   55  O   UNK N   1      32.833  15.771   2.687  0.00  0.00    -0.388 OA
HETATM   56  H   UNK N   1      33.636  15.289   2.940  0.00  0.00     0.210 HD
ENDBRANCH  18  55
BRANCH  23  57
HETATM   57  O   UNK N   1      31.246  17.017   2.694  0.00  0.00    -0.369 OA
HETATM   58  H   UNK N   1      30.907  16.359   2.068  0.00  0.00     0.212 HD
ENDBRANCH  23  57
TORSDOF 8
ENDMDL
MODEL 6
REMARK VINA RESULT:     -13.2     11.290     12.293
REMARK  8 active torsions:
REMARK  status: ('A' for Active; 'I' for Inactive)
REMARK    1  A    between atoms: C_8  and  N_26 
REMARK    2  A    between atoms: C_18  and  O_36 
REMARK    3  A    between atoms: C_23  and  O_39 
REMARK    4  A    between atoms: O_41  and  C_23 
REMARK    5  A    between atoms: O_40  and  C_24 
REMARK    6  A    between atoms: C_24  and  O_43 
REMARK    7  A    between atoms: O_42  and  C_25 
REMARK    8  A    between atoms: C_25  and  O_44 
ROOT
HETATM    1  C   UNK N   1      30.787  17.309   7.149  0.00  0.00     0.042 A 
HETATM    2  C   UNK N   1      29.391  18.031   7.682  0.00  0.00     0.036 A 
HETATM    3  C   UNK N   1      30.779  17.532   8.784  0.00  0.00     0.171 A 
HETATM    4  C   UNK N   1      33.108  16.319   7.821  0.00  0.00     0.198 A 
HETATM    5  C   UNK N   1      31.815  16.800   6.916  0.00  0.00     0.198 A 
HETATM    6  C   UNK N   1      30.791  17.198   6.332  0.00  0.00     0.145 A 
HETATM    7  C   UNK N   1      29.857  17.968   8.828  0.00  0.00     0.042 A 
HETATM    8  C   UNK N   1      28.744  18.271   7.229  0.00  0.00     0.109 A 
HETATM    9  C   UNK N   1      33.754  16.079   8.273  0.00  0.00     0.180 A 
HETATM   10  C   UNK N   1      32.269  16.428   5.726  0.00  0.00     0.180 A 
HETATM   11  C   UNK N   1      29.674  17.613   5.551  0.00  0.00     0.137 A 
HETATM   12  C   UNK N   1      29.206  18.320   9.193  0.00  0.00     0.155 A 
HETATM   13  C   UNK N   1      28.093  18.623   7.594  0.00  0.00     0.171 A 
HETATM   14  C   UNK N   1      29.678  17.501   4.733  0.00  0.00     0.176 A 
HETATM   15  C   UNK N   1      28.089  18.735   8.412  0.00  0.00     0.178 A 
HETATM   16  C   UNK N   1      35.326  15.292   7.865  0.00  0.00     0.183 A 
HETATM   17  C   UNK N   1      33.395  15.790   4.872  0.00  0.00     0.183 A 
HETATM   18  C   UNK N   1      35.048  15.598   9.178  0.00  0.00     0.204 A 
HETATM   19  C   UNK N   1      30.329  17.149   4.368  0.00  0.00     0.204 A 
HETATM   20  C   UNK N   1      34.041  15.549   5.325  0.00  0.00     0.204 A 
HETATM   21  C   UNK N   1      34.209  15.707   7.083  0.00  0.00     0.187 A 
HETATM   22  C   UNK N   1      32.274  16.316   4.909  0.00  0.00     0.187 A 
HETATM   23  C   UNK N   1      33.926  16.125   9.214  0.00  0.00     0.288 A 
HETATM   24  C   UNK N   1      30.701  17.103   5.317  0.00  0.00     0.292 A 
HETATM   25  C   UNK N   1      33.567  15.836   5.814  0.00  0.00     0.292 A 
HETATM   26  N   UNK N   1      29.023  17.965   5.915  0.00  0.00    -0.406 N 
HETATM   27  O   UNK N   1      30.775  17.644   9.602  0.00  0.00    -0.400 OA
HETATM   28  O   UNK N   1      32.456  16.672   8.186  0.00  0.00    -0.398 OA
HETATM   29  O   UNK N   1      31.339  17.087   7.404  0.00  0.00    -0.398 OA
HETATM   30  O   UNK N   1      29.202  18.431  10.010  0.00  0.00    -0.392 OA
HETATM   31  O   UNK N   1      27.447  18.863   7.141  0.00  0.00    -0.391 OA
HETATM   32  O   UNK N   1      28.757  17.936   4.776  0.00  0.00    -0.391 OA
HETATM   33  O   UNK N   1      27.438  19.087   8.776  0.00  0.00    -0.390 OA
HETATM   34  O   UNK N   1      35.507  15.115   7.171  0.00  0.00    -0.390 OA
HETATM   35  O   UNK N   1      32.654  16.047   4.223  0.00  0.00    -0.390 OA
HETATM   36  O   UNK N   1      30.333  17.037   3.551  0.00  0.00    -0.388 OA
HETATM   37  O   UNK N   1      34.692  15.197   4.961  0.00  0.00    -0.388 OA
HETATM   38  O   UNK N   1      30.697  17.215   6.134  0.00  0.00    -0.352 OA
HETATM   39  O   UNK N   1      33.279  16.366   8.762  0.00  0.00    -0.349 OA
HETATM   40  O   UNK N   1      32.916  16.188   6.178  0.00  0.00    -0.348 OA
HETATM   41  O   UNK N   1      31.626  16.557   4.456  0.00  0.00    -0.348 OA
HETATM   42  O   UNK N   1      34.683  15.421   6.595  0.00  0.00    -0.348 OA
HETATM   43  H   UNK N   1      28.280  18.223   5.267  0.00  0.00     0.154 HD
HETATM   44  H   UNK N   1      31.535  17.362  10.134  0.00  0.00     0.209 HD
HETATM   45  H   UNK N   1      32.452  16.803   9.147  0.00  0.00     0.209 HD
HETATM   46  H   UNK N   1      31.567  17.107   8.347  0.00  0.00     0.209 HD
HETATM   47  H   UNK N   1      29.962  18.149  10.542  0.00  0.00     0.210 HD
HETATM   48  H   UNK N   1      26.682  19.277   7.570  0.00  0.00     0.210 HD
HETATM   49  H   UNK N   1      28.394  18.219   5.631  0.00  0.00     0.210 HD
HETATM   50  H   UNK N   1      27.434  19.218   9.738  0.00  0.00     0.210 HD
HETATM   51  H   UNK N   1      34.891  15.305   6.446  0.00  0.00     0.210 HD
HETATM   52  H   UNK N   1      31.844  16.469   4.552  0.00  0.00     0.210 HD
HETATM   53  H   UNK N   1      29.574  17.319   3.019  0.00  0.00     0.210 HD
HETATM   54  H   UNK N   1      34.697  15.066   3.999  0.00  0.00     0.210 HD
ENDROOT
BRANCH  18  55
HETATM   55  O   UNK N   1      35.694  15.359   9.630  0.00  0.00    -0.388 OA
HETATM   56  H   UNK N   1      36.546  15.813   9.539  0.00  0.00     0.210 HD
ENDBRANCH  18  55
BRANCH  23  57
HETATM   57  O   UNK N   1      33.923  16.237  10.032  0.00  0.00    -0.369 OA
HETATM   58  H   UNK N   1      34.201  15.520  10.620  0.00  0.00     0.212 HD
ENDBRANCH  23  57
TORSDOF 8
ENDMDL
MODEL 7
REMARK VINA RESULT:     -13.0     13.893     15.399
REMARK  8 active torsions:
REMARK  status: ('A' for Active; 'I' for Inactive)
REMARK    1  A    between atoms: C_8  and  N_26 
REMARK    2  A    between atoms: C_18  and  O_36 
REMARK    3  A    between atoms: C_23  and  O_39 
REMARK    4  A    between atoms: O_41  and  C_23 
REMARK    5  A    between atoms: O_40  and  C_24 
REMARK    6  A    between atoms: C_24  and  O_43 
REMARK    7  A    between atoms: O_42  and  C_25 
REMARK    8  A    between atoms: C_25  and  O_44 
ROOT
HETATM    1  C   UNK N   1      33.673  15.388   8.172  0.00  0.00     0.042 A 
HETATM    2  C   UNK N   1      32.811  15.504   6.759  0.00  0.00     0.036 A 
HETATM    3  C   UNK N   1      32.967  13.958   7.748  0.00  0.00     0.171 A 
HETATM    4  C   UNK N   1      34.438  13.830  10.123  0.00  0.00     0.198 A 
HETATM    5  C   UNK N   1      34.240  15.164   9.171  0.00  0.00     0.198 A 
HETATM    6  C   UNK N   1      34.026  16.102   8.385  0.00  0.00     0.145 A 
HETATM    7  C   UNK N   1      32.530  14.305   6.893  0.00  0.00     0.042 A 
HETATM    8  C   UNK N   1      32.711  16.170   6.284  0.00  0.00     0.109 A 
HETATM    9  C   UNK N   1      34.537  13.165  10.598  0.00  0.00     0.180 A 
HETATM   10  C   UNK N   1      34.958  16.017   9.891  0.00  0.00     0.180 A 
HETATM   11  C   UNK N   1      33.855  17.254   7.563  0.00  0.00     0.137 A 
HETATM   12  C   UNK N   1      32.077  14.256   6.205  0.00  0.00     0.155 A 
HETATM   13  C   UNK N   1      32.259  16.123   5.595  0.00  0.00     0.171 A 
HETATM   14  C   UNK N   1      34.208  17.969   7.774  0.00  0.00     0.176 A 
HETATM   15  C   UNK N   1      31.906  15.408   5.383  0.00  0.00     0.178 A 
HETATM   16  C   UNK N   1      35.426  12.866  12.141  0.00  0.00     0.183 A 
HETATM   17  C   UNK N   1      35.835  16.295  11.138  0.00  0.00     0.183 A 
HETATM   18  C   UNK N   1      34.735  11.831  11.551  0.00  0.00     0.204 A 
HETATM   19  C   UNK N   1      34.660  18.017   8.463  0.00  0.00     0.204 A 
HETATM   20  C   UNK N   1      35.934  15.629  11.614  0.00  0.00     0.204 A 
HETATM   21  C   UNK N   1      35.255  14.017  11.319  0.00  0.00     0.187 A 
HETATM   22  C   UNK N   1      35.311  16.731  10.104  0.00  0.00     0.187 A 
HETATM   23  C   UNK N   1      34.211  12.267  10.516  0.00  0.00     0.288 A 
HETATM   24  C   UNK N   1      34.421  17.030   8.561  0.00  0.00     0.292 A 
HETATM   25  C   UNK N   1      35.509  15.398  11.055  0.00  0.00     0.292 A 
HETATM   26  N   UNK N   1      33.403  17.206   6.874  0.00  0.00    -0.406 N 
HETATM   27  O   UNK N   1      32.614  13.243   7.535  0.00  0.00    -0.400 OA
HETATM   28  O   UNK N   1      33.985  13.782   9.434  0.00  0.00    -0.398 OA
HETATM   29  O   UNK N   1      33.814  14.934   8.612  0.00  0.00    -0.398 OA
HETATM   30  O   UNK N   1      31.724  13.542   5.992  0.00  0.00    -0.392 OA
HETATM   31  O   UNK N   1      32.160  16.790   5.119  0.00  0.00    -0.391 OA
HETATM   32  O   UNK N   1      33.771  18.315   6.921  0.00  0.00    -0.391 OA
HETATM   33  O   UNK N   1      31.454  15.360   4.694  0.00  0.00    -0.390 OA
HETATM   34  O   UNK N   1      35.806  13.398  12.483  0.00  0.00    -0.390 OA
HETATM   35  O   UNK N   1      35.778  17.174  10.626  0.00  0.00    -0.390 OA
HETATM   36  O   UNK N   1      35.013  18.731   8.675  0.00  0.00    -0.388 OA
HETATM   37  O   UNK N   1      36.386  15.676  12.302  0.00  0.00    -0.388 OA
HETATM   38  O   UNK N   1      34.068  16.316   8.349  0.00  0.00    -0.352 OA
HETATM   39  O   UNK N   1      34.111  12.934  10.040  0.00  0.00    -0.349 OA
HETATM   40  O   UNK N   1      35.057  15.350  10.367  0.00  0.00    -0.348 OA
HETATM   41  O   UNK N   1      35.211  17.398   9.627  0.00  0.00    -0.348 OA
HETATM   42  O   UNK N   1      35.680  14.247  11.877  0.00  0.00    -0.348 OA
HETATM   43  H   UNK N   1      33.344  18.084   6.360  0.00  0.00     0.154 HD
HETATM   44  H   UNK N   1      32.730  12.460   8.094  0.00  0.00     0.209 HD
HETATM   45  H   UNK N   1      33.570  12.942   9.184  0.00  0.00     0.209 HD
HETATM   46  H   UNK N   1      33.513  14.013   8.580  0.00  0.00     0.209 HD
HETATM   47  H   UNK N   1      31.841  12.758   6.552  0.00  0.00     0.210 HD
HETATM   48  H   UNK N   1      31.629  16.733   4.310  0.00  0.00     0.210 HD
HETATM   49  H   UNK N   1      33.239  17.718   6.371  0.00  0.00     0.210 HD
HETATM   50  H   UNK N   1      31.039  14.519   4.445  0.00  0.00     0.210 HD
HETATM   51  H   UNK N   1      35.838  14.291  12.105  0.00  0.00     0.210 HD
HETATM   52  H   UNK N   1      35.269  17.223   9.802  0.00  0.00     0.210 HD
HETATM   53  H   UNK N   1      34.897  19.515   8.117  0.00  0.00     0.210 HD
HETATM   54  H   UNK N   1      36.801  16.517  12.551  0.00  0.00     0.210 HD
ENDROOT
BRANCH  18  55
HETATM   55  O   UNK N   1      34.834  11.165  12.026  0.00  0.00    -0.388 OA
HETATM   56  H   UNK N   1      35.568  10.554  11.858  0.00  0.00     0.210 HD
ENDBRANCH  18  55
BRANCH  23  57
HETATM   57  O   UNK N   1      33.858  11.553  10.304  0.00  0.00    -0.369 OA
HETATM   58  H   UNK N   1      34.264  10.714  10.569  0.00  0.00     0.212 HD
ENDBRANCH  23  57
TORSDOF 8
ENDMDL
MODEL 8
REMARK VINA RESULT:     -13.0      3.388      4.810
REMARK  8 active torsions:
REMARK  status: ('A' for Active; 'I' for Inactive)
REMARK    1  A    between atoms: C_8  and  N_26 
REMARK    2  A    between atoms: C_18  and  O_36 
REMARK    3  A    between atoms: C_23  and  O_39 
REMARK    4  A    between atoms: O_41  and  C_23 
REMARK    5  A    between atoms: O_40  and  C_24 
REMARK    6  A    between atoms: C_24  and  O_43 
REMARK    7  A    between atoms: O_42  and  C_25 
REMARK    8  A    between atoms: C_25  and  O_44 
ROOT
HETATM    1  C   UNK N   1      22.272  18.276   3.908  0.00  0.00     0.042 A 
HETATM    2  C   UNK N   1      20.761  18.549   3.279  0.00  0.00     0.036 A 
HETATM    3  C   UNK N   1      21.199  17.088   4.311  0.00  0.00     0.171 A 
HETATM    4  C   UNK N   1      23.768  16.687   5.342  0.00  0.00     0.198 A 
HETATM    5  C   UNK N   1      23.280  17.959   4.411  0.00  0.00     0.198 A 
HETATM    6  C   UNK N   1      22.808  18.869   3.708  0.00  0.00     0.145 A 
HETATM    7  C   UNK N   1      20.402  17.494   3.818  0.00  0.00     0.042 A 
HETATM    8  C   UNK N   1      20.518  19.185   2.814  0.00  0.00     0.109 A 
HETATM    9  C   UNK N   1      24.011  16.052   5.807  0.00  0.00     0.180 A 
HETATM   10  C   UNK N   1      24.436  18.611   4.363  0.00  0.00     0.180 A 
HETATM   11  C   UNK N   1      22.387  19.968   2.903  0.00  0.00     0.137 A 
HETATM   12  C   UNK N   1      19.622  17.536   3.554  0.00  0.00     0.155 A 
HETATM   13  C   UNK N   1      19.737  19.228   2.549  0.00  0.00     0.171 A 
HETATM   14  C   UNK N   1      22.923  20.561   2.702  0.00  0.00     0.176 A 
HETATM   15  C   UNK N   1      19.201  18.634   2.750  0.00  0.00     0.178 A 
HETATM   16  C   UNK N   1      25.588  15.604   6.564  0.00  0.00     0.183 A 
HETATM   17  C   UNK N   1      25.930  18.699   4.765  0.00  0.00     0.183 A 
HETATM   18  C   UNK N   1      24.499  14.779   6.739  0.00  0.00     0.204 A 
HETATM   19  C   UNK N   1      23.704  20.519   2.967  0.00  0.00     0.204 A 
HETATM   20  C   UNK N   1      26.173  18.063   5.231  0.00  0.00     0.204 A 
HETATM   21  C   UNK N   1      25.167  16.703   5.760  0.00  0.00     0.187 A 
HETATM   22  C   UNK N   1      24.972  19.204   4.163  0.00  0.00     0.187 A 
HETATM   23  C   UNK N   1      23.540  15.284   6.136  0.00  0.00     0.288 A 
HETATM   24  C   UNK N   1      23.395  19.651   3.406  0.00  0.00     0.292 A 
HETATM   25  C   UNK N   1      25.459  17.932   5.094  0.00  0.00     0.292 A 
HETATM   26  N   UNK N   1      21.607  20.011   2.639  0.00  0.00    -0.406 N 
HETATM   27  O   UNK N   1      20.662  16.495   4.512  0.00  0.00    -0.400 OA
HETATM   28  O   UNK N   1      22.987  16.730   5.078  0.00  0.00    -0.398 OA
HETATM   29  O   UNK N   1      22.566  17.828   4.273  0.00  0.00    -0.398 OA
HETATM   30  O   UNK N   1      19.085  16.943   3.755  0.00  0.00    -0.392 OA
HETATM   31  O   UNK N   1      19.494  19.864   2.083  0.00  0.00    -0.391 OA
HETATM   32  O   UNK N   1      22.128  20.966   2.210  0.00  0.00    -0.391 OA
HETATM   33  O   UNK N   1      18.421  18.677   2.485  0.00  0.00    -0.390 OA
HETATM   34  O   UNK N   1      26.190  16.024   6.490  0.00  0.00    -0.390 OA
HETATM   35  O   UNK N   1      25.736  19.523   4.199  0.00  0.00    -0.390 OA
HETATM   36  O   UNK N   1      24.240  21.112   2.765  0.00  0.00    -0.388 OA
HETATM   37  O   UNK N   1      26.954  18.020   5.496  0.00  0.00    -0.388 OA
HETATM   38  O   UNK N   1      22.859  19.058   3.607  0.00  0.00    -0.352 OA
HETATM   39  O   UNK N   1      23.297  15.920   5.670  0.00  0.00    -0.349 OA
HETATM   40  O   UNK N   1      24.679  17.975   4.829  0.00  0.00    -0.348 OA
HETATM   41  O   UNK N   1      24.728  19.840   3.697  0.00  0.00    -0.348 OA
HETATM   42  O   UNK N   1      25.880  16.834   5.897  0.00  0.00    -0.348 OA
HETATM   43  H   UNK N   1      21.410  20.835   2.072  0.00  0.00     0.154 HD
HETATM   44  H   UNK N   1      20.948  15.747   5.059  0.00  0.00     0.209 HD
HETATM   45  H   UNK N   1      22.356  16.032   5.314  0.00  0.00     0.209 HD
HETATM   46  H   UNK N   1      22.141  17.034   4.632  0.00  0.00     0.209 HD
HETATM   47  H   UNK N   1      19.372  16.195   4.302  0.00  0.00     0.210 HD
HETATM   48  H   UNK N   1      18.576  19.914   1.772  0.00  0.00     0.210 HD
HETATM   49  H   UNK N   1      21.268  20.516   2.225  0.00  0.00     0.210 HD
HETATM   50  H   UNK N   1      17.790  17.979   2.722  0.00  0.00     0.210 HD
HETATM   51  H   UNK N   1      26.150  16.844   5.973  0.00  0.00     0.210 HD
HETATM   52  H   UNK N   1      24.847  19.667   3.839  0.00  0.00     0.210 HD
HETATM   53  H   UNK N   1      23.955  21.860   2.219  0.00  0.00     0.210 HD
HETATM   54  H   UNK N   1      27.584  18.719   5.259  0.00  0.00     0.210 HD
ENDROOT
BRANCH  18  55
HETATM   55  O   UNK N   1      24.742  14.144   7.204  0.00  0.00    -0.388 OA
HETATM   56  H   UNK N   1      24.882  13.273   6.800  0.00  0.00     0.210 HD
ENDBRANCH  18  55
BRANCH  23  57
HETATM   57  O   UNK N   1      23.004  14.691   6.337  0.00  0.00    -0.369 OA
HETATM   58  H   UNK N   1      22.513  14.225   5.644  0.00  0.00     0.212 HD
ENDBRANCH  23  57
TORSDOF 8
ENDMDL
MODEL 9
REMARK VINA RESULT:     -12.9      2.318      5.650
REMARK  8 active torsions:
REMARK  status: ('A' for Active; 'I' for Inactive)
REMARK    1  A    between atoms: C_8  and  N_26 
REMARK    2  A    between atoms: C_18  and  O_36 
REMARK    3  A    between atoms: C_23  and  O_39 
REMARK    4  A    between atoms: O_41  and  C_23 
REMARK    5  A    between atoms: O_40  and  C_24 
REMARK    6  A    between atoms: C_24  and  O_43 
REMARK    7  A    between atoms: O_42  and  C_25 
REMARK    8  A    between atoms: C_25  and  O_44 
ROOT
HETATM    1  C   UNK N   1      21.776  16.549   5.148  0.00  0.00     0.042 A 
HETATM    2  C   UNK N   1      22.282  15.357   6.185  0.00  0.00     0.036 A 
HETATM    3  C   UNK N   1      23.368  16.704   5.555  0.00  0.00     0.171 A 
HETATM    4  C   UNK N   1      22.451  18.685   3.806  0.00  0.00     0.198 A 
HETATM    5  C   UNK N   1      21.559  17.442   4.423  0.00  0.00     0.198 A 
HETATM    6  C   UNK N   1      20.981  16.472   4.944  0.00  0.00     0.145 A 
HETATM    7  C   UNK N   1      23.401  15.886   6.165  0.00  0.00     0.042 A 
HETATM    8  C   UNK N   1      21.835  14.735   6.494  0.00  0.00     0.109 A 
HETATM    9  C   UNK N   1      22.897  19.305   3.498  0.00  0.00     0.180 A 
HETATM   10  C   UNK N   1      20.404  17.729   3.835  0.00  0.00     0.180 A 
HETATM   11  C   UNK N   1      20.210  15.398   5.477  0.00  0.00     0.137 A 
HETATM   12  C   UNK N   1      23.751  15.342   6.677  0.00  0.00     0.155 A 
HETATM   13  C   UNK N   1      22.184  14.191   7.006  0.00  0.00     0.171 A 
HETATM   14  C   UNK N   1      19.414  15.320   5.273  0.00  0.00     0.176 A 
HETATM   15  C   UNK N   1      22.980  14.268   7.210  0.00  0.00     0.178 A 
HETATM   16  C   UNK N   1      22.514  20.667   2.377  0.00  0.00     0.183 A 
HETATM   17  C   UNK N   1      19.584  18.648   2.894  0.00  0.00     0.183 A 
HETATM   18  C   UNK N   1      23.790  20.549   2.881  0.00  0.00     0.204 A 
HETATM   19  C   UNK N   1      19.065  15.865   4.760  0.00  0.00     0.204 A 
HETATM   20  C   UNK N   1      20.030  19.270   2.586  0.00  0.00     0.204 A 
HETATM   21  C   UNK N   1      21.743  19.594   2.910  0.00  0.00     0.187 A 
HETATM   22  C   UNK N   1      19.609  17.652   3.631  0.00  0.00     0.187 A 
HETATM   23  C   UNK N   1      23.815  19.552   3.618  0.00  0.00     0.288 A 
HETATM   24  C   UNK N   1      19.992  16.290   4.752  0.00  0.00     0.292 A 
HETATM   25  C   UNK N   1      20.502  18.895   3.014  0.00  0.00     0.292 A 
HETATM   26  N   UNK N   1      20.558  14.854   5.989  0.00  0.00    -0.406 N 
HETATM   27  O   UNK N   1      24.163  16.781   5.760  0.00  0.00    -0.400 OA
HETATM   28  O   UNK N   1      22.801  18.140   4.319  0.00  0.00    -0.398 OA
HETATM   29  O   UNK N   1      22.030  17.067   4.852  0.00  0.00    -0.398 OA
HETATM   30  O   UNK N   1      24.546  15.419   6.881  0.00  0.00    -0.392 OA
HETATM   31  O   UNK N   1      21.738  13.569   7.315  0.00  0.00    -0.391 OA
HETATM   32  O   UNK N   1      19.448  14.503   5.882  0.00  0.00    -0.391 OA
HETATM   33  O   UNK N   1      23.329  13.724   7.722  0.00  0.00    -0.390 OA
HETATM   34  O   UNK N   1      21.841  20.760   2.089  0.00  0.00    -0.390 OA
HETATM   35  O   UNK N   1      18.945  17.923   3.215  0.00  0.00    -0.390 OA
HETATM   36  O   UNK N   1      18.269  15.787   4.557  0.00  0.00    -0.388 OA
HETATM   37  O   UNK N   1      19.682  19.814   2.073  0.00  0.00    -0.388 OA
HETATM   38  O   UNK N   1      20.787  16.368   4.956  0.00  0.00    -0.352 OA
HETATM   39  O   UNK N   1      23.369  18.931   3.927  0.00  0.00    -0.349 OA
HETATM   40  O   UNK N   1      20.850  18.351   3.526  0.00  0.00    -0.348 OA
HETATM   41  O   UNK N   1      19.162  17.030   3.940  0.00  0.00    -0.348 OA
HETATM   42  O   UNK N   1      21.272  19.968   2.482  0.00  0.00    -0.348 OA
HETATM   43  H   UNK N   1      19.921  14.127   6.312  0.00  0.00     0.154 HD
HETATM   44  H   UNK N   1      24.688  17.512   5.397  0.00  0.00     0.209 HD
HETATM   45  H   UNK N   1      23.736  18.231   4.559  0.00  0.00     0.209 HD
HETATM   46  H   UNK N   1      22.949  17.363   4.936  0.00  0.00     0.209 HD
HETATM   47  H   UNK N   1      25.071  16.150   6.519  0.00  0.00     0.210 HD
HETATM   48  H   UNK N   1      22.148  12.930   7.917  0.00  0.00     0.210 HD
HETATM   49  H   UNK N   1      20.276  14.265   6.327  0.00  0.00     0.210 HD
HETATM   50  H   UNK N   1      24.265  13.816   7.962  0.00  0.00     0.210 HD
HETATM   51  H   UNK N   1      21.129  20.138   2.310  0.00  0.00     0.210 HD
HETATM   52  H   UNK N   1      19.258  17.234   3.822  0.00  0.00     0.210 HD
HETATM   53  H   UNK N   1      17.744  15.058   4.918  0.00  0.00     0.210 HD
HETATM   54  H   UNK N   1      18.746  19.722   1.834  0.00  0.00     0.210 HD
ENDROOT
BRANCH  18  55
HETATM   55  O   UNK N   1      24.236  21.170   2.573  0.00  0.00    -0.388 OA
HETATM   56  H   UNK N   1      25.046  20.984   2.072  0.00  0.00     0.210 HD
ENDBRANCH  18  55
BRANCH  23  57
HETATM   57  O   UNK N   1      24.611  19.630   3.822  0.00  0.00    -0.369 OA
HETATM   58  H   UNK N   1      24.993  19.066   4.511  0.00  0.00     0.212 HD
ENDBRANCH  23  57
TORSDOF 8
ENDMDL
