REMARK  8 active torsions:
REMARK  status: ('A' for Active; 'I' for Inactive)
REMARK       I    between atoms: N_1  and  C_2 
REMARK    1  A    between atoms: N_10  and  C_11 
REMARK    2  A    between atoms: C_11  and  C_12 
REMARK    3  A    between atoms: C_12  and  C_13 
REMARK    4  A    between atoms: C_13  and  C_14 
REMARK    5  A    between atoms: C_14  and  C_15 
REMARK    6  A    between atoms: C_15  and  P_18 
REMARK    7  A    between atoms: P_18  and  O_19 
REMARK    8  A    between atoms: P_18  and  O_20 
ROOT
HETATM    1  N   UNK N   1      -5.739   6.184   0.309  0.00  0.00    -0.234 N 
HETATM    2  C   UNK N   1      -5.731   4.786   0.136  0.00  0.00     0.680 A 
HETATM    3  N   UNK N   1      -4.552   4.140  -0.122  0.00  0.00    -0.174 N 
ATOM      4  HN  UNK N   1      -3.674   4.656  -0.190  1.00  0.00     0.186 HD
HETATM    5  C   UNK N   1      -4.587   2.794  -0.286  0.00  0.00     0.156 A 
HETATM    6  C   UNK N   1      -5.723   2.080  -0.209  0.00  0.00     0.147 A 
HETATM    7  N   UNK N   1      -5.458   0.776  -0.429  0.00  0.00    -0.345 N 
ATOM      8  HN  UNK N   1      -6.115  -0.005  -0.430  1.00  0.00     0.167 HD
HETATM    9  C   UNK N   1      -4.115   0.739  -0.651  0.00  0.00     0.185 A 
HETATM   10  N   UNK N   1      -3.570   1.977  -0.559  0.00  0.00    -0.327 N 
HETATM   11  C   UNK N   1      -6.924   2.711   0.051  0.00  0.00     0.290 A 
HETATM   12  O   UNK N   1      -7.967   2.088   0.120  0.00  0.00    -0.265 OA
HETATM   13  N   UNK N   1      -6.907   4.080   0.222  0.00  0.00    -0.154 N 
HETATM   14  H   UNK N   1      -4.896   6.678   0.430  0.00  0.00     0.174 HD
HETATM   15  H   UNK N   1      -6.594   6.671   0.309  0.00  0.00     0.174 HD
HETATM   16  H   UNK N   1      -7.748   4.557   0.409  0.00  0.00     0.187 HD
ENDROOT
BRANCH  10  17
HETATM   17  C   UNK N   1      -2.182   2.327  -0.771  0.00  0.00     0.131 C 
BRANCH  17  18
HETATM   18  C   UNK N   1      -1.493   2.671   0.538  0.00  0.00     0.020 C 
BRANCH  18  19
HETATM   19  C   UNK N   1      -1.084   1.427   1.331  0.00  0.00     0.008 C 
BRANCH  19  20
HETATM   20  C   UNK N   1      -0.264   0.372   0.565  0.00  0.00     0.092 C 
BRANCH  20  21
HETATM   21  C   UNK N   1       0.830   0.870  -0.392  0.00  0.00     0.337 C 
HETATM   22  F   UNK N   1       1.532  -0.228  -0.849  0.00  0.00    -0.193 F 
HETATM   23  F   UNK N   1       0.269   1.492  -1.488  0.00  0.00    -0.193 F 
BRANCH  21  24
HETATM   24  P   UNK N   1       2.035   2.041   0.419  0.00  0.00     0.309 P 
HETATM   25  O   UNK N   1       1.326   3.284   1.019  0.00  0.00    -0.650 OA
BRANCH  24  26
HETATM   26  O   UNK N   1       3.185   2.722  -0.687  0.00  0.00    -0.325 OA
HETATM   27  H   UNK N   1       3.836   2.355  -1.306  0.00  0.00     0.220 HD
ENDBRANCH  24  26
BRANCH  24  28
HETATM   28  O   UNK N   1       2.941   1.380   1.741  0.00  0.00    -0.325 OA
HETATM   29  H   UNK N   1       2.874   0.756   2.481  0.00  0.00     0.220 HD
ENDBRANCH  24  28
ENDBRANCH  21  24
ENDBRANCH  20  21
ENDBRANCH  19  20
ENDBRANCH  18  19
ENDBRANCH  17  18
ENDBRANCH  10  17
TORSDOF 8
