MODEL 1
REMARK VINA RESULT:      -8.9      0.000      0.000
REMARK  9 active torsions:
REMARK  status: ('A' for Active; 'I' for Inactive)
REMARK    1  A    between atoms: O_1  and  C_2 
REMARK    2  A    between atoms: C_2  and  C_4 
REMARK    3  A    between atoms: C_4  and  C_5 
REMARK    4  A    between atoms: C_5  and  C_6 
REMARK    5  A    between atoms: C_6  and  C_7 
REMARK    6  A    between atoms: C_7  and  C_8 
REMARK    7  A    between atoms: C_8  and  C_9 
REMARK    8  A    between atoms: C_9  and  C_10 
REMARK    9  A    between atoms: C_12  and  C_11 
ROOT
HETATM    1  C   UNK N   1      23.565  14.306   4.274  0.00  0.00     0.286 C 
HETATM    2  O   UNK N   1      23.393  15.173   3.202  0.00  0.00    -0.212 OA
HETATM    3 Fe   UNK N   1      21.508  15.121   3.051  0.00  0.00     0.000 Fe
HETATM    4  O   UNK N   1      21.504  13.404   3.918  0.00  0.00    -0.117 OA
HETATM    5  N   UNK N   1      22.826  13.093   3.947  0.00  0.00    -0.127 NA
HETATM    6  C   UNK N   1      23.093  12.049   4.923  0.00  0.00     0.127 C 
HETATM    7  C   UNK N   1      24.093  11.067   4.327  0.00  0.00     0.017 C 
HETATM    8  C   UNK N   1      25.468  11.080   5.002  0.00  0.00     0.004 C 
HETATM    9  C   UNK N   1      26.321  12.307   4.669  0.00  0.00     0.035 C 
HETATM   10  C   UNK N   1      27.081  12.271   3.341  0.00  0.00     0.184 C 
HETATM   11  N   UNK N   1      26.154  12.250   2.241  0.00  0.00    -0.345 N 
HETATM   12  C   UNK N   1      25.635  11.106   1.734  0.00  0.00     0.243 C 
HETATM   13  O   UNK N   1      25.984  10.012   2.164  0.00  0.00    -0.271 OA
HETATM   14  C   UNK N   1      24.583  11.220   0.681  0.00  0.00     0.196 C 
HETATM   15  C   UNK N   1      23.902   9.946   0.279  0.00  0.00     0.205 C 
HETATM   16  O   UNK N   1      22.654  10.341  -0.235  0.00  0.00    -0.360 OA
HETATM   17  C   UNK N   1      22.496  11.702   0.139  0.00  0.00     0.254 C 
HETATM   18  N   UNK N   1      23.493  12.035   1.138  0.00  0.00    -0.379 N 
HETATM   19  C   UNK N   1      21.096  12.005   0.617  0.00  0.00     0.026 A 
HETATM   20  C   UNK N   1      20.113  11.004   0.525  0.00  0.00     0.014 A 
HETATM   21  C   UNK N   1      18.807  11.240   0.957  0.00  0.00     0.001 A 
HETATM   22  C   UNK N   1      18.463  12.478   1.495  0.00  0.00     0.003 A 
HETATM   23  C   UNK N   1      19.429  13.476   1.613  0.00  0.00     0.040 A 
HETATM   24  C   UNK N   1      20.740  13.261   1.173  0.00  0.00     0.117 A 
HETATM   25  O   UNK N   1      21.638  14.249   1.366  0.00  0.00    -0.191 OA
HETATM   26  C   UNK N   1      28.006  13.470   3.207  0.00  0.00     0.281 C 
HETATM   27  O   UNK N   1      29.194  13.262   3.021  0.00  0.00    -0.263 OA
HETATM   28  O   UNK N   1      27.570  14.765   3.271  0.00  0.00    -0.319 OA
HETATM   29  C   UNK N   1      26.273  15.125   3.565  0.00  0.00     0.188 C 
HETATM   30  C   UNK N   1      26.054  16.643   3.507  0.00  0.00     0.129 C 
HETATM   31  C   UNK N   1      25.610  17.201   4.841  0.00  0.00     0.220 C 
HETATM   32  O   UNK N   1      26.355  17.084   5.800  0.00  0.00    -0.274 OA
HETATM   33  N   UNK N   1      24.436  17.872   5.004  0.00  0.00    -0.348 N 
HETATM   34  C   UNK N   1      23.470  18.129   3.955  0.00  0.00     0.179 C 
HETATM   35  C   UNK N   1      23.336  19.666   3.749  0.00  0.00     0.035 C 
HETATM   36  C   UNK N   1      22.150  20.142   2.844  0.00  0.00     0.004 C 
HETATM   37  C   UNK N   1      20.708  19.964   3.424  0.00  0.00     0.022 C 
HETATM   38  C   UNK N   1      20.124  18.523   3.291  0.00  0.00     0.163 C 
HETATM   39  N   UNK N   1      21.208  17.582   3.371  0.00  0.00    -0.190 N 
HETATM   40  O   UNK N   1      21.550  16.871   2.278  0.00  0.00    -0.083 OA
HETATM   41  C   UNK N   1      22.099  17.734   4.379  0.00  0.00     0.268 C 
HETATM   42  O   UNK N   1      21.704  18.132   5.473  0.00  0.00    -0.269 OA
HETATM   43  H   UNK N   1      25.885  13.106   1.837  0.00  0.00     0.163 HD
HETATM   44  H   UNK N   1      23.436  12.666   1.936  0.00  0.00     0.157 HD
HETATM   45  H   UNK N   1      24.227  18.210   5.905  0.00  0.00     0.163 HD
ENDROOT
BRANCH   1  46
HETATM   46  C   UNK N   1      23.043  14.985   5.519  0.00  0.00     0.021 C 
HETATM   47  C   UNK N   1      23.619  14.936   6.728  0.00  0.00    -0.027 C 
BRANCH  47  48
HETATM   48  C   UNK N   1      24.878  14.189   7.039  0.00  0.00     0.027 C 
BRANCH  48  49
HETATM   49  C   UNK N   1      24.797  13.558   8.412  0.00  0.00     0.004 C 
BRANCH  49  50
HETATM   50  C   UNK N   1      24.220  12.158   8.316  0.00  0.00     0.000 C 
BRANCH  50  51
HETATM   51  C   UNK N   1      22.843  12.095   8.960  0.00  0.00     0.001 C 
BRANCH  51  52
HETATM   52  C   UNK N   1      22.770  12.953  10.207  0.00  0.00     0.010 C 
BRANCH  52  53
HETATM   53  C   UNK N   1      22.543  12.058  11.410  0.00  0.00     0.110 C 
BRANCH  53  54
HETATM   54  C   UNK N   1      23.722  12.115  12.321  0.00  0.00     0.139 C 
HETATM   55  O   UNK N   1      23.573  12.048  13.529  0.00  0.00    -0.650 OA
BRANCH  54  56
HETATM   56  O   UNK N   1      24.957  12.245  11.802  0.00  0.00    -0.776 OA
HETATM   57  H   UNK N   1      25.713  12.083  12.332  0.00  0.00     0.167 HD
ENDBRANCH  54  56
ENDBRANCH  53  54
ENDBRANCH  52  53
ENDBRANCH  51  52
ENDBRANCH  50  51
ENDBRANCH  49  50
ENDBRANCH  48  49
ENDBRANCH  47  48
ENDBRANCH   1  46
TORSDOF 9
ENDMDL
MODEL 2
REMARK VINA RESULT:      -8.8      2.010      7.168
REMARK  9 active torsions:
REMARK  status: ('A' for Active; 'I' for Inactive)
REMARK    1  A    between atoms: O_1  and  C_2 
REMARK    2  A    between atoms: C_2  and  C_4 
REMARK    3  A    between atoms: C_4  and  C_5 
REMARK    4  A    between atoms: C_5  and  C_6 
REMARK    5  A    between atoms: C_6  and  C_7 
REMARK    6  A    between atoms: C_7  and  C_8 
REMARK    7  A    between atoms: C_8  and  C_9 
REMARK    8  A    between atoms: C_9  and  C_10 
REMARK    9  A    between atoms: C_12  and  C_11 
ROOT
HETATM    1  C   UNK N   1      24.815  14.353   4.652  0.00  0.00     0.286 C 
HETATM    2  O   UNK N   1      25.417  14.608   3.425  0.00  0.00    -0.212 OA
HETATM    3 Fe   UNK N   1      26.911  15.612   4.008  0.00  0.00     0.000 Fe
HETATM    4  O   UNK N   1      25.948  16.083   5.605  0.00  0.00    -0.117 OA
HETATM    5  N   UNK N   1      24.695  15.638   5.328  0.00  0.00    -0.127 NA
HETATM    6  C   UNK N   1      23.909  15.508   6.544  0.00  0.00     0.127 C 
HETATM    7  C   UNK N   1      22.501  16.022   6.273  0.00  0.00     0.017 C 
HETATM    8  C   UNK N   1      21.420  14.938   6.291  0.00  0.00     0.004 C 
HETATM    9  C   UNK N   1      21.430  14.019   5.065  0.00  0.00     0.035 C 
HETATM   10  C   UNK N   1      20.738  14.551   3.807  0.00  0.00     0.184 C 
HETATM   11  N   UNK N   1      21.434  15.709   3.312  0.00  0.00    -0.345 N 
HETATM   12  C   UNK N   1      21.168  16.968   3.737  0.00  0.00     0.243 C 
HETATM   13  O   UNK N   1      20.265  17.184   4.537  0.00  0.00    -0.271 OA
HETATM   14  C   UNK N   1      22.046  18.072   3.249  0.00  0.00     0.196 C 
HETATM   15  C   UNK N   1      21.839  19.416   3.882  0.00  0.00     0.205 C 
HETATM   16  O   UNK N   1      23.063  20.092   3.719  0.00  0.00    -0.360 OA
HETATM   17  C   UNK N   1      23.999  19.103   3.315  0.00  0.00     0.254 C 
HETATM   18  N   UNK N   1      23.424  17.791   3.538  0.00  0.00    -0.379 N 
HETATM   19  C   UNK N   1      25.331  19.260   4.009  0.00  0.00     0.026 A 
HETATM   20  C   UNK N   1      25.542  20.379   4.835  0.00  0.00     0.014 A 
HETATM   21  C   UNK N   1      26.757  20.562   5.497  0.00  0.00     0.001 A 
HETATM   22  C   UNK N   1      27.778  19.627   5.351  0.00  0.00     0.003 A 
HETATM   23  C   UNK N   1      27.581  18.502   4.554  0.00  0.00     0.040 A 
HETATM   24  C   UNK N   1      26.375  18.309   3.872  0.00  0.00     0.117 A 
HETATM   25  O   UNK N   1      26.230  17.172   3.160  0.00  0.00    -0.191 OA
HETATM   26  C   UNK N   1      20.681  13.487   2.723  0.00  0.00     0.281 C 
HETATM   27  O   UNK N   1      19.589  13.182   2.273  0.00  0.00    -0.263 OA
HETATM   28  O   UNK N   1      21.792  12.869   2.219  0.00  0.00    -0.319 OA
HETATM   29  C   UNK N   1      23.067  13.064   2.705  0.00  0.00     0.188 C 
HETATM   30  C   UNK N   1      24.127  12.290   1.910  0.00  0.00     0.129 C 
HETATM   31  C   UNK N   1      24.866  11.293   2.775  0.00  0.00     0.220 C 
HETATM   32  O   UNK N   1      24.232  10.395   3.302  0.00  0.00    -0.274 OA
HETATM   33  N   UNK N   1      26.217  11.328   2.949  0.00  0.00    -0.348 N 
HETATM   34  C   UNK N   1      27.108  12.304   2.355  0.00  0.00     0.179 C 
HETATM   35  C   UNK N   1      28.104  11.576   1.407  0.00  0.00     0.035 C 
HETATM   36  C   UNK N   1      29.309  12.429   0.882  0.00  0.00     0.004 C 
HETATM   37  C   UNK N   1      30.398  12.828   1.931  0.00  0.00     0.022 C 
HETATM   38  C   UNK N   1      30.027  14.052   2.824  0.00  0.00     0.163 C 
HETATM   39  N   UNK N   1      28.602  14.064   3.014  0.00  0.00    -0.190 N 
HETATM   40  O   UNK N   1      27.866  15.043   2.451  0.00  0.00    -0.083 OA
HETATM   41  C   UNK N   1      28.007  12.903   3.379  0.00  0.00     0.268 C 
HETATM   42  O   UNK N   1      28.604  12.135   4.133  0.00  0.00    -0.269 OA
HETATM   43  H   UNK N   1      22.135  15.582   2.634  0.00  0.00     0.163 HD
HETATM   44  H   UNK N   1      23.870  16.919   3.819  0.00  0.00     0.157 HD
HETATM   45  H   UNK N   1      26.619  10.637   3.522  0.00  0.00     0.163 HD
ENDROOT
BRANCH   1  46
HETATM   46  C   UNK N   1      25.685  13.377   5.411  0.00  0.00     0.021 C 
HETATM   47  C   UNK N   1      25.237  12.350   6.145  0.00  0.00    -0.027 C 
BRANCH  47  48
HETATM   48  C   UNK N   1      23.793  12.009   6.338  0.00  0.00     0.027 C 
BRANCH  48  49
HETATM   49  C   UNK N   1      23.474  11.846   7.807  0.00  0.00     0.004 C 
BRANCH  49  50
HETATM   50  C   UNK N   1      21.974  11.891   8.030  0.00  0.00     0.000 C 
BRANCH  50  51
HETATM   51  C   UNK N   1      21.632  12.740   9.246  0.00  0.00     0.001 C 
BRANCH  51  52
HETATM   52  C   UNK N   1      22.816  12.879  10.181  0.00  0.00     0.010 C 
BRANCH  52  53
HETATM   53  C   UNK N   1      22.506  12.163  11.481  0.00  0.00     0.110 C 
BRANCH  53  54
HETATM   54  C   UNK N   1      23.721  12.118  12.344  0.00  0.00     0.139 C 
HETATM   55  O   UNK N   1      23.615  12.017  13.555  0.00  0.00    -0.650 OA
BRANCH  54  56
HETATM   56  O   UNK N   1      24.940  12.194  11.779  0.00  0.00    -0.776 OA
HETATM   57  H   UNK N   1      25.596  12.757  12.142  0.00  0.00     0.167 HD
ENDBRANCH  54  56
ENDBRANCH  53  54
ENDBRANCH  52  53
ENDBRANCH  51  52
ENDBRANCH  50  51
ENDBRANCH  49  50
ENDBRANCH  48  49
ENDBRANCH  47  48
ENDBRANCH   1  46
TORSDOF 9
ENDMDL
MODEL 3
REMARK VINA RESULT:      -8.6      1.885      4.170
REMARK  9 active torsions:
REMARK  status: ('A' for Active; 'I' for Inactive)
REMARK    1  A    between atoms: O_1  and  C_2 
REMARK    2  A    between atoms: C_2  and  C_4 
REMARK    3  A    between atoms: C_4  and  C_5 
REMARK    4  A    between atoms: C_5  and  C_6 
REMARK    5  A    between atoms: C_6  and  C_7 
REMARK    6  A    between atoms: C_7  and  C_8 
REMARK    7  A    between atoms: C_8  and  C_9 
REMARK    8  A    between atoms: C_9  and  C_10 
REMARK    9  A    between atoms: C_12  and  C_11 
ROOT
HETATM    1  C   UNK N   1      23.310  14.396   4.227  0.00  0.00     0.286 C 
HETATM    2  O   UNK N   1      23.236  14.856   2.918  0.00  0.00    -0.212 OA
HETATM    3 Fe   UNK N   1      22.624  13.282   2.064  0.00  0.00     0.000 Fe
HETATM    4  O   UNK N   1      23.359  12.238   3.503  0.00  0.00    -0.117 OA
HETATM    5  N   UNK N   1      24.082  13.160   4.189  0.00  0.00    -0.127 NA
HETATM    6  C   UNK N   1      24.375  12.695   5.534  0.00  0.00     0.127 C 
HETATM    7  C   UNK N   1      25.815  13.060   5.874  0.00  0.00     0.017 C 
HETATM    8  C   UNK N   1      25.955  14.126   6.965  0.00  0.00     0.004 C 
HETATM    9  C   UNK N   1      25.596  15.543   6.509  0.00  0.00     0.035 C 
HETATM   10  C   UNK N   1      26.683  16.313   5.753  0.00  0.00     0.184 C 
HETATM   11  N   UNK N   1      26.968  15.664   4.501  0.00  0.00    -0.345 N 
HETATM   12  C   UNK N   1      27.880  14.670   4.376  0.00  0.00     0.243 C 
HETATM   13  O   UNK N   1      28.555  14.311   5.333  0.00  0.00    -0.271 OA
HETATM   14  C   UNK N   1      27.993  13.986   3.053  0.00  0.00     0.196 C 
HETATM   15  C   UNK N   1      28.874  12.774   3.004  0.00  0.00     0.205 C 
HETATM   16  O   UNK N   1      28.398  12.015   1.918  0.00  0.00    -0.360 OA
HETATM   17  C   UNK N   1      27.143  12.583   1.572  0.00  0.00     0.254 C 
HETATM   18  N   UNK N   1      26.718  13.472   2.637  0.00  0.00    -0.379 N 
HETATM   19  C   UNK N   1      26.103  11.530   1.270  0.00  0.00     0.026 A 
HETATM   20  C   UNK N   1      26.492  10.179   1.233  0.00  0.00     0.014 A 
HETATM   21  C   UNK N   1      25.564   9.173   0.958  0.00  0.00     0.001 A 
HETATM   22  C   UNK N   1      24.230   9.500   0.725  0.00  0.00     0.003 A 
HETATM   23  C   UNK N   1      23.822  10.832   0.777  0.00  0.00     0.040 A 
HETATM   24  C   UNK N   1      24.742  11.854   1.037  0.00  0.00     0.117 A 
HETATM   25  O   UNK N   1      24.270  13.115   1.128  0.00  0.00    -0.191 OA
HETATM   26  C   UNK N   1      26.259  17.750   5.499  0.00  0.00     0.281 C 
HETATM   27  O   UNK N   1      26.979  18.645   5.912  0.00  0.00    -0.263 OA
HETATM   28  O   UNK N   1      25.121  18.088   4.819  0.00  0.00    -0.319 OA
HETATM   29  C   UNK N   1      24.186  17.174   4.384  0.00  0.00     0.188 C 
HETATM   30  C   UNK N   1      23.043  17.828   3.596  0.00  0.00     0.129 C 
HETATM   31  C   UNK N   1      21.701  17.605   4.259  0.00  0.00     0.220 C 
HETATM   32  O   UNK N   1      21.525  18.044   5.383  0.00  0.00    -0.274 OA
HETATM   33  N   UNK N   1      20.666  16.978   3.633  0.00  0.00    -0.348 N 
HETATM   34  C   UNK N   1      20.707  16.443   2.287  0.00  0.00     0.179 C 
HETATM   35  C   UNK N   1      19.669  17.195   1.406  0.00  0.00     0.035 C 
HETATM   36  C   UNK N   1      19.384  16.579  -0.006  0.00  0.00     0.004 C 
HETATM   37  C   UNK N   1      18.615  15.217  -0.036  0.00  0.00     0.022 C 
HETATM   38  C   UNK N   1      19.499  13.962   0.243  0.00  0.00     0.163 C 
HETATM   39  N   UNK N   1      20.554  14.338   1.145  0.00  0.00    -0.190 N 
HETATM   40  O   UNK N   1      21.826  14.364   0.703  0.00  0.00    -0.083 OA
HETATM   41  C   UNK N   1      20.213  15.039   2.252  0.00  0.00     0.268 C 
HETATM   42  O   UNK N   1      19.143  14.799   2.809  0.00  0.00    -0.269 OA
HETATM   43  H   UNK N   1      26.480  15.957   3.698  0.00  0.00     0.163 HD
HETATM   44  H   UNK N   1      25.783  13.674   2.989  0.00  0.00     0.157 HD
HETATM   45  H   UNK N   1      19.824  16.882   4.133  0.00  0.00     0.163 HD
ENDROOT
BRANCH   1  46
HETATM   46  C   UNK N   1      21.902  14.186   4.735  0.00  0.00     0.021 C 
HETATM   47  C   UNK N   1      21.465  14.501   5.961  0.00  0.00    -0.027 C 
BRANCH  47  48
HETATM   48  C   UNK N   1      22.312  15.112   7.034  0.00  0.00     0.027 C 
BRANCH  48  49
HETATM   49  C   UNK N   1      21.623  15.014   8.376  0.00  0.00     0.004 C 
BRANCH  49  50
HETATM   50  C   UNK N   1      22.027  13.734   9.084  0.00  0.00     0.000 C 
BRANCH  50  51
HETATM   51  C   UNK N   1      20.878  13.192   9.922  0.00  0.00     0.001 C 
BRANCH  51  52
HETATM   52  C   UNK N   1      21.375  12.317  11.054  0.00  0.00     0.010 C 
BRANCH  52  53
HETATM   53  C   UNK N   1      22.777  11.839  10.729  0.00  0.00     0.110 C 
BRANCH  53  54
HETATM   54  C   UNK N   1      23.662  12.006  11.918  0.00  0.00     0.139 C 
HETATM   55  O   UNK N   1      23.211  11.895  13.045  0.00  0.00    -0.650 OA
BRANCH  54  56
HETATM   56  O   UNK N   1      24.968  12.284  11.741  0.00  0.00    -0.776 OA
HETATM   57  H   UNK N   1      25.502  11.727  11.210  0.00  0.00     0.167 HD
ENDBRANCH  54  56
ENDBRANCH  53  54
ENDBRANCH  52  53
ENDBRANCH  51  52
ENDBRANCH  50  51
ENDBRANCH  49  50
ENDBRANCH  48  49
ENDBRANCH  47  48
ENDBRANCH   1  46
TORSDOF 9
ENDMDL
MODEL 4
REMARK VINA RESULT:      -8.6      2.001      6.251
REMARK  9 active torsions:
REMARK  status: ('A' for Active; 'I' for Inactive)
REMARK    1  A    between atoms: O_1  and  C_2 
REMARK    2  A    between atoms: C_2  and  C_4 
REMARK    3  A    between atoms: C_4  and  C_5 
REMARK    4  A    between atoms: C_5  and  C_6 
REMARK    5  A    between atoms: C_6  and  C_7 
REMARK    6  A    between atoms: C_7  and  C_8 
REMARK    7  A    between atoms: C_8  and  C_9 
REMARK    8  A    between atoms: C_9  and  C_10 
REMARK    9  A    between atoms: C_12  and  C_11 
ROOT
HETATM    1  C   UNK N   1      22.384  13.069   4.225  0.00  0.00     0.286 C 
HETATM    2  O   UNK N   1      22.132  13.220   2.867  0.00  0.00    -0.212 OA
HETATM    3 Fe   UNK N   1      23.020  11.684   2.208  0.00  0.00     0.000 Fe
HETATM    4  O   UNK N   1      24.126  11.671   3.781  0.00  0.00    -0.117 OA
HETATM    5  N   UNK N   1      23.820  12.862   4.359  0.00  0.00    -0.127 NA
HETATM    6  C   UNK N   1      24.214  12.877   5.758  0.00  0.00     0.127 C 
HETATM    7  C   UNK N   1      24.830  14.232   6.077  0.00  0.00     0.017 C 
HETATM    8  C   UNK N   1      23.996  15.097   7.026  0.00  0.00     0.004 C 
HETATM    9  C   UNK N   1      22.743  15.703   6.387  0.00  0.00     0.035 C 
HETATM   10  C   UNK N   1      22.945  16.977   5.562  0.00  0.00     0.184 C 
HETATM   11  N   UNK N   1      23.757  16.695   4.408  0.00  0.00    -0.345 N 
HETATM   12  C   UNK N   1      25.111  16.743   4.428  0.00  0.00     0.243 C 
HETATM   13  O   UNK N   1      25.713  17.092   5.437  0.00  0.00    -0.271 OA
HETATM   14  C   UNK N   1      25.846  16.301   3.205  0.00  0.00     0.196 C 
HETATM   15  C   UNK N   1      27.336  16.192   3.328  0.00  0.00     0.205 C 
HETATM   16  O   UNK N   1      27.721  15.269   2.338  0.00  0.00    -0.360 OA
HETATM   17  C   UNK N   1      26.519  14.652   1.898  0.00  0.00     0.254 C 
HETATM   18  N   UNK N   1      25.457  14.971   2.833  0.00  0.00    -0.379 N 
HETATM   19  C   UNK N   1      26.677  13.162   1.711  0.00  0.00     0.026 A 
HETATM   20  C   UNK N   1      27.953  12.588   1.853  0.00  0.00     0.014 A 
HETATM   21  C   UNK N   1      28.144  11.216   1.690  0.00  0.00     0.001 A 
HETATM   22  C   UNK N   1      27.062  10.392   1.390  0.00  0.00     0.003 A 
HETATM   23  C   UNK N   1      25.786  10.939   1.266  0.00  0.00     0.040 A 
HETATM   24  C   UNK N   1      25.579  12.315   1.412  0.00  0.00     0.117 A 
HETATM   25  O   UNK N   1      24.312  12.771   1.332  0.00  0.00    -0.191 OA
HETATM   26  C   UNK N   1      21.613  17.560   5.119  0.00  0.00     0.281 C 
HETATM   27  O   UNK N   1      21.357  18.712   5.430  0.00  0.00    -0.263 OA
HETATM   28  O   UNK N   1      20.697  16.862   4.380  0.00  0.00    -0.319 OA
HETATM   29  C   UNK N   1      20.833  15.533   4.045  0.00  0.00     0.188 C 
HETATM   30  C   UNK N   1      19.687  15.027   3.159  0.00  0.00     0.129 C 
HETATM   31  C   UNK N   1      18.917  13.904   3.818  0.00  0.00     0.220 C 
HETATM   32  O   UNK N   1      18.348  14.127   4.873  0.00  0.00    -0.274 OA
HETATM   33  N   UNK N   1      18.791  12.669   3.256  0.00  0.00    -0.348 N 
HETATM   34  C   UNK N   1      19.369  12.267   1.989  0.00  0.00     0.179 C 
HETATM   35  C   UNK N   1      18.226  11.898   1.000  0.00  0.00     0.035 C 
HETATM   36  C   UNK N   1      18.663  11.191  -0.328  0.00  0.00     0.004 C 
HETATM   37  C   UNK N   1      19.199   9.727  -0.200  0.00  0.00     0.022 C 
HETATM   38  C   UNK N   1      20.688   9.614   0.253  0.00  0.00     0.163 C 
HETATM   39  N   UNK N   1      20.986  10.721   1.121  0.00  0.00    -0.190 N 
HETATM   40  O   UNK N   1      21.836  11.680   0.704  0.00  0.00    -0.083 OA
HETATM   41  C   UNK N   1      20.115  10.985   2.123  0.00  0.00     0.268 C 
HETATM   42  O   UNK N   1      19.545  10.051   2.684  0.00  0.00    -0.269 OA
HETATM   43  H   UNK N   1      23.308  16.456   3.565  0.00  0.00     0.163 HD
HETATM   44  H   UNK N   1      24.662  14.410   3.137  0.00  0.00     0.157 HD
HETATM   45  H   UNK N   1      18.265  11.998   3.747  0.00  0.00     0.163 HD
ENDROOT
BRANCH   1  46
HETATM   46  C   UNK N   1      21.578  11.893   4.727  0.00  0.00     0.021 C 
HETATM   47  C   UNK N   1      20.903  11.853   5.883  0.00  0.00    -0.027 C 
BRANCH  47  48
HETATM   48  C   UNK N   1      20.845  12.974   6.872  0.00  0.00     0.027 C 
BRANCH  48  49
HETATM   49  C   UNK N   1      21.520  12.579   8.167  0.00  0.00     0.004 C 
BRANCH  49  50
HETATM   50  C   UNK N   1      21.046  13.468   9.302  0.00  0.00     0.000 C 
BRANCH  50  51
HETATM   51  C   UNK N   1      21.344  12.829  10.650  0.00  0.00     0.001 C 
BRANCH  51  52
HETATM   52  C   UNK N   1      22.317  11.676  10.519  0.00  0.00     0.010 C 
BRANCH  52  53
HETATM   53  C   UNK N   1      23.520  11.940  11.404  0.00  0.00     0.110 C 
BRANCH  53  54
HETATM   54  C   UNK N   1      24.667  12.419  10.580  0.00  0.00     0.139 C 
HETATM   55  O   UNK N   1      24.712  12.179   9.385  0.00  0.00    -0.650 OA
BRANCH  54  56
HETATM   56  O   UNK N   1      25.659  13.117  11.164  0.00  0.00    -0.776 OA
HETATM   57  H   UNK N   1      25.861  12.985  12.069  0.00  0.00     0.167 HD
ENDBRANCH  54  56
ENDBRANCH  53  54
ENDBRANCH  52  53
ENDBRANCH  51  52
ENDBRANCH  50  51
ENDBRANCH  49  50
ENDBRANCH  48  49
ENDBRANCH  47  48
ENDBRANCH   1  46
TORSDOF 9
ENDMDL
MODEL 5
REMARK VINA RESULT:      -8.3      2.674      6.849
REMARK  9 active torsions:
REMARK  status: ('A' for Active; 'I' for Inactive)
REMARK    1  A    between atoms: O_1  and  C_2 
REMARK    2  A    between atoms: C_2  and  C_4 
REMARK    3  A    between atoms: C_4  and  C_5 
REMARK    4  A    between atoms: C_5  and  C_6 
REMARK    5  A    between atoms: C_6  and  C_7 
REMARK    6  A    between atoms: C_7  and  C_8 
REMARK    7  A    between atoms: C_8  and  C_9 
REMARK    8  A    between atoms: C_9  and  C_10 
REMARK    9  A    between atoms: C_12  and  C_11 
ROOT
HETATM    1  C   UNK N   1      24.104  13.193   4.982  0.00  0.00     0.286 C 
HETATM    2  O   UNK N   1      22.996  12.595   5.570  0.00  0.00    -0.212 OA
HETATM    3 Fe   UNK N   1      23.857  11.214   6.536  0.00  0.00     0.000 Fe
HETATM    4  O   UNK N   1      25.339  11.309   5.314  0.00  0.00    -0.117 OA
HETATM    5  N   UNK N   1      24.859  12.124   4.340  0.00  0.00    -0.127 NA
HETATM    6  C   UNK N   1      25.941  12.669   3.537  0.00  0.00     0.127 C 
HETATM    7  C   UNK N   1      25.522  12.648   2.073  0.00  0.00     0.017 C 
HETATM    8  C   UNK N   1      25.304  14.034   1.459  0.00  0.00     0.004 C 
HETATM    9  C   UNK N   1      24.022  14.732   1.921  0.00  0.00     0.035 C 
HETATM   10  C   UNK N   1      22.727  14.322   1.213  0.00  0.00     0.184 C 
HETATM   11  N   UNK N   1      22.428  12.942   1.490  0.00  0.00    -0.345 N 
HETATM   12  C   UNK N   1      22.912  11.918   0.747  0.00  0.00     0.243 C 
HETATM   13  O   UNK N   1      23.595  12.130  -0.248  0.00  0.00    -0.271 OA
HETATM   14  C   UNK N   1      22.639  10.525   1.212  0.00  0.00     0.196 C 
HETATM   15  C   UNK N   1      23.344   9.427   0.474  0.00  0.00     0.205 C 
HETATM   16  O   UNK N   1      23.404   8.353   1.381  0.00  0.00    -0.360 OA
HETATM   17  C   UNK N   1      23.054   8.896   2.646  0.00  0.00     0.254 C 
HETATM   18  N   UNK N   1      23.090  10.344   2.563  0.00  0.00    -0.379 N 
HETATM   19  C   UNK N   1      23.935   8.373   3.755  0.00  0.00     0.026 A 
HETATM   20  C   UNK N   1      24.869   7.363   3.466  0.00  0.00     0.014 A 
HETATM   21  C   UNK N   1      25.703   6.852   4.461  0.00  0.00     0.001 A 
HETATM   22  C   UNK N   1      25.624   7.347   5.760  0.00  0.00     0.003 A 
HETATM   23  C   UNK N   1      24.719   8.363   6.062  0.00  0.00     0.040 A 
HETATM   24  C   UNK N   1      23.865   8.877   5.080  0.00  0.00     0.117 A 
HETATM   25  O   UNK N   1      23.051   9.896   5.426  0.00  0.00    -0.191 OA
HETATM   26  C   UNK N   1      21.564  15.196   1.651  0.00  0.00     0.281 C 
HETATM   27  O   UNK N   1      20.946  15.804   0.792  0.00  0.00    -0.263 OA
HETATM   28  O   UNK N   1      21.168  15.322   2.954  0.00  0.00    -0.319 OA
HETATM   29  C   UNK N   1      21.839  14.758   4.018  0.00  0.00     0.188 C 
HETATM   30  C   UNK N   1      21.137  15.009   5.359  0.00  0.00     0.129 C 
HETATM   31  C   UNK N   1      22.012  15.786   6.317  0.00  0.00     0.220 C 
HETATM   32  O   UNK N   1      22.373  16.907   6.001  0.00  0.00    -0.274 OA
HETATM   33  N   UNK N   1      22.371  15.305   7.540  0.00  0.00    -0.348 N 
HETATM   34  C   UNK N   1      21.986  14.015   8.075  0.00  0.00     0.179 C 
HETATM   35  C   UNK N   1      21.127  14.228   9.355  0.00  0.00     0.035 C 
HETATM   36  C   UNK N   1      20.842  12.951  10.217  0.00  0.00     0.004 C 
HETATM   37  C   UNK N   1      22.059  12.332  10.979  0.00  0.00     0.022 C 
HETATM   38  C   UNK N   1      22.989  11.433  10.105  0.00  0.00     0.163 C 
HETATM   39  N   UNK N   1      22.981  11.942   8.761  0.00  0.00    -0.190 N 
HETATM   40  O   UNK N   1      22.404  11.218   7.781  0.00  0.00    -0.083 OA
HETATM   41  C   UNK N   1      23.168  13.272   8.591  0.00  0.00     0.268 C 
HETATM   42  O   UNK N   1      23.931  13.872   9.346  0.00  0.00    -0.269 OA
HETATM   43  H   UNK N   1      21.843  12.733   2.254  0.00  0.00     0.163 HD
HETATM   44  H   UNK N   1      23.358  11.033   3.263  0.00  0.00     0.157 HD
HETATM   45  H   UNK N   1      22.937  15.879   8.106  0.00  0.00     0.163 HD
ENDROOT
BRANCH   1  46
HETATM   46  C   UNK N   1      24.894  13.892   6.065  0.00  0.00     0.021 C 
HETATM   47  C   UNK N   1      25.474  15.093   5.947  0.00  0.00    -0.027 C 
BRANCH  47  48
HETATM   48  C   UNK N   1      25.438  15.937   4.712  0.00  0.00     0.027 C 
BRANCH  48  49
HETATM   49  C   UNK N   1      26.834  16.146   4.167  0.00  0.00     0.004 C 
BRANCH  49  50
HETATM   50  C   UNK N   1      26.952  17.519   3.532  0.00  0.00     0.000 C 
BRANCH  50  51
HETATM   51  C   UNK N   1      26.942  18.609   4.593  0.00  0.00     0.001 C 
BRANCH  51  52
HETATM   52  C   UNK N   1      26.408  19.917   4.045  0.00  0.00     0.010 C 
BRANCH  52  53
HETATM   53  C   UNK N   1      24.892  19.865   4.034  0.00  0.00     0.110 C 
BRANCH  53  54
HETATM   54  C   UNK N   1      24.363  20.624   2.865  0.00  0.00     0.139 C 
HETATM   55  O   UNK N   1      25.047  20.780   1.868  0.00  0.00    -0.650 OA
BRANCH  54  56
HETATM   56  O   UNK N   1      23.122  21.144   2.916  0.00  0.00    -0.776 OA
HETATM   57  H   UNK N   1      22.375  20.602   2.751  0.00  0.00     0.167 HD
ENDBRANCH  54  56
ENDBRANCH  53  54
ENDBRANCH  52  53
ENDBRANCH  51  52
ENDBRANCH  50  51
ENDBRANCH  49  50
ENDBRANCH  48  49
ENDBRANCH  47  48
ENDBRANCH   1  46
TORSDOF 9
ENDMDL
MODEL 6
REMARK VINA RESULT:      -8.1     10.669     14.406
REMARK  9 active torsions:
REMARK  status: ('A' for Active; 'I' for Inactive)
REMARK    1  A    between atoms: O_1  and  C_2 
REMARK    2  A    between atoms: C_2  and  C_4 
REMARK    3  A    between atoms: C_4  and  C_5 
REMARK    4  A    between atoms: C_5  and  C_6 
REMARK    5  A    between atoms: C_6  and  C_7 
REMARK    6  A    between atoms: C_7  and  C_8 
REMARK    7  A    between atoms: C_8  and  C_9 
REMARK    8  A    between atoms: C_9  and  C_10 
REMARK    9  A    between atoms: C_12  and  C_11 
ROOT
HETATM    1  C   UNK N   1      35.370  11.209   9.334  0.00  0.00     0.286 C 
HETATM    2  O   UNK N   1      33.982  11.146   9.361  0.00  0.00    -0.212 OA
HETATM    3 Fe   UNK N   1      33.637  10.992   7.507  0.00  0.00     0.000 Fe
HETATM    4  O   UNK N   1      35.334  11.819   7.141  0.00  0.00    -0.117 OA
HETATM    5  N   UNK N   1      35.719  12.246   8.371  0.00  0.00    -0.127 NA
HETATM    6  C   UNK N   1      37.146  12.520   8.404  0.00  0.00     0.127 C 
HETATM    7  C   UNK N   1      37.379  13.800   9.195  0.00  0.00     0.017 C 
HETATM    8  C   UNK N   1      38.098  13.594  10.532  0.00  0.00     0.004 C 
HETATM    9  C   UNK N   1      37.229  12.958  11.622  0.00  0.00     0.035 C 
HETATM   10  C   UNK N   1      36.290  13.899  12.382  0.00  0.00     0.184 C 
HETATM   11  N   UNK N   1      35.298  14.436  11.490  0.00  0.00    -0.345 N 
HETATM   12  C   UNK N   1      35.493  15.560  10.759  0.00  0.00     0.243 C 
HETATM   13  O   UNK N   1      36.523  16.213  10.872  0.00  0.00    -0.271 OA
HETATM   14  C   UNK N   1      34.441  15.944   9.771  0.00  0.00     0.196 C 
HETATM   15  C   UNK N   1      34.774  17.082   8.854  0.00  0.00     0.205 C 
HETATM   16  O   UNK N   1      33.963  16.892   7.720  0.00  0.00    -0.360 OA
HETATM   17  C   UNK N   1      33.443  15.575   7.834  0.00  0.00     0.254 C 
HETATM   18  N   UNK N   1      34.183  14.864   8.860  0.00  0.00    -0.379 N 
HETATM   19  C   UNK N   1      33.460  14.838   6.516  0.00  0.00     0.026 A 
HETATM   20  C   UNK N   1      33.839  15.530   5.352  0.00  0.00     0.014 A 
HETATM   21  C   UNK N   1      33.869  14.888   4.114  0.00  0.00     0.001 A 
HETATM   22  C   UNK N   1      33.528  13.541   4.018  0.00  0.00     0.003 A 
HETATM   23  C   UNK N   1      33.170  12.833   5.164  0.00  0.00     0.040 A 
HETATM   24  C   UNK N   1      33.120  13.464   6.411  0.00  0.00     0.117 A 
HETATM   25  O   UNK N   1      32.818  12.708   7.487  0.00  0.00    -0.191 OA
HETATM   26  C   UNK N   1      35.607  13.178  13.533  0.00  0.00     0.281 C 
HETATM   27  O   UNK N   1      35.740  13.633  14.657  0.00  0.00    -0.263 OA
HETATM   28  O   UNK N   1      34.841  12.057  13.367  0.00  0.00    -0.319 OA
HETATM   29  C   UNK N   1      34.690  11.401  12.164  0.00  0.00     0.188 C 
HETATM   30  C   UNK N   1      33.726  10.212  12.257  0.00  0.00     0.129 C 
HETATM   31  C   UNK N   1      34.406   8.905  11.913  0.00  0.00     0.220 C 
HETATM   32  O   UNK N   1      35.341   8.534  12.601  0.00  0.00    -0.274 OA
HETATM   33  N   UNK N   1      33.985   8.102  10.895  0.00  0.00    -0.348 N 
HETATM   34  C   UNK N   1      32.865   8.384  10.020  0.00  0.00     0.179 C 
HETATM   35  C   UNK N   1      31.783   7.281  10.203  0.00  0.00     0.035 C 
HETATM   36  C   UNK N   1      30.620   7.271   9.154  0.00  0.00     0.004 C 
HETATM   37  C   UNK N   1      30.993   6.844   7.696  0.00  0.00     0.022 C 
HETATM   38  C   UNK N   1      31.651   7.967   6.835  0.00  0.00     0.163 C 
HETATM   39  N   UNK N   1      32.412   8.822   7.704  0.00  0.00    -0.190 N 
HETATM   40  O   UNK N   1      32.000  10.088   7.915  0.00  0.00    -0.083 OA
HETATM   41  C   UNK N   1      33.249   8.233   8.590  0.00  0.00     0.268 C 
HETATM   42  O   UNK N   1      33.838   7.203   8.265  0.00  0.00    -0.269 OA
HETATM   43  H   UNK N   1      34.437  13.966  11.407  0.00  0.00     0.163 HD
HETATM   44  H   UNK N   1      34.443  13.881   8.918  0.00  0.00     0.157 HD
HETATM   45  H   UNK N   1      34.479   7.265  10.744  0.00  0.00     0.163 HD
ENDROOT
BRANCH   1  46
HETATM   46  C   UNK N   1      35.898   9.849   8.939  0.00  0.00     0.021 C 
HETATM   47  C   UNK N   1      36.955   9.238   9.490  0.00  0.00    -0.027 C 
BRANCH  47  48
HETATM   48  C   UNK N   1      37.792   9.814  10.588  0.00  0.00     0.027 C 
BRANCH  48  49
HETATM   49  C   UNK N   1      38.749   8.776  11.130  0.00  0.00     0.004 C 
BRANCH  49  50
HETATM   50  C   UNK N   1      38.751   8.801  12.647  0.00  0.00     0.000 C 
BRANCH  50  51
HETATM   51  C   UNK N   1      38.057  10.051  13.168  0.00  0.00     0.001 C 
BRANCH  51  52
HETATM   52  C   UNK N   1      38.410  10.323  14.616  0.00  0.00     0.010 C 
BRANCH  52  53
HETATM   53  C   UNK N   1      37.565   9.434  15.507  0.00  0.00     0.110 C 
BRANCH  53  54
HETATM   54  C   UNK N   1      36.312  10.141  15.896  0.00  0.00     0.139 C 
HETATM   55  O   UNK N   1      36.343  11.054  16.704  0.00  0.00    -0.650 OA
BRANCH  54  56
HETATM   56  O   UNK N   1      35.139   9.765  15.352  0.00  0.00    -0.776 OA
HETATM   57  H   UNK N   1      34.652  10.361  14.818  0.00  0.00     0.167 HD
ENDBRANCH  54  56
ENDBRANCH  53  54
ENDBRANCH  52  53
ENDBRANCH  51  52
ENDBRANCH  50  51
ENDBRANCH  49  50
ENDBRANCH  48  49
ENDBRANCH  47  48
ENDBRANCH   1  46
TORSDOF 9
ENDMDL
MODEL 7
REMARK VINA RESULT:      -8.0     14.849     18.852
REMARK  9 active torsions:
REMARK  status: ('A' for Active; 'I' for Inactive)
REMARK    1  A    between atoms: O_1  and  C_2 
REMARK    2  A    between atoms: C_2  and  C_4 
REMARK    3  A    between atoms: C_4  and  C_5 
REMARK    4  A    between atoms: C_5  and  C_6 
REMARK    5  A    between atoms: C_6  and  C_7 
REMARK    6  A    between atoms: C_7  and  C_8 
REMARK    7  A    between atoms: C_8  and  C_9 
REMARK    8  A    between atoms: C_9  and  C_10 
REMARK    9  A    between atoms: C_12  and  C_11 
ROOT
HETATM    1  C   UNK N   1      29.304  26.234  -7.854  0.00  0.00     0.286 C 
HETATM    2  O   UNK N   1      28.770  27.327  -8.526  0.00  0.00    -0.212 OA
HETATM    3 Fe   UNK N   1      29.935  28.682  -7.905  0.00  0.00     0.000 Fe
HETATM    4  O   UNK N   1      30.322  27.613  -6.354  0.00  0.00    -0.117 OA
HETATM    5  N   UNK N   1      29.401  26.619  -6.452  0.00  0.00    -0.127 NA
HETATM    6  C   UNK N   1      29.777  25.479  -5.631  0.00  0.00     0.127 C 
HETATM    7  C   UNK N   1      28.531  24.945  -4.937  0.00  0.00     0.017 C 
HETATM    8  C   UNK N   1      28.084  23.562  -5.419  0.00  0.00     0.004 C 
HETATM    9  C   UNK N   1      27.437  23.558  -6.807  0.00  0.00     0.035 C 
HETATM   10  C   UNK N   1      25.958  23.951  -6.872  0.00  0.00     0.184 C 
HETATM   11  N   UNK N   1      25.793  25.323  -6.474  0.00  0.00    -0.345 N 
HETATM   12  C   UNK N   1      25.621  25.702  -5.184  0.00  0.00     0.243 C 
HETATM   13  O   UNK N   1      25.541  24.869  -4.289  0.00  0.00    -0.271 OA
HETATM   14  C   UNK N   1      25.593  27.165  -4.882  0.00  0.00     0.196 C 
HETATM   15  C   UNK N   1      25.589  27.544  -3.431  0.00  0.00     0.205 C 
HETATM   16  O   UNK N   1      26.122  28.845  -3.389  0.00  0.00    -0.360 OA
HETATM   17  C   UNK N   1      26.688  29.072  -4.671  0.00  0.00     0.254 C 
HETATM   18  N   UNK N   1      26.777  27.808  -5.377  0.00  0.00    -0.379 N 
HETATM   19  C   UNK N   1      28.027  29.767  -4.590  0.00  0.00     0.026 A 
HETATM   20  C   UNK N   1      28.489  30.212  -3.339  0.00  0.00     0.014 A 
HETATM   21  C   UNK N   1      29.720  30.858  -3.218  0.00  0.00     0.001 A 
HETATM   22  C   UNK N   1      30.514  31.062  -4.344  0.00  0.00     0.003 A 
HETATM   23  C   UNK N   1      30.082  30.609  -5.590  0.00  0.00     0.040 A 
HETATM   24  C   UNK N   1      28.844  29.973  -5.731  0.00  0.00     0.117 A 
HETATM   25  O   UNK N   1      28.512  29.511  -6.955  0.00  0.00    -0.191 OA
HETATM   26  C   UNK N   1      25.401  23.754  -8.272  0.00  0.00     0.281 C 
HETATM   27  O   UNK N   1      24.430  23.028  -8.409  0.00  0.00    -0.263 OA
HETATM   28  O   UNK N   1      25.924  24.362  -9.381  0.00  0.00    -0.319 OA
HETATM   29  C   UNK N   1      27.067  25.131  -9.367  0.00  0.00     0.188 C 
HETATM   30  C   UNK N   1      27.386  25.739 -10.739  0.00  0.00     0.129 C 
HETATM   31  C   UNK N   1      28.727  25.275 -11.265  0.00  0.00     0.220 C 
HETATM   32  O   UNK N   1      28.895  24.084 -11.465  0.00  0.00    -0.274 OA
HETATM   33  N   UNK N   1      29.736  26.137 -11.571  0.00  0.00    -0.348 N 
HETATM   34  C   UNK N   1      29.673  27.578 -11.430  0.00  0.00     0.179 C 
HETATM   35  C   UNK N   1      29.830  28.236 -12.832  0.00  0.00     0.035 C 
HETATM   36  C   UNK N   1      30.051  29.787 -12.847  0.00  0.00     0.004 C 
HETATM   37  C   UNK N   1      31.424  30.306 -12.307  0.00  0.00     0.022 C 
HETATM   38  C   UNK N   1      31.524  30.390 -10.751  0.00  0.00     0.163 C 
HETATM   39  N   UNK N   1      30.713  29.347 -10.185  0.00  0.00    -0.190 N 
HETATM   40  O   UNK N   1      29.594  29.671  -9.508  0.00  0.00    -0.083 OA
HETATM   41  C   UNK N   1      30.854  28.098 -10.689  0.00  0.00     0.268 C 
HETATM   42  O   UNK N   1      31.967  27.721 -11.054  0.00  0.00    -0.269 OA
HETATM   43  H   UNK N   1      25.804  26.019  -7.170  0.00  0.00     0.163 HD
HETATM   44  H   UNK N   1      27.479  27.473  -6.036  0.00  0.00     0.157 HD
HETATM   45  H   UNK N   1      30.573  25.752 -11.915  0.00  0.00     0.163 HD
ENDROOT
BRANCH   1  46
HETATM   46  C   UNK N   1      30.650  25.917  -8.464  0.00  0.00     0.021 C 
HETATM   47  C   UNK N   1      31.114  24.687  -8.721  0.00  0.00    -0.027 C 
BRANCH  47  48
HETATM   48  C   UNK N   1      30.368  23.421  -8.435  0.00  0.00     0.027 C 
BRANCH  48  49
HETATM   49  C   UNK N   1      31.101  22.591  -7.405  0.00  0.00     0.004 C 
BRANCH  49  50
HETATM   50  C   UNK N   1      30.569  21.170  -7.398  0.00  0.00     0.000 C 
BRANCH  50  51
HETATM   51  C   UNK N   1      30.488  20.630  -5.978  0.00  0.00     0.001 C 
BRANCH  51  52
HETATM   52  C   UNK N   1      31.107  21.587  -4.980  0.00  0.00     0.010 C 
BRANCH  52  53
HETATM   53  C   UNK N   1      30.413  21.422  -3.642  0.00  0.00     0.110 C 
BRANCH  53  54
HETATM   54  C   UNK N   1      31.235  22.037  -2.560  0.00  0.00     0.139 C 
HETATM   55  O   UNK N   1      32.372  21.647  -2.350  0.00  0.00    -0.650 OA
BRANCH  54  56
HETATM   56  O   UNK N   1      30.714  23.026  -1.810  0.00  0.00    -0.776 OA
HETATM   57  H   UNK N   1      31.193  23.369  -1.081  0.00  0.00     0.167 HD
ENDBRANCH  54  56
ENDBRANCH  53  54
ENDBRANCH  52  53
ENDBRANCH  51  52
ENDBRANCH  50  51
ENDBRANCH  49  50
ENDBRANCH  48  49
ENDBRANCH  47  48
ENDBRANCH   1  46
TORSDOF 9
ENDMDL
MODEL 8
REMARK VINA RESULT:      -7.9     10.566     14.868
REMARK  9 active torsions:
REMARK  status: ('A' for Active; 'I' for Inactive)
REMARK    1  A    between atoms: O_1  and  C_2 
REMARK    2  A    between atoms: C_2  and  C_4 
REMARK    3  A    between atoms: C_4  and  C_5 
REMARK    4  A    between atoms: C_5  and  C_6 
REMARK    5  A    between atoms: C_6  and  C_7 
REMARK    6  A    between atoms: C_7  and  C_8 
REMARK    7  A    between atoms: C_8  and  C_9 
REMARK    8  A    between atoms: C_9  and  C_10 
REMARK    9  A    between atoms: C_12  and  C_11 
ROOT
HETATM    1  C   UNK N   1      35.426  11.337   9.149  0.00  0.00     0.286 C 
HETATM    2  O   UNK N   1      34.043  11.227   9.237  0.00  0.00    -0.212 OA
HETATM    3 Fe   UNK N   1      33.619  11.090   7.398  0.00  0.00     0.000 Fe
HETATM    4  O   UNK N   1      35.270  11.978   6.970  0.00  0.00    -0.117 OA
HETATM    5  N   UNK N   1      35.696  12.399   8.188  0.00  0.00    -0.127 NA
HETATM    6  C   UNK N   1      37.114  12.719   8.162  0.00  0.00     0.127 C 
HETATM    7  C   UNK N   1      37.342  13.994   8.963  0.00  0.00     0.017 C 
HETATM    8  C   UNK N   1      38.127  13.790  10.262  0.00  0.00     0.004 C 
HETATM    9  C   UNK N   1      37.330  13.110  11.379  0.00  0.00     0.035 C 
HETATM   10  C   UNK N   1      36.398  14.008  12.197  0.00  0.00     0.184 C 
HETATM   11  N   UNK N   1      35.349  14.526  11.359  0.00  0.00    -0.345 N 
HETATM   12  C   UNK N   1      35.474  15.667  10.640  0.00  0.00     0.243 C 
HETATM   13  O   UNK N   1      36.487  16.352  10.717  0.00  0.00    -0.271 OA
HETATM   14  C   UNK N   1      34.366  16.031   9.706  0.00  0.00     0.196 C 
HETATM   15  C   UNK N   1      34.621  17.194   8.794  0.00  0.00     0.205 C 
HETATM   16  O   UNK N   1      33.765  16.994   7.695  0.00  0.00    -0.360 OA
HETATM   17  C   UNK N   1      33.293  15.659   7.811  0.00  0.00     0.254 C 
HETATM   18  N   UNK N   1      34.101  14.958   8.790  0.00  0.00    -0.379 N 
HETATM   19  C   UNK N   1      33.273  14.944   6.481  0.00  0.00     0.026 A 
HETATM   20  C   UNK N   1      33.576  15.665   5.313  0.00  0.00     0.014 A 
HETATM   21  C   UNK N   1      33.570  15.044   4.064  0.00  0.00     0.001 A 
HETATM   22  C   UNK N   1      33.269  13.688   3.962  0.00  0.00     0.003 A 
HETATM   23  C   UNK N   1      32.986  12.951   5.110  0.00  0.00     0.040 A 
HETATM   24  C   UNK N   1      32.974  13.561   6.369  0.00  0.00     0.117 A 
HETATM   25  O   UNK N   1      32.745  12.779   7.444  0.00  0.00    -0.191 OA
HETATM   26  C   UNK N   1      35.791  13.248  13.365  0.00  0.00     0.281 C 
HETATM   27  O   UNK N   1      35.961  13.689  14.490  0.00  0.00    -0.263 OA
HETATM   28  O   UNK N   1      35.055  12.105  13.215  0.00  0.00    -0.319 OA
HETATM   29  C   UNK N   1      34.870  11.463  12.009  0.00  0.00     0.188 C 
HETATM   30  C   UNK N   1      33.950  10.241  12.126  0.00  0.00     0.129 C 
HETATM   31  C   UNK N   1      34.655   8.963  11.729  0.00  0.00     0.220 C 
HETATM   32  O   UNK N   1      35.632   8.612  12.368  0.00  0.00    -0.274 OA
HETATM   33  N   UNK N   1      34.213   8.162  10.719  0.00  0.00    -0.348 N 
HETATM   34  C   UNK N   1      33.046   8.421   9.900  0.00  0.00     0.179 C 
HETATM   35  C   UNK N   1      32.009   7.280  10.113  0.00  0.00     0.035 C 
HETATM   36  C   UNK N   1      30.801   7.248   9.117  0.00  0.00     0.004 C 
HETATM   37  C   UNK N   1      31.120   6.856   7.637  0.00  0.00     0.022 C 
HETATM   38  C   UNK N   1      31.702   8.013   6.766  0.00  0.00     0.163 C 
HETATM   39  N   UNK N   1      32.474   8.879   7.614  0.00  0.00    -0.190 N 
HETATM   40  O   UNK N   1      32.032  10.128   7.865  0.00  0.00    -0.083 OA
HETATM   41  C   UNK N   1      33.370   8.304   8.451  0.00  0.00     0.268 C 
HETATM   42  O   UNK N   1      33.975   7.299   8.083  0.00  0.00    -0.269 OA
HETATM   43  H   UNK N   1      34.501  14.029  11.307  0.00  0.00     0.163 HD
HETATM   44  H   UNK N   1      34.396  13.983   8.820  0.00  0.00     0.157 HD
HETATM   45  H   UNK N   1      34.727   7.344  10.531  0.00  0.00     0.163 HD
ENDROOT
BRANCH   1  46
HETATM   46  C   UNK N   1      35.978  10.000   8.707  0.00  0.00     0.021 C 
HETATM   47  C   UNK N   1      37.103   9.437   9.167  0.00  0.00    -0.027 C 
BRANCH  47  48
HETATM   48  C   UNK N   1      38.003  10.051  10.193  0.00  0.00     0.027 C 
BRANCH  48  49
HETATM   49  C   UNK N   1      39.452   9.753   9.879  0.00  0.00     0.004 C 
BRANCH  49  50
HETATM   50  C   UNK N   1      39.846  10.388   8.559  0.00  0.00     0.000 C 
BRANCH  50  51
HETATM   51  C   UNK N   1      40.692  11.632   8.788  0.00  0.00     0.001 C 
BRANCH  51  52
HETATM   52  C   UNK N   1      41.465  12.019   7.544  0.00  0.00     0.010 C 
BRANCH  52  53
HETATM   53  C   UNK N   1      40.519  12.678   6.559  0.00  0.00     0.110 C 
BRANCH  53  54
HETATM   54  C   UNK N   1      40.851  14.125   6.421  0.00  0.00     0.139 C 
HETATM   55  O   UNK N   1      40.283  14.957   7.108  0.00  0.00    -0.650 OA
BRANCH  54  56
HETATM   56  O   UNK N   1      41.780  14.512   5.527  0.00  0.00    -0.776 OA
HETATM   57  H   UNK N   1      41.523  14.909   4.718  0.00  0.00     0.167 HD
ENDBRANCH  54  56
ENDBRANCH  53  54
ENDBRANCH  52  53
ENDBRANCH  51  52
ENDBRANCH  50  51
ENDBRANCH  49  50
ENDBRANCH  48  49
ENDBRANCH  47  48
ENDBRANCH   1  46
TORSDOF 9
ENDMDL
MODEL 9
REMARK VINA RESULT:      -7.9     14.527     17.427
REMARK  9 active torsions:
REMARK  status: ('A' for Active; 'I' for Inactive)
REMARK    1  A    between atoms: O_1  and  C_2 
REMARK    2  A    between atoms: C_2  and  C_4 
REMARK    3  A    between atoms: C_4  and  C_5 
REMARK    4  A    between atoms: C_5  and  C_6 
REMARK    5  A    between atoms: C_6  and  C_7 
REMARK    6  A    between atoms: C_7  and  C_8 
REMARK    7  A    between atoms: C_8  and  C_9 
REMARK    8  A    between atoms: C_9  and  C_10 
REMARK    9  A    between atoms: C_12  and  C_11 
ROOT
HETATM    1  C   UNK N   1      30.222  23.890  -7.259  0.00  0.00     0.286 C 
HETATM    2  O   UNK N   1      30.353  22.598  -6.763  0.00  0.00    -0.212 OA
HETATM    3 Fe   UNK N   1      31.735  21.965  -7.890  0.00  0.00     0.000 Fe
HETATM    4  O   UNK N   1      31.244  23.283  -9.201  0.00  0.00    -0.117 OA
HETATM    5  N   UNK N   1      30.076  23.765  -8.704  0.00  0.00    -0.127 NA
HETATM    6  C   UNK N   1      29.746  25.049  -9.300  0.00  0.00     0.127 C 
HETATM    7  C   UNK N   1      28.254  25.079  -9.600  0.00  0.00     0.017 C 
HETATM    8  C   UNK N   1      27.457  26.064  -8.739  0.00  0.00     0.004 C 
HETATM    9  C   UNK N   1      27.260  25.614  -7.288  0.00  0.00     0.035 C 
HETATM   10  C   UNK N   1      26.124  24.620  -7.030  0.00  0.00     0.184 C 
HETATM   11  N   UNK N   1      26.399  23.372  -7.690  0.00  0.00    -0.345 N 
HETATM   12  C   UNK N   1      26.044  23.123  -8.974  0.00  0.00     0.243 C 
HETATM   13  O   UNK N   1      25.411  23.946  -9.623  0.00  0.00    -0.271 OA
HETATM   14  C   UNK N   1      26.501  21.841  -9.590  0.00  0.00     0.196 C 
HETATM   15  C   UNK N   1      26.250  21.683 -11.060  0.00  0.00     0.205 C 
HETATM   16  O   UNK N   1      27.211  20.753 -11.499  0.00  0.00    -0.360 OA
HETATM   17  C   UNK N   1      28.145  20.632 -10.436  0.00  0.00     0.254 C 
HETATM   18  N   UNK N   1      27.927  21.711  -9.492  0.00  0.00    -0.379 N 
HETATM   19  C   UNK N   1      29.571  20.595 -10.931  0.00  0.00     0.026 A 
HETATM   20  C   UNK N   1      29.812  20.552 -12.316  0.00  0.00     0.014 A 
HETATM   21  C   UNK N   1      31.114  20.518 -12.816  0.00  0.00     0.001 A 
HETATM   22  C   UNK N   1      32.198  20.535 -11.942  0.00  0.00     0.003 A 
HETATM   23  C   UNK N   1      31.980  20.597 -10.567  0.00  0.00     0.040 A 
HETATM   24  C   UNK N   1      30.681  20.617 -10.047  0.00  0.00     0.117 A 
HETATM   25  O   UNK N   1      30.541  20.733  -8.710  0.00  0.00    -0.191 OA
HETATM   26  C   UNK N   1      25.936  24.380  -5.541  0.00  0.00     0.281 C 
HETATM   27  O   UNK N   1      24.837  24.597  -5.057  0.00  0.00    -0.263 OA
HETATM   28  O   UNK N   1      26.932  23.921  -4.723  0.00  0.00    -0.319 OA
HETATM   29  C   UNK N   1      28.233  23.726  -5.132  0.00  0.00     0.188 C 
HETATM   30  C   UNK N   1      29.120  23.146  -4.023  0.00  0.00     0.129 C 
HETATM   31  C   UNK N   1      30.266  24.070  -3.674  0.00  0.00     0.220 C 
HETATM   32  O   UNK N   1      30.010  25.182  -3.245  0.00  0.00    -0.274 OA
HETATM   33  N   UNK N   1      31.572  23.693  -3.774  0.00  0.00    -0.348 N 
HETATM   34  C   UNK N   1      32.033  22.395  -4.224  0.00  0.00     0.179 C 
HETATM   35  C   UNK N   1      32.804  21.697  -3.066  0.00  0.00     0.035 C 
HETATM   36  C   UNK N   1      33.600  20.403  -3.447  0.00  0.00     0.004 C 
HETATM   37  C   UNK N   1      34.865  20.596  -4.347  0.00  0.00     0.022 C 
HETATM   38  C   UNK N   1      34.565  20.760  -5.869  0.00  0.00     0.163 C 
HETATM   39  N   UNK N   1      33.294  21.416  -6.016  0.00  0.00    -0.190 N 
HETATM   40  O   UNK N   1      32.249  20.732  -6.520  0.00  0.00    -0.083 OA
HETATM   41  C   UNK N   1      33.074  22.531  -5.278  0.00  0.00     0.268 C 
HETATM   42  O   UNK N   1      34.010  23.299  -5.059  0.00  0.00    -0.269 OA
HETATM   43  H   UNK N   1      26.866  22.667  -7.186  0.00  0.00     0.163 HD
HETATM   44  H   UNK N   1      28.596  22.228  -8.923  0.00  0.00     0.157 HD
HETATM   45  H   UNK N   1      32.255  24.353  -3.519  0.00  0.00     0.163 HD
ENDROOT
BRANCH   1  46
HETATM   46  C   UNK N   1      31.452  24.674  -6.866  0.00  0.00     0.021 C 
HETATM   47  C   UNK N   1      31.455  25.933  -6.408  0.00  0.00    -0.027 C 
BRANCH  47  48
HETATM   48  C   UNK N   1      30.230  26.771  -6.219  0.00  0.00     0.027 C 
BRANCH  48  49
HETATM   49  C   UNK N   1      30.269  27.984  -7.122  0.00  0.00     0.004 C 
BRANCH  49  50
HETATM   50  C   UNK N   1      29.614  29.171  -6.440  0.00  0.00     0.000 C 
BRANCH  50  51
HETATM   51  C   UNK N   1      28.102  29.122  -6.603  0.00  0.00     0.001 C 
BRANCH  51  52
HETATM   52  C   UNK N   1      27.390  29.373  -5.289  0.00  0.00     0.010 C 
BRANCH  52  53
HETATM   53  C   UNK N   1      26.308  28.328  -5.106  0.00  0.00     0.110 C 
BRANCH  53  54
HETATM   54  C   UNK N   1      26.531  27.575  -3.838  0.00  0.00     0.139 C 
HETATM   55  O   UNK N   1      25.727  27.651  -2.925  0.00  0.00    -0.650 OA
BRANCH  54  56
HETATM   56  O   UNK N   1      27.632  26.812  -3.703  0.00  0.00    -0.776 OA
HETATM   57  H   UNK N   1      28.430  27.053  -4.130  0.00  0.00     0.167 HD
ENDBRANCH  54  56
ENDBRANCH  53  54
ENDBRANCH  52  53
ENDBRANCH  51  52
ENDBRANCH  50  51
ENDBRANCH  49  50
ENDBRANCH  48  49
ENDBRANCH  47  48
ENDBRANCH   1  46
TORSDOF 9
ENDMDL
