REMARK  15 active torsions:
REMARK  status: ('A' for Active; 'I' for Inactive)
REMARK    1  A    between atoms: C_14  and  C_6 
REMARK    2  A    between atoms: C_6  and  O_25 
REMARK    3  A    between atoms: C_7  and  N_21 
REMARK    4  A    between atoms: C_8  and  N_22 
REMARK    5  A    between atoms: C_9  and  N_23 
REMARK    6  A    between atoms: C_10  and  O_26 
REMARK    7  A    between atoms: C_11  and  O_27 
REMARK    8  A    between atoms: C_12  and  O_28 
REMARK    9  A    between atoms: C_13  and  O_29 
REMARK   10  A    between atoms: C_15  and  O_33 
REMARK   11  A    between atoms: C_16  and  O_34 
REMARK   12  A    between atoms: C_17  and  N_24 
REMARK   13  A    between atoms: C_18  and  O_33 
REMARK   14  A    between atoms: C_19  and  O_34 
REMARK   15  A    between atoms: C_20  and  O_30 
ROOT
HETATM    1  C   UNK N   1       0.825   4.718  -0.759  0.00  0.00     0.054 C 
HETATM    2  C   UNK N   1      -0.112   5.138   0.372  0.00  0.00     0.107 C 
HETATM    3  C   UNK N   1       1.429   3.309  -0.514  0.00  0.00     0.107 C 
HETATM    4  C   UNK N   1      -0.951   2.705   0.115  0.00  0.00     0.180 C 
HETATM    5  C   UNK N   1      -1.329   4.171   0.516  0.00  0.00     0.178 C 
HETATM    6  C   UNK N   1       0.539   2.422   0.412  0.00  0.00     0.178 C 
ENDROOT
BRANCH   5   7
HETATM    7  O   UNK N   1      -2.438   4.630  -0.260  0.00  0.00    -0.349 OA
BRANCH   7   8
HETATM    8  C   UNK N   1      -3.662   4.076   0.199  0.00  0.00     0.285 C 
HETATM    9  C   UNK N   1      -4.843   4.810  -0.463  0.00  0.00     0.161 C 
HETATM   10  C   UNK N   1      -6.156   4.176   0.026  0.00  0.00     0.176 C 
HETATM   11  C   UNK N   1      -6.136   2.661  -0.242  0.00  0.00     0.180 C 
HETATM   12  C   UNK N   1      -4.852   2.067   0.388  0.00  0.00     0.184 C 
HETATM   13  O   UNK N   1      -3.725   2.706  -0.173  0.00  0.00    -0.349 OA
BRANCH   9  14
HETATM   14  N   UNK N   1      -4.814   6.225  -0.121  0.00  0.00    -0.420 N 
HETATM   15  H   UNK N   1      -3.945   6.703   0.119  0.00  0.00     0.150 HD
HETATM   16  H   UNK N   1      -5.686   6.754  -0.121  0.00  0.00     0.150 HD
ENDBRANCH   9  14
BRANCH  10  17
HETATM   17  O   UNK N   1      -7.250   4.762  -0.616  0.00  0.00    -0.391 OA
HETATM   18  H   UNK N   1      -7.277   5.623  -1.062  0.00  0.00     0.210 HD
ENDBRANCH  10  17
BRANCH  11  19
HETATM   19  O   UNK N   1      -7.278   2.072   0.302  0.00  0.00    -0.390 OA
HETATM   20  H   UNK N   1      -8.030   2.554   0.680  0.00  0.00     0.210 HD
ENDBRANCH  11  19
BRANCH  12  21
HETATM   21  C   UNK N   1      -4.694   0.549   0.165  0.00  0.00     0.145 C 
HETATM   22  C   UNK N   1      -4.622   0.191  -1.312  0.00  0.00     0.042 C 
BRANCH  21  23
HETATM   23  O   UNK N   1      -5.740  -0.154   0.761  0.00  0.00    -0.393 OA
HETATM   24  H   UNK N   1      -6.528   0.232   1.176  0.00  0.00     0.210 HD
ENDBRANCH  21  23
ENDBRANCH  12  21
ENDBRANCH   7   8
ENDBRANCH   5   7
BRANCH   2  25
HETATM   25  N   UNK N   1      -0.546   6.516   0.203  0.00  0.00    -0.423 N 
HETATM   26  H   UNK N   1       0.139   7.262   0.084  0.00  0.00     0.150 HD
HETATM   27  H   UNK N   1      -1.542   6.737   0.203  0.00  0.00     0.150 HD
ENDBRANCH   2  25
BRANCH   4  28
HETATM   28  O   UNK N   1      -1.203   2.559  -1.255  0.00  0.00    -0.390 OA
HETATM   29  H   UNK N   1      -1.378   2.660  -2.204  0.00  0.00     0.210 HD
ENDBRANCH   4  28
BRANCH   6  30
HETATM   30  O   UNK N   1       0.914   1.039   0.465  0.00  0.00    -0.349 OA
BRANCH  30  31
HETATM   31  C   UNK N   1       0.780   0.315  -0.751  0.00  0.00     0.291 C 
HETATM   32  C   UNK N   1       0.409  -1.161  -0.470  0.00  0.00     0.198 C 
HETATM   33  C   UNK N   1       1.570  -1.990   0.136  0.00  0.00     0.146 C 
HETATM   34  C   UNK N   1       2.937  -1.373  -0.266  0.00  0.00     0.098 C 
HETATM   35  C   UNK N   1       4.021  -2.434  -0.332  0.00  0.00     0.050 C 
HETATM   36  C   UNK N   1       2.784  -0.694  -1.625  0.00  0.00     0.210 C 
HETATM   37  O   UNK N   1       1.960   0.466  -1.548  0.00  0.00    -0.356 OA
BRANCH  32  38
HETATM   38  O   UNK N   1      -0.766  -1.278   0.281  0.00  0.00    -0.388 OA
HETATM   39  H   UNK N   1      -1.243  -0.613   0.802  0.00  0.00     0.210 HD
ENDBRANCH  32  38
BRANCH  33  40
HETATM   40  N   UNK N   1       1.453  -2.102   1.596  0.00  0.00    -0.416 N 
HETATM   41  C   UNK N   1       2.149  -3.299   2.057  0.00  0.00     0.140 C 
HETATM   42  H   UNK N   1       0.959  -1.442   2.197  0.00  0.00     0.153 HD
ENDBRANCH  33  40
BRANCH  34  43
HETATM   43  O   UNK N   1       3.330  -0.400   0.659  0.00  0.00    -0.386 OA
HETATM   44  H   UNK N   1       4.051  -0.299   1.300  0.00  0.00     0.210 HD
ENDBRANCH  34  43
ENDBRANCH  30  31
ENDBRANCH   6  30
BRANCH   3  45
HETATM   45  N   UNK N   1       2.765   3.425   0.047  0.00  0.00    -0.423 N 
HETATM   46  H   UNK N   1       3.304   2.654   0.441  0.00  0.00     0.150 HD
HETATM   47  H   UNK N   1       3.196   4.349   0.047  0.00  0.00     0.150 HD
ENDBRANCH   3  45
TORSDOF 15
