MODEL 1
REMARK VINA RESULT:      -5.5      0.000      0.000
REMARK  9 active torsions:
REMARK  status: ('A' for Active; 'I' for Inactive)
REMARK    1  A    between atoms: S_2  and  C_3 
REMARK    2  A    between atoms: C_3  and  S_4 
REMARK    3  A    between atoms: S_4  and  C_6 
REMARK    4  A    between atoms: C_6  and  C_7 
REMARK    5  A    between atoms: C_7  and  C_8 
REMARK    6  A    between atoms: C_7  and  N_10 
REMARK    7  A    between atoms: C_8  and  O_9 
REMARK       I    between atoms: N_10  and  C_11 
REMARK    8  A    between atoms: C_11  and  C_13 
REMARK    9  A    between atoms: C_14  and  C_15 
ROOT
HETATM    1  N   UNK N   1      29.873  23.596  -5.080  0.00  0.00    -0.350 N 
HETATM    2  C   UNK N   1      28.951  23.902  -6.033  0.00  0.00     0.241 C 
HETATM    3  O   UNK N   1      29.273  24.641  -6.949  0.00  0.00    -0.269 OA
HETATM    4  H   UNK N   1      30.777  23.969  -5.193  0.00  0.00     0.163 HD
ENDROOT
BRANCH   2   5
HETATM    5  C   UNK N   1      27.588  23.314  -5.992  0.00  0.00     0.075 C 
HETATM    6  C   UNK N   1      26.466  23.906  -5.551  0.00  0.00     0.024 C 
BRANCH   6   7
HETATM    7  C   UNK N   1      26.363  25.255  -4.941  0.00  0.00     0.054 A 
HETATM    8  C   UNK N   1      26.102  26.392  -5.728  0.00  0.00     0.025 A 
HETATM    9  C   UNK N   1      25.981  26.293  -7.211  0.00  0.00     0.069 C 
HETATM   10  N   UNK N   1      25.945  27.606  -5.134  0.00  0.00    -0.312 N 
HETATM   11  C   UNK N   1      26.034  27.746  -3.775  0.00  0.00     0.327 A 
HETATM   12  H   UNK N   1      25.765  28.396  -5.692  0.00  0.00     0.170 HD
HETATM   13  O   UNK N   1      25.872  28.838  -3.264  0.00  0.00    -0.247 OA
HETATM   14  N   UNK N   1      26.296  26.656  -2.992  0.00  0.00    -0.275 N 
HETATM   15  C   UNK N   1      26.461  25.416  -3.549  0.00  0.00     0.261 A 
HETATM   16  H   UNK N   1      26.368  26.764  -2.015  0.00  0.00     0.173 HD
HETATM   17  O   UNK N   1      26.675  24.457  -2.828  0.00  0.00    -0.267 OA
ENDBRANCH   6   7
ENDBRANCH   2   5
BRANCH   1  18
HETATM   18  C   UNK N   1      29.640  22.765  -3.908  0.00  0.00     0.119 C 
BRANCH  18  19
HETATM   19  C   UNK N   1      30.367  21.426  -4.025  0.00  0.00     0.136 C 
BRANCH  19  20
HETATM   20  S   UNK N   1      31.786  21.413  -5.198  0.00  0.00     0.026 S 
HETATM   21  O   UNK N   1      32.722  22.262  -4.321  0.00  0.00    -0.257 OA
BRANCH  20  22
HETATM   22  C   UNK N   1      32.428  19.874  -4.472  0.00  0.00     0.181 C 
BRANCH  22  23
HETATM   23  S   UNK N   1      34.198  20.042  -4.094  0.00  0.00    -0.161 SA
HETATM   24  C   UNK N   1      34.512  18.286  -4.418  0.00  0.00     0.090 C 
ENDBRANCH  22  23
ENDBRANCH  20  22
ENDBRANCH  19  20
ENDBRANCH  18  19
BRANCH  18  25
HETATM   25  C   UNK N   1      29.963  23.477  -2.597  0.00  0.00     0.190 C 
BRANCH  25  26
HETATM   26  O   UNK N   1      30.969  22.795  -1.914  0.00  0.00    -0.399 OA
HETATM   27  H   UNK N   1      31.895  22.676  -2.180  0.00  0.00     0.209 HD
ENDBRANCH  25  26
ENDBRANCH  18  25
ENDBRANCH   1  18
TORSDOF 9
ENDMDL
MODEL 2
REMARK VINA RESULT:      -5.5     10.398     11.851
REMARK  9 active torsions:
REMARK  status: ('A' for Active; 'I' for Inactive)
REMARK    1  A    between atoms: S_2  and  C_3 
REMARK    2  A    between atoms: C_3  and  S_4 
REMARK    3  A    between atoms: S_4  and  C_6 
REMARK    4  A    between atoms: C_6  and  C_7 
REMARK    5  A    between atoms: C_7  and  C_8 
REMARK    6  A    between atoms: C_7  and  N_10 
REMARK    7  A    between atoms: C_8  and  O_9 
REMARK       I    between atoms: N_10  and  C_11 
REMARK    8  A    between atoms: C_11  and  C_13 
REMARK    9  A    between atoms: C_14  and  C_15 
ROOT
HETATM    1  N   UNK N   1      27.814  19.166   7.141  0.00  0.00    -0.350 N 
HETATM    2  C   UNK N   1      27.636  19.796   5.948  0.00  0.00     0.241 C 
HETATM    3  O   UNK N   1      27.194  20.934   5.942  0.00  0.00    -0.269 OA
HETATM    4  H   UNK N   1      27.600  19.677   7.956  0.00  0.00     0.163 HD
ENDROOT
BRANCH   2   5
HETATM    5  C   UNK N   1      28.014  19.136   4.673  0.00  0.00     0.075 C 
HETATM    6  C   UNK N   1      27.210  18.875   3.629  0.00  0.00     0.024 C 
BRANCH   6   7
HETATM    7  C   UNK N   1      25.749  19.127   3.558  0.00  0.00     0.054 A 
HETATM    8  C   UNK N   1      24.830  18.260   4.178  0.00  0.00     0.025 A 
HETATM    9  C   UNK N   1      25.285  17.023   4.876  0.00  0.00     0.069 C 
HETATM   10  N   UNK N   1      23.502  18.551   4.155  0.00  0.00    -0.312 N 
HETATM   11  C   UNK N   1      23.036  19.681   3.539  0.00  0.00     0.327 A 
HETATM   12  H   UNK N   1      22.865  17.939   4.588  0.00  0.00     0.170 HD
HETATM   13  O   UNK N   1      21.845  19.932   3.546  0.00  0.00    -0.247 OA
HETATM   14  N   UNK N   1      23.910  20.533   2.922  0.00  0.00    -0.275 N 
HETATM   15  C   UNK N   1      25.255  20.277   2.922  0.00  0.00     0.261 A 
HETATM   16  H   UNK N   1      23.569  21.340   2.472  0.00  0.00     0.173 HD
HETATM   17  O   UNK N   1      26.016  21.061   2.381  0.00  0.00    -0.267 OA
ENDBRANCH   6   7
ENDBRANCH   2   5
BRANCH   1  18
HETATM   18  C   UNK N   1      28.291  17.803   7.319  0.00  0.00     0.119 C 
BRANCH  18  19
HETATM   19  C   UNK N   1      29.818  17.755   7.379  0.00  0.00     0.136 C 
BRANCH  19  20
HETATM   20  S   UNK N   1      30.597  16.477   6.305  0.00  0.00     0.026 S 
HETATM   21  O   UNK N   1      31.203  17.468   5.297  0.00  0.00    -0.257 OA
BRANCH  20  22
HETATM   22  C   UNK N   1      32.114  16.498   7.307  0.00  0.00     0.181 C 
BRANCH  22  23
HETATM   23  S   UNK N   1      33.441  17.376   6.428  0.00  0.00    -0.161 SA
HETATM   24  C   UNK N   1      33.987  18.219   7.938  0.00  0.00     0.090 C 
ENDBRANCH  22  23
ENDBRANCH  20  22
ENDBRANCH  19  20
ENDBRANCH  18  19
BRANCH  18  25
HETATM   25  C   UNK N   1      27.651  17.096   8.511  0.00  0.00     0.190 C 
BRANCH  25  26
HETATM   26  O   UNK N   1      27.423  18.005   9.544  0.00  0.00    -0.399 OA
HETATM   27  H   UNK N   1      27.951  18.139  10.347  0.00  0.00     0.209 HD
ENDBRANCH  25  26
ENDBRANCH  18  25
ENDBRANCH   1  18
TORSDOF 9
ENDMDL
MODEL 3
REMARK VINA RESULT:      -5.4     11.302     14.623
REMARK  9 active torsions:
REMARK  status: ('A' for Active; 'I' for Inactive)
REMARK    1  A    between atoms: S_2  and  C_3 
REMARK    2  A    between atoms: C_3  and  S_4 
REMARK    3  A    between atoms: S_4  and  C_6 
REMARK    4  A    between atoms: C_6  and  C_7 
REMARK    5  A    between atoms: C_7  and  C_8 
REMARK    6  A    between atoms: C_7  and  N_10 
REMARK    7  A    between atoms: C_8  and  O_9 
REMARK       I    between atoms: N_10  and  C_11 
REMARK    8  A    between atoms: C_11  and  C_13 
REMARK    9  A    between atoms: C_14  and  C_15 
ROOT
HETATM    1  N   UNK N   1      30.207  16.717   8.037  0.00  0.00    -0.350 N 
HETATM    2  C   UNK N   1      31.525  16.418   7.881  0.00  0.00     0.241 C 
HETATM    3  O   UNK N   1      31.868  15.247   7.870  0.00  0.00    -0.269 OA
HETATM    4  H   UNK N   1      29.580  15.960   8.107  0.00  0.00     0.163 HD
ENDROOT
BRANCH   2   5
HETATM    5  C   UNK N   1      32.531  17.492   7.680  0.00  0.00     0.075 C 
HETATM    6  C   UNK N   1      33.297  17.687   6.593  0.00  0.00     0.024 C 
BRANCH   6   7
HETATM    7  C   UNK N   1      33.351  16.824   5.387  0.00  0.00     0.054 A 
HETATM    8  C   UNK N   1      34.214  15.714   5.325  0.00  0.00     0.025 A 
HETATM    9  C   UNK N   1      35.149  15.399   6.444  0.00  0.00     0.069 C 
HETATM   10  N   UNK N   1      34.194  14.901   4.235  0.00  0.00    -0.312 N 
HETATM   11  C   UNK N   1      33.344  15.139   3.189  0.00  0.00     0.327 A 
HETATM   12  H   UNK N   1      34.802  14.128   4.199  0.00  0.00     0.170 HD
HETATM   13  O   UNK N   1      33.331  14.388   2.233  0.00  0.00    -0.247 OA
HETATM   14  N   UNK N   1      32.504  16.218   3.224  0.00  0.00    -0.275 N 
HETATM   15  C   UNK N   1      32.492  17.062   4.303  0.00  0.00     0.261 A 
HETATM   16  H   UNK N   1      31.901  16.390   2.465  0.00  0.00     0.173 HD
HETATM   17  O   UNK N   1      31.720  18.006   4.318  0.00  0.00    -0.267 OA
ENDBRANCH   6   7
ENDBRANCH   2   5
BRANCH   1  18
HETATM   18  C   UNK N   1      29.641  18.055   8.111  0.00  0.00     0.119 C 
BRANCH  18  19
HETATM   19  C   UNK N   1      28.690  18.319   6.945  0.00  0.00     0.136 C 
BRANCH  19  20
HETATM   20  S   UNK N   1      28.200  16.824   5.988  0.00  0.00     0.026 S 
HETATM   21  O   UNK N   1      27.156  16.325   7.001  0.00  0.00    -0.257 OA
BRANCH  20  22
HETATM   22  C   UNK N   1      26.936  17.765   5.081  0.00  0.00     0.181 C 
BRANCH  22  23
HETATM   23  S   UNK N   1      26.961  19.511   5.587  0.00  0.00    -0.161 SA
HETATM   24  C   UNK N   1      26.878  20.089   3.870  0.00  0.00     0.090 C 
ENDBRANCH  22  23
ENDBRANCH  20  22
ENDBRANCH  19  20
ENDBRANCH  18  19
BRANCH  18  25
HETATM   25  C   UNK N   1      28.990  18.355   9.458  0.00  0.00     0.190 C 
BRANCH  25  26
HETATM   26  O   UNK N   1      27.604  18.237   9.360  0.00  0.00    -0.399 OA
HETATM   27  H   UNK N   1      26.950  18.274  10.076  0.00  0.00     0.209 HD
ENDBRANCH  25  26
ENDBRANCH  18  25
ENDBRANCH   1  18
TORSDOF 9
ENDMDL
MODEL 4
REMARK VINA RESULT:      -5.3     12.201     15.290
REMARK  9 active torsions:
REMARK  status: ('A' for Active; 'I' for Inactive)
REMARK    1  A    between atoms: S_2  and  C_3 
REMARK    2  A    between atoms: C_3  and  S_4 
REMARK    3  A    between atoms: S_4  and  C_6 
REMARK    4  A    between atoms: C_6  and  C_7 
REMARK    5  A    between atoms: C_7  and  C_8 
REMARK    6  A    between atoms: C_7  and  N_10 
REMARK    7  A    between atoms: C_8  and  O_9 
REMARK       I    between atoms: N_10  and  C_11 
REMARK    8  A    between atoms: C_11  and  C_13 
REMARK    9  A    between atoms: C_14  and  C_15 
ROOT
HETATM    1  N   UNK N   1      29.701  16.469   6.835  0.00  0.00    -0.350 N 
HETATM    2  C   UNK N   1      30.803  16.065   6.146  0.00  0.00     0.241 C 
HETATM    3  O   UNK N   1      31.014  14.869   6.020  0.00  0.00    -0.269 OA
HETATM    4  H   UNK N   1      29.104  15.767   7.181  0.00  0.00     0.163 HD
ENDROOT
BRANCH   2   5
HETATM    5  C   UNK N   1      31.712  17.053   5.513  0.00  0.00     0.075 C 
HETATM    6  C   UNK N   1      32.927  17.426   5.948  0.00  0.00     0.024 C 
BRANCH   6   7
HETATM    7  C   UNK N   1      33.591  16.981   7.198  0.00  0.00     0.054 A 
HETATM    8  C   UNK N   1      34.557  15.957   7.184  0.00  0.00     0.025 A 
HETATM    9  C   UNK N   1      34.903  15.239   5.924  0.00  0.00     0.069 C 
HETATM   10  N   UNK N   1      35.198  15.615   8.334  0.00  0.00    -0.312 N 
HETATM   11  C   UNK N   1      34.925  16.253   9.513  0.00  0.00     0.327 A 
HETATM   12  H   UNK N   1      35.870  14.896   8.316  0.00  0.00     0.170 HD
HETATM   13  O   UNK N   1      35.524  15.944  10.526  0.00  0.00    -0.247 OA
HETATM   14  N   UNK N   1      33.984  17.245   9.552  0.00  0.00    -0.275 N 
HETATM   15  C   UNK N   1      33.315  17.620   8.417  0.00  0.00     0.261 A 
HETATM   16  H   UNK N   1      33.785  17.695  10.405  0.00  0.00     0.173 HD
HETATM   17  O   UNK N   1      32.494  18.520   8.474  0.00  0.00    -0.267 OA
ENDBRANCH   6   7
ENDBRANCH   2   5
BRANCH   1  18
HETATM   18  C   UNK N   1      29.329  17.849   7.106  0.00  0.00     0.119 C 
BRANCH  18  19
HETATM   19  C   UNK N   1      28.267  18.340   6.122  0.00  0.00     0.136 C 
BRANCH  19  20
HETATM   20  S   UNK N   1      27.335  17.008   5.258  0.00  0.00     0.026 S 
HETATM   21  O   UNK N   1      26.679  16.430   6.523  0.00  0.00    -0.257 OA
BRANCH  20  22
HETATM   22  C   UNK N   1      25.922  18.118   4.978  0.00  0.00     0.181 C 
BRANCH  22  23
HETATM   23  S   UNK N   1      26.404  19.844   5.281  0.00  0.00    -0.161 SA
HETATM   24  C   UNK N   1      26.397  20.238   3.511  0.00  0.00     0.090 C 
ENDBRANCH  22  23
ENDBRANCH  20  22
ENDBRANCH  19  20
ENDBRANCH  18  19
BRANCH  18  25
HETATM   25  C   UNK N   1      28.914  18.082   8.556  0.00  0.00     0.190 C 
BRANCH  25  26
HETATM   26  O   UNK N   1      27.623  18.606   8.610  0.00  0.00    -0.399 OA
HETATM   27  H   UNK N   1      27.109  19.001   7.887  0.00  0.00     0.209 HD
ENDBRANCH  25  26
ENDBRANCH  18  25
ENDBRANCH   1  18
TORSDOF 9
ENDMDL
MODEL 5
REMARK VINA RESULT:      -5.3     13.523     16.253
REMARK  9 active torsions:
REMARK  status: ('A' for Active; 'I' for Inactive)
REMARK    1  A    between atoms: S_2  and  C_3 
REMARK    2  A    between atoms: C_3  and  S_4 
REMARK    3  A    between atoms: S_4  and  C_6 
REMARK    4  A    between atoms: C_6  and  C_7 
REMARK    5  A    between atoms: C_7  and  C_8 
REMARK    6  A    between atoms: C_7  and  N_10 
REMARK    7  A    between atoms: C_8  and  O_9 
REMARK       I    between atoms: N_10  and  C_11 
REMARK    8  A    between atoms: C_11  and  C_13 
REMARK    9  A    between atoms: C_14  and  C_15 
ROOT
HETATM    1  N   UNK N   1      34.977  16.666   8.489  0.00  0.00    -0.350 N 
HETATM    2  C   UNK N   1      34.151  17.385   7.679  0.00  0.00     0.241 C 
HETATM    3  O   UNK N   1      34.595  17.836   6.635  0.00  0.00    -0.269 OA
HETATM    4  H   UNK N   1      35.898  16.520   8.175  0.00  0.00     0.163 HD
ENDROOT
BRANCH   2   5
HETATM    5  C   UNK N   1      32.722  17.581   8.028  0.00  0.00     0.075 C 
HETATM    6  C   UNK N   1      31.671  16.896   7.546  0.00  0.00     0.024 C 
BRANCH   6   7
HETATM    7  C   UNK N   1      31.712  15.841   6.503  0.00  0.00     0.054 A 
HETATM    8  C   UNK N   1      31.653  16.167   5.135  0.00  0.00     0.025 A 
HETATM    9  C   UNK N   1      31.485  17.580   4.685  0.00  0.00     0.069 C 
HETATM   10  N   UNK N   1      31.760  15.187   4.199  0.00  0.00    -0.312 N 
HETATM   11  C   UNK N   1      31.929  13.878   4.561  0.00  0.00     0.327 A 
HETATM   12  H   UNK N   1      31.715  15.423   3.245  0.00  0.00     0.170 HD
HETATM   13  O   UNK N   1      32.041  13.019   3.707  0.00  0.00    -0.247 OA
HETATM   14  N   UNK N   1      31.980  13.536   5.885  0.00  0.00    -0.275 N 
HETATM   15  C   UNK N   1      31.876  14.493   6.859  0.00  0.00     0.261 A 
HETATM   16  H   UNK N   1      32.092  12.592   6.140  0.00  0.00     0.173 HD
HETATM   17  O   UNK N   1      31.942  14.166   8.032  0.00  0.00    -0.267 OA
ENDBRANCH   6   7
ENDBRANCH   2   5
BRANCH   1  18
HETATM   18  C   UNK N   1      34.616  16.097   9.778  0.00  0.00     0.119 C 
BRANCH  18  19
HETATM   19  C   UNK N   1      34.662  14.569   9.741  0.00  0.00     0.136 C 
BRANCH  19  20
HETATM   20  S   UNK N   1      35.542  13.854   8.290  0.00  0.00     0.026 S 
HETATM   21  O   UNK N   1      36.954  14.250   8.751  0.00  0.00    -0.257 OA
BRANCH  20  22
HETATM   22  C   UNK N   1      35.676  12.238   9.112  0.00  0.00     0.181 C 
BRANCH  22  23
HETATM   23  S   UNK N   1      35.490  12.426  10.911  0.00  0.00    -0.161 SA
HETATM   24  C   UNK N   1      34.477  10.927  11.039  0.00  0.00     0.090 C 
ENDBRANCH  22  23
ENDBRANCH  20  22
ENDBRANCH  19  20
ENDBRANCH  18  19
BRANCH  18  25
HETATM   25  C   UNK N   1      35.438  16.664  10.932  0.00  0.00     0.190 C 
BRANCH  25  26
HETATM   26  O   UNK N   1      36.757  16.220  10.848  0.00  0.00    -0.399 OA
HETATM   27  H   UNK N   1      37.074  15.308  10.754  0.00  0.00     0.209 HD
ENDBRANCH  25  26
ENDBRANCH  18  25
ENDBRANCH   1  18
TORSDOF 9
ENDMDL
MODEL 6
REMARK VINA RESULT:      -5.3     11.333     13.423
REMARK  9 active torsions:
REMARK  status: ('A' for Active; 'I' for Inactive)
REMARK    1  A    between atoms: S_2  and  C_3 
REMARK    2  A    between atoms: C_3  and  S_4 
REMARK    3  A    between atoms: S_4  and  C_6 
REMARK    4  A    between atoms: C_6  and  C_7 
REMARK    5  A    between atoms: C_7  and  C_8 
REMARK    6  A    between atoms: C_7  and  N_10 
REMARK    7  A    between atoms: C_8  and  O_9 
REMARK       I    between atoms: N_10  and  C_11 
REMARK    8  A    between atoms: C_11  and  C_13 
REMARK    9  A    between atoms: C_14  and  C_15 
ROOT
HETATM    1  N   UNK N   1      32.234  17.766   8.700  0.00  0.00    -0.350 N 
HETATM    2  C   UNK N   1      30.946  18.178   8.857  0.00  0.00     0.241 C 
HETATM    3  O   UNK N   1      30.710  19.375   8.896  0.00  0.00    -0.269 OA
HETATM    4  H   UNK N   1      32.919  18.465   8.596  0.00  0.00     0.163 HD
ENDROOT
BRANCH   2   5
HETATM    5  C   UNK N   1      29.835  17.195   8.933  0.00  0.00     0.075 C 
HETATM    6  C   UNK N   1      28.825  17.050   8.059  0.00  0.00     0.024 C 
BRANCH   6   7
HETATM    7  C   UNK N   1      28.565  17.892   6.866  0.00  0.00     0.054 A 
HETATM    8  C   UNK N   1      28.899  17.446   5.573  0.00  0.00     0.025 A 
HETATM    9  C   UNK N   1      29.584  16.138   5.361  0.00  0.00     0.069 C 
HETATM   10  N   UNK N   1      28.587  18.208   4.492  0.00  0.00    -0.312 N 
HETATM   11  C   UNK N   1      27.947  19.410   4.633  0.00  0.00     0.327 A 
HETATM   12  H   UNK N   1      28.827  17.890   3.591  0.00  0.00     0.170 HD
HETATM   13  O   UNK N   1      27.661  20.067   3.650  0.00  0.00    -0.247 OA
HETATM   14  N   UNK N   1      27.620  19.867   5.880  0.00  0.00    -0.275 N 
HETATM   15  C   UNK N   1      27.916  19.130   6.996  0.00  0.00     0.261 A 
HETATM   16  H   UNK N   1      27.168  20.737   5.977  0.00  0.00     0.173 HD
HETATM   17  O   UNK N   1      27.599  19.551   8.095  0.00  0.00    -0.267 OA
ENDBRANCH   6   7
ENDBRANCH   2   5
BRANCH   1  18
HETATM   18  C   UNK N   1      32.686  16.384   8.673  0.00  0.00     0.119 C 
BRANCH  18  19
HETATM   19  C   UNK N   1      32.853  15.884   7.238  0.00  0.00     0.136 C 
BRANCH  19  20
HETATM   20  S   UNK N   1      33.110  17.205   5.980  0.00  0.00     0.026 S 
HETATM   21  O   UNK N   1      34.420  17.740   6.581  0.00  0.00    -0.257 OA
BRANCH  20  22
HETATM   22  C   UNK N   1      34.021  16.059   4.900  0.00  0.00     0.181 C 
BRANCH  22  23
HETATM   23  S   UNK N   1      32.955  15.488   3.543  0.00  0.00    -0.161 SA
HETATM   24  C   UNK N   1      32.380  17.170   3.185  0.00  0.00     0.090 C 
ENDBRANCH  22  23
ENDBRANCH  20  22
ENDBRANCH  19  20
ENDBRANCH  18  19
BRANCH  18  25
HETATM   25  C   UNK N   1      33.942  16.150   9.508  0.00  0.00     0.190 C 
BRANCH  25  26
HETATM   26  O   UNK N   1      34.662  17.337   9.638  0.00  0.00    -0.399 OA
HETATM   27  H   UNK N   1      34.929  17.952   8.936  0.00  0.00     0.209 HD
ENDBRANCH  25  26
ENDBRANCH  18  25
ENDBRANCH   1  18
TORSDOF 9
ENDMDL
MODEL 7
REMARK VINA RESULT:      -5.3     21.489     24.661
REMARK  9 active torsions:
REMARK  status: ('A' for Active; 'I' for Inactive)
REMARK    1  A    between atoms: S_2  and  C_3 
REMARK    2  A    between atoms: C_3  and  S_4 
REMARK    3  A    between atoms: S_4  and  C_6 
REMARK    4  A    between atoms: C_6  and  C_7 
REMARK    5  A    between atoms: C_7  and  C_8 
REMARK    6  A    between atoms: C_7  and  N_10 
REMARK    7  A    between atoms: C_8  and  O_9 
REMARK       I    between atoms: N_10  and  C_11 
REMARK    8  A    between atoms: C_11  and  C_13 
REMARK    9  A    between atoms: C_14  and  C_15 
ROOT
HETATM    1  N   UNK N   1      37.584  12.651  14.428  0.00  0.00    -0.350 N 
HETATM    2  C   UNK N   1      36.850  13.527  15.168  0.00  0.00     0.241 C 
HETATM    3  O   UNK N   1      37.431  14.379  15.821  0.00  0.00    -0.269 OA
HETATM    4  H   UNK N   1      38.562  12.767  14.435  0.00  0.00     0.163 HD
ENDROOT
BRANCH   2   5
HETATM    5  C   UNK N   1      35.366  13.484  15.149  0.00  0.00     0.075 C 
HETATM    6  C   UNK N   1      34.558  13.045  16.129  0.00  0.00     0.024 C 
BRANCH   6   7
HETATM    7  C   UNK N   1      34.983  12.440  17.416  0.00  0.00     0.054 A 
HETATM    8  C   UNK N   1      35.170  11.051  17.540  0.00  0.00     0.025 A 
HETATM    9  C   UNK N   1      34.888  10.129  16.402  0.00  0.00     0.069 C 
HETATM   10  N   UNK N   1      35.624  10.530  18.711  0.00  0.00    -0.312 N 
HETATM   11  C   UNK N   1      35.910  11.336  19.780  0.00  0.00     0.327 A 
HETATM   12  H   UNK N   1      35.750   9.558  18.791  0.00  0.00     0.170 HD
HETATM   13  O   UNK N   1      36.334  10.851  20.812  0.00  0.00    -0.247 OA
HETATM   14  N   UNK N   1      35.728  12.688  19.685  0.00  0.00    -0.275 N 
HETATM   15  C   UNK N   1      35.272  13.253  18.524  0.00  0.00     0.261 A 
HETATM   16  H   UNK N   1      35.927  13.262  20.460  0.00  0.00     0.173 HD
HETATM   17  O   UNK N   1      35.135  14.463  18.458  0.00  0.00    -0.267 OA
ENDBRANCH   6   7
ENDBRANCH   2   5
BRANCH   1  18
HETATM   18  C   UNK N   1      37.051  11.558  13.630  0.00  0.00     0.119 C 
BRANCH  18  19
HETATM   19  C   UNK N   1      37.190  11.845  12.135  0.00  0.00     0.136 C 
BRANCH  19  20
HETATM   20  S   UNK N   1      35.872  12.917  11.424  0.00  0.00     0.026 S 
HETATM   21  O   UNK N   1      36.556  14.252  11.764  0.00  0.00    -0.257 OA
BRANCH  20  22
HETATM   22  C   UNK N   1      36.662  12.877   9.787  0.00  0.00     0.181 C 
BRANCH  22  23
HETATM   23  S   UNK N   1      38.080  14.014   9.741  0.00  0.00    -0.161 SA
HETATM   24  C   UNK N   1      39.176  12.740   9.058  0.00  0.00     0.090 C 
ENDBRANCH  22  23
ENDBRANCH  20  22
ENDBRANCH  19  20
ENDBRANCH  18  19
BRANCH  18  25
HETATM   25  C   UNK N   1      37.637  10.201  14.008  0.00  0.00     0.190 C 
BRANCH  25  26
HETATM   26  O   UNK N   1      38.825  10.371  14.719  0.00  0.00    -0.399 OA
HETATM   27  H   UNK N   1      39.291   9.717  15.265  0.00  0.00     0.209 HD
ENDBRANCH  25  26
ENDBRANCH  18  25
ENDBRANCH   1  18
TORSDOF 9
ENDMDL
MODEL 8
REMARK VINA RESULT:      -5.3      2.234      3.249
REMARK  9 active torsions:
REMARK  status: ('A' for Active; 'I' for Inactive)
REMARK    1  A    between atoms: S_2  and  C_3 
REMARK    2  A    between atoms: C_3  and  S_4 
REMARK    3  A    between atoms: S_4  and  C_6 
REMARK    4  A    between atoms: C_6  and  C_7 
REMARK    5  A    between atoms: C_7  and  C_8 
REMARK    6  A    between atoms: C_7  and  N_10 
REMARK    7  A    between atoms: C_8  and  O_9 
REMARK       I    between atoms: N_10  and  C_11 
REMARK    8  A    between atoms: C_11  and  C_13 
REMARK    9  A    between atoms: C_14  and  C_15 
ROOT
HETATM    1  N   UNK N   1      29.227  24.588  -3.799  0.00  0.00    -0.350 N 
HETATM    2  C   UNK N   1      28.150  25.419  -3.842  0.00  0.00     0.241 C 
HETATM    3  O   UNK N   1      28.325  26.599  -4.100  0.00  0.00    -0.269 OA
HETATM    4  H   UNK N   1      30.105  24.980  -4.007  0.00  0.00     0.163 HD
ENDROOT
BRANCH   2   5
HETATM    5  C   UNK N   1      26.776  24.898  -3.628  0.00  0.00     0.075 C 
HETATM    6  C   UNK N   1      25.860  24.623  -4.572  0.00  0.00     0.024 C 
BRANCH   6   7
HETATM    7  C   UNK N   1      26.004  24.851  -6.031  0.00  0.00     0.054 A 
HETATM    8  C   UNK N   1      25.571  26.051  -6.627  0.00  0.00     0.025 A 
HETATM    9  C   UNK N   1      24.895  27.111  -5.825  0.00  0.00     0.069 C 
HETATM   10  N   UNK N   1      25.776  26.260  -7.955  0.00  0.00    -0.312 N 
HETATM   11  C   UNK N   1      26.403  25.324  -8.731  0.00  0.00     0.327 A 
HETATM   12  H   UNK N   1      25.467  27.101  -8.364  0.00  0.00     0.170 HD
HETATM   13  O   UNK N   1      26.593  25.541  -9.913  0.00  0.00    -0.247 OA
HETATM   14  N   UNK N   1      26.825  24.147  -8.175  0.00  0.00    -0.275 N 
HETATM   15  C   UNK N   1      26.638  23.896  -6.842  0.00  0.00     0.261 A 
HETATM   16  H   UNK N   1      27.268  23.473  -8.740  0.00  0.00     0.173 HD
HETATM   17  O   UNK N   1      27.038  22.847  -6.366  0.00  0.00    -0.267 OA
ENDBRANCH   6   7
ENDBRANCH   2   5
BRANCH   1  18
HETATM   18  C   UNK N   1      29.193  23.171  -3.469  0.00  0.00     0.119 C 
BRANCH  18  19
HETATM   19  C   UNK N   1      30.120  22.368  -4.382  0.00  0.00     0.136 C 
BRANCH  19  20
HETATM   20  S   UNK N   1      31.218  23.382  -5.458  0.00  0.00     0.026 S 
HETATM   21  O   UNK N   1      32.118  23.899  -4.323  0.00  0.00    -0.257 OA
BRANCH  20  22
HETATM   22  C   UNK N   1      32.319  21.963  -5.746  0.00  0.00     0.181 C 
BRANCH  22  23
HETATM   23  S   UNK N   1      31.496  20.416  -5.262  0.00  0.00    -0.161 SA
HETATM   24  C   UNK N   1      31.298  19.893  -6.988  0.00  0.00     0.090 C 
ENDBRANCH  22  23
ENDBRANCH  20  22
ENDBRANCH  19  20
ENDBRANCH  18  19
BRANCH  18  25
HETATM   25  C   UNK N   1      29.466  22.895  -1.993  0.00  0.00     0.190 C 
BRANCH  25  26
HETATM   26  O   UNK N   1      30.834  22.966  -1.735  0.00  0.00    -0.399 OA
HETATM   27  H   UNK N   1      31.526  22.340  -2.004  0.00  0.00     0.209 HD
ENDBRANCH  25  26
ENDBRANCH  18  25
ENDBRANCH   1  18
TORSDOF 9
ENDMDL
MODEL 9
REMARK VINA RESULT:      -5.2      3.442      7.985
REMARK  9 active torsions:
REMARK  status: ('A' for Active; 'I' for Inactive)
REMARK    1  A    between atoms: S_2  and  C_3 
REMARK    2  A    between atoms: C_3  and  S_4 
REMARK    3  A    between atoms: S_4  and  C_6 
REMARK    4  A    between atoms: C_6  and  C_7 
REMARK    5  A    between atoms: C_7  and  C_8 
REMARK    6  A    between atoms: C_7  and  N_10 
REMARK    7  A    between atoms: C_8  and  O_9 
REMARK       I    between atoms: N_10  and  C_11 
REMARK    8  A    between atoms: C_11  and  C_13 
REMARK    9  A    between atoms: C_14  and  C_15 
ROOT
HETATM    1  N   UNK N   1      29.256  22.835  -4.539  0.00  0.00    -0.350 N 
HETATM    2  C   UNK N   1      30.432  22.752  -5.218  0.00  0.00     0.241 C 
HETATM    3  O   UNK N   1      30.524  21.962  -6.143  0.00  0.00    -0.269 OA
HETATM    4  H   UNK N   1      28.516  22.264  -4.849  0.00  0.00     0.163 HD
ENDROOT
BRANCH   2   5
HETATM    5  C   UNK N   1      31.573  23.639  -4.878  0.00  0.00     0.075 C 
HETATM    6  C   UNK N   1      32.832  23.262  -4.596  0.00  0.00     0.024 C 
BRANCH   6   7
HETATM    7  C   UNK N   1      33.333  21.869  -4.494  0.00  0.00     0.054 A 
HETATM    8  C   UNK N   1      34.090  21.290  -5.530  0.00  0.00     0.025 A 
HETATM    9  C   UNK N   1      34.363  22.033  -6.794  0.00  0.00     0.069 C 
HETATM   10  N   UNK N   1      34.593  20.036  -5.381  0.00  0.00    -0.312 N 
HETATM   11  C   UNK N   1      34.382  19.319  -4.235  0.00  0.00     0.327 A 
HETATM   12  H   UNK N   1      35.119  19.637  -6.112  0.00  0.00     0.170 HD
HETATM   13  O   UNK N   1      34.858  18.206  -4.116  0.00  0.00    -0.247 OA
HETATM   14  N   UNK N   1      33.642  19.859  -3.218  0.00  0.00    -0.275 N 
HETATM   15  C   UNK N   1      33.116  21.118  -3.327  0.00  0.00     0.261 A 
HETATM   16  H   UNK N   1      33.485  19.335  -2.399  0.00  0.00     0.173 HD
HETATM   17  O   UNK N   1      32.476  21.584  -2.400  0.00  0.00    -0.267 OA
ENDBRANCH   6   7
ENDBRANCH   2   5
BRANCH   1  18
HETATM   18  C   UNK N   1      28.995  23.693  -3.393  0.00  0.00     0.119 C 
BRANCH  18  19
HETATM   19  C   UNK N   1      27.671  24.440  -3.550  0.00  0.00     0.136 C 
BRANCH  19  20
HETATM   20  S   UNK N   1      27.307  25.025  -5.258  0.00  0.00     0.026 S 
HETATM   21  O   UNK N   1      26.730  23.691  -5.761  0.00  0.00    -0.257 OA
BRANCH  20  22
HETATM   22  C   UNK N   1      25.658  25.602  -4.757  0.00  0.00     0.181 C 
BRANCH  22  23
HETATM   23  S   UNK N   1      25.267  27.182  -5.565  0.00  0.00    -0.161 SA
HETATM   24  C   UNK N   1      25.592  28.125  -4.050  0.00  0.00     0.090 C 
ENDBRANCH  22  23
ENDBRANCH  20  22
ENDBRANCH  19  20
ENDBRANCH  18  19
BRANCH  18  25
HETATM   25  C   UNK N   1      29.078  22.953  -2.061  0.00  0.00     0.190 C 
BRANCH  25  26
HETATM   26  O   UNK N   1      30.349  23.100  -1.506  0.00  0.00    -0.399 OA
HETATM   27  H   UNK N   1      30.784  23.920  -1.223  0.00  0.00     0.209 HD
ENDBRANCH  25  26
ENDBRANCH  18  25
ENDBRANCH   1  18
TORSDOF 9
ENDMDL
