REMARK  6 active torsions:
REMARK  status: ('A' for Active; 'I' for Inactive)
REMARK    1  A    between atoms: C_5  and  C_2 
REMARK    2  A    between atoms: C_4  and  C_3 
REMARK    3  A    between atoms: C_5  and  C_3 
REMARK    4  A    between atoms: C_6  and  C_4 
REMARK    5  A    between atoms: C_5  and  N_7 
REMARK    6  A    between atoms: O_9  and  C_6 
ROOT
HETATM    1  C   UNK N   1       3.983   1.920   0.356  0.00  0.00     0.035 C 
ENDROOT
BRANCH   1   2
HETATM    2  C   UNK N   1       4.834   0.664   0.186  0.00  0.00     0.112 C 
BRANCH   2   3
HETATM    3  C   UNK N   1       6.297   0.997   0.071  0.00  0.00     0.139 C 
HETATM    4  O   UNK N   1       6.679   2.156   0.050  0.00  0.00    -0.650 OA
BRANCH   3   5
HETATM    5  O   UNK N   1       7.196  -0.001  -0.024  0.00  0.00    -0.776 OA
HETATM    6  H   UNK N   1       6.908  -0.890  -0.091  0.00  0.00     0.167 HD
ENDBRANCH   3   5
ENDBRANCH   2   3
ENDBRANCH   1   2
BRANCH   1   7
HETATM    7  C   UNK N   1       2.563   1.757  -0.169  0.00  0.00     0.074 C 
BRANCH   7   8
HETATM    8  C   UNK N   1       1.768   0.784   0.697  0.00  0.00     0.020 C 
HETATM    9  C   UNK N   1       0.338   0.642   0.198  0.00  0.00     0.007 C 
ENDBRANCH   7   8
BRANCH   7  10
HETATM   10  N   UNK N   1       1.925   3.062  -0.147  0.00  0.00    -0.426 N 
HETATM   11  H   UNK N   1       2.494   3.908  -0.131  0.00  0.00     0.150 HD
HETATM   12  H   UNK N   1       0.907   3.132  -0.147  0.00  0.00     0.150 HD
ENDBRANCH   7  10
ENDBRANCH   1   7
TORSDOF 6
