MODEL 1
REMARK VINA RESULT:      -7.3      0.000      0.000
REMARK WARNING: 32 MAX_TORS EXCEEDED!!!
REMARK  38 active torsions:
REMARK  status: ('A' for Active; 'I' for Inactive)
REMARK    1  A    between atoms: C_5  and  C_1 
REMARK    2  A    between atoms: C_9  and  C_1 
REMARK    3  A    between atoms: C_6  and  C_2 
REMARK    4  A    between atoms: C_10  and  C_2 
REMARK    5  A    between atoms: C_7  and  C_3 
REMARK    6  A    between atoms: C_11  and  C_3 
REMARK    7  A    between atoms: C_8  and  C_4 
REMARK    8  A    between atoms: C_12  and  C_4 
REMARK    9  A    between atoms: N_51  and  C_5 
REMARK   10  A    between atoms: N_52  and  C_6 
REMARK   11  A    between atoms: N_53  and  C_7 
REMARK   12  A    between atoms: N_55  and  C_8 
REMARK   13  A    between atoms: N_57  and  C_9 
REMARK   14  A    between atoms: N_58  and  C_10 
REMARK   15  A    between atoms: N_59  and  C_11 
REMARK   16  A    between atoms: N_60  and  C_12 
REMARK   17  A    between atoms: C_35  and  C_27 
REMARK   18  A    between atoms: O_63  and  C_27 
REMARK   19  A    between atoms: C_36  and  C_28 
REMARK   20  A    between atoms: O_64  and  C_28 
REMARK   21  A    between atoms: C_47  and  C_29 
REMARK   22  A    between atoms: C_48  and  C_30 
REMARK   23  A    between atoms: N_61  and  C_31 
REMARK   24  A    between atoms: N_62  and  C_32 
REMARK   25  A    between atoms: O_79  and  C_33 
REMARK   26  A    between atoms: O_80  and  C_34 
REMARK   27  A    between atoms: N_51  and  C_37 
REMARK   28  A    between atoms: N_52  and  C_38 
REMARK   29  A    between atoms: C_39  and  O_65 
REMARK   30  A    between atoms: O_66  and  C_40 
REMARK   31  A    between atoms: C_43  and  O_69 
REMARK   32  A    between atoms: O_70  and  C_44 
REMARK   33  A    between atoms: C_45  and  O_71 
REMARK   34  A    between atoms: O_72  and  C_46 
REMARK   35  A    between atoms: O_73  and  C_47 
REMARK   36  A    between atoms: O_74  and  C_48 
REMARK   37  A    between atoms: C_49  and  O_79 
REMARK   38  A    between atoms: O_80  and  C_50 
ROOT
HETATM    1  C   UNK N   1      27.449  14.097   4.657  0.00  0.00     0.114 A 
HETATM    2  C   UNK N   1      28.714  13.608   4.622  0.00  0.00     0.114 A 
HETATM    3  C   UNK N   1      26.900  12.771   4.872  0.00  0.00     0.252 A 
HETATM    4  C   UNK N   1      28.252  12.246   4.827  0.00  0.00     0.252 A 
HETATM    5  O   UNK N   1      25.780  12.344   5.091  0.00  0.00    -0.281 OA
HETATM    6  O   UNK N   1      28.797  11.164   4.969  0.00  0.00    -0.281 OA
ENDROOT
BRANCH   1   7
HETATM    7  N   UNK N   1      26.776  15.341   4.518  0.00  0.00    -0.385 N 
HETATM    8  H   UNK N   1      26.216  15.649   5.268  0.00  0.00     0.159 HD
BRANCH   7   9
HETATM    9  C   UNK N   1      26.859  16.181   3.351  0.00  0.00     0.121 C 
BRANCH   9  10
HETATM   10  C   UNK N   1      26.064  15.604   2.197  0.00  0.00     0.050 C 
BRANCH  10  11
HETATM   11  C   UNK N   1      24.707  15.128   2.692  0.00  0.00     0.274 C 
BRANCH  11  12
HETATM   12  N   UNK N   1      24.347  13.923   1.978  0.00  0.00     0.091 N 
HETATM   13  C   UNK N   1      23.658  14.243   0.746  0.00  0.00     0.302 C 
HETATM   14  C   UNK N   1      23.110  12.942   0.157  0.00  0.00     0.302 C 
HETATM   15  N   UNK N   1      24.039  11.791   0.202  0.00  0.00     0.091 N 
HETATM   16  C   UNK N   1      25.151  11.859   1.179  0.00  0.00     0.302 C 
HETATM   17  C   UNK N   1      25.557  13.257   1.558  0.00  0.00     0.302 C 
BRANCH  15  18
HETATM   18  C   UNK N   1      23.157  10.632   0.442  0.00  0.00     0.274 C 
BRANCH  18  19
HETATM   19  C   UNK N   1      21.940  10.828   1.377  0.00  0.00     0.050 C 
BRANCH  19  20
HETATM   20  C   UNK N   1      22.164  10.284   2.771  0.00  0.00     0.123 C 
BRANCH  20  21
HETATM   21  N   UNK N   1      20.944  10.426   3.511  0.00  0.00    -0.370 N 
HETATM   22  C   UNK N   1      20.802  10.053   4.726  0.00  0.00     0.146 C 
ATOM     23  HN  UNK N   1      20.143  10.849   3.043  1.00  0.00     0.161 HD
BRANCH  22  24
HETATM   24  C   UNK N   1      21.885   9.422   5.499  0.00  0.00     0.019 A 
HETATM   25  C   UNK N   1      22.117   8.028   5.576  0.00  0.00     0.052 A 
HETATM   26  C   UNK N   1      23.119   7.531   6.447  0.00  0.00     0.106 A 
HETATM   27  C   UNK N   1      23.881   8.440   7.189  0.00  0.00     0.073 A 
HETATM   28  C   UNK N   1      23.611   9.804   7.117  0.00  0.00     0.075 A 
HETATM   29  C   UNK N   1      22.611  10.274   6.298  0.00  0.00     0.052 A 
BRANCH  26  30
HETATM   30  N   UNK N   1      23.255   6.137   6.724  0.00  0.00    -0.116 N 
HETATM   31  O   UNK N   1      23.515   5.374   5.848  0.00  0.00    -0.532 OA
HETATM   32  O   UNK N   1      23.296   5.758   7.860  0.00  0.00    -0.532 OA
ENDBRANCH  26  30
BRANCH  28  33
HETATM   33  O   UNK N   1      24.069  10.630   8.064  0.00  0.00    -0.318 OA
BRANCH  33  34
HETATM   34  C   UNK N   1      23.246  11.703   8.375  0.00  0.00     0.298 C 
HETATM   35  C   UNK N   1      23.030  11.805   9.898  0.00  0.00     0.205 C 
HETATM   36  C   UNK N   1      24.366  12.173  10.536  0.00  0.00     0.183 C 
HETATM   37  C   UNK N   1      24.845  13.484   9.908  0.00  0.00     0.180 C 
HETATM   38  C   UNK N   1      24.947  13.328   8.368  0.00  0.00     0.179 C 
HETATM   39  O   UNK N   1      23.719  12.907   7.808  0.00  0.00    -0.348 OA
BRANCH  35  40
HETATM   40  O   UNK N   1      22.063  12.777  10.171  0.00  0.00    -0.388 OA
HETATM   41  H   UNK N   1      21.452  13.529  10.177  0.00  0.00     0.210 HD
ENDBRANCH  35  40
BRANCH  36  42
HETATM   42  O   UNK N   1      24.217  12.312  11.917  0.00  0.00    -0.390 OA
HETATM   43  H   UNK N   1      23.572  11.804  12.434  0.00  0.00     0.210 HD
ENDBRANCH  36  42
BRANCH  37  44
HETATM   44  O   UNK N   1      26.083  13.834  10.451  0.00  0.00    -0.390 OA
HETATM   45  H   UNK N   1      26.879  14.185  10.020  0.00  0.00     0.210 HD
ENDBRANCH  37  44
BRANCH  38  46
HETATM   46  C   UNK N   1      25.252  14.671   7.707  0.00  0.00     0.198 C 
BRANCH  46  47
HETATM   47  O   UNK N   1      24.507  14.861   6.545  0.00  0.00    -0.398 OA
HETATM   48  H   UNK N   1      23.706  14.383   6.277  0.00  0.00     0.209 HD
ENDBRANCH  46  47
ENDBRANCH  38  46
ENDBRANCH  33  34
ENDBRANCH  28  33
ENDBRANCH  22  24
BRANCH  22  49
HETATM   49  O   UNK N   1      19.644  10.334   5.352  0.00  0.00    -0.346 OA
HETATM   50  H   UNK N   1      19.011   9.871   5.865  0.00  0.00     0.219 HD
ENDBRANCH  22  49
ENDBRANCH  20  21
ENDBRANCH  19  20
ENDBRANCH  18  19
ENDBRANCH  15  18
ENDBRANCH  11  12
ENDBRANCH  10  11
ENDBRANCH   9  10
ENDBRANCH   7   9
ENDBRANCH   1   7
BRANCH   2  51
HETATM   51  N   UNK N   1      30.018  14.119   4.454  0.00  0.00    -0.385 N 
HETATM   52  H   UNK N   1      30.177  15.090   4.478  0.00  0.00     0.159 HD
BRANCH  51  53
HETATM   53  C   UNK N   1      31.110  13.214   4.250  0.00  0.00     0.121 C 
BRANCH  53  54
HETATM   54  C   UNK N   1      32.157  13.383   5.314  0.00  0.00     0.050 C 
BRANCH  54  55
HETATM   55  C   UNK N   1      31.722  14.405   6.365  0.00  0.00     0.274 C 
BRANCH  55  56
HETATM   56  N   UNK N   1      32.755  15.376   6.795  0.00  0.00     0.091 N 
HETATM   57  C   UNK N   1      33.127  16.177   5.620  0.00  0.00     0.302 C 
HETATM   58  C   UNK N   1      31.983  17.113   5.173  0.00  0.00     0.302 C 
HETATM   59  N   UNK N   1      30.804  16.917   6.029  0.00  0.00     0.091 N 
HETATM   60  C   UNK N   1      31.096  17.098   7.455  0.00  0.00     0.302 C 
HETATM   61  C   UNK N   1      32.333  16.296   7.864  0.00  0.00     0.302 C 
BRANCH  59  62
HETATM   62  C   UNK N   1      29.571  17.590   5.622  0.00  0.00     0.274 C 
BRANCH  62  63
HETATM   63  C   UNK N   1      28.612  17.975   6.749  0.00  0.00     0.050 C 
BRANCH  63  64
HETATM   64  C   UNK N   1      27.747  19.196   6.475  0.00  0.00     0.123 C 
BRANCH  64  65
HETATM   65  N   UNK N   1      26.479  18.867   5.866  0.00  0.00    -0.370 N 
HETATM   66  C   UNK N   1      26.042  19.464   4.824  0.00  0.00     0.146 C 
ATOM     67  HN  UNK N   1      25.911  18.130   6.284  1.00  0.00     0.161 HD
BRANCH  66  68
HETATM   68  C   UNK N   1      24.653  19.273   4.419  0.00  0.00     0.019 A 
HETATM   69  C   UNK N   1      23.925  20.063   3.495  0.00  0.00     0.052 A 
HETATM   70  C   UNK N   1      22.594  19.685   3.159  0.00  0.00     0.106 A 
HETATM   71  C   UNK N   1      22.070  18.502   3.692  0.00  0.00     0.073 A 
HETATM   72  C   UNK N   1      22.817  17.755   4.600  0.00  0.00     0.075 A 
HETATM   73  C   UNK N   1      24.072  18.159   4.965  0.00  0.00     0.052 A 
BRANCH  70  74
HETATM   74  N   UNK N   1      21.737  20.537   2.398  0.00  0.00    -0.116 N 
HETATM   75  O   UNK N   1      21.882  20.624   1.213  0.00  0.00    -0.532 OA
HETATM   76  O   UNK N   1      20.777  21.030   2.905  0.00  0.00    -0.532 OA
ENDBRANCH  70  74
BRANCH  72  77
HETATM   77  O   UNK N   1      22.250  16.788   5.324  0.00  0.00    -0.318 OA
BRANCH  77  78
HETATM   78  C   UNK N   1      20.870  16.826   5.429  0.00  0.00     0.298 C 
HETATM   79  C   UNK N   1      20.246  15.683   4.597  0.00  0.00     0.205 C 
HETATM   80  C   UNK N   1      20.706  14.360   5.216  0.00  0.00     0.183 C 
HETATM   81  C   UNK N   1      20.267  14.343   6.683  0.00  0.00     0.180 C 
HETATM   82  C   UNK N   1      20.843  15.582   7.413  0.00  0.00     0.179 C 
HETATM   83  O   UNK N   1      20.459  16.787   6.779  0.00  0.00    -0.348 OA
BRANCH  79  84
HETATM   84  O   UNK N   1      18.855  15.790   4.613  0.00  0.00    -0.388 OA
HETATM   85  H   UNK N   1      17.951  15.635   4.294  0.00  0.00     0.210 HD
ENDBRANCH  79  84
BRANCH  80  86
HETATM   86  O   UNK N   1      20.157  13.283   4.518  0.00  0.00    -0.390 OA
HETATM   87  H   UNK N   1      19.203  13.134   4.430  0.00  0.00     0.210 HD
ENDBRANCH  80  86
BRANCH  81  88
HETATM   88  O   UNK N   1      20.708  13.173   7.301  0.00  0.00    -0.390 OA
HETATM   89  H   UNK N   1      20.590  12.748   8.166  0.00  0.00     0.210 HD
ENDBRANCH  81  88
BRANCH  82  90
HETATM   90  C   UNK N   1      20.331  15.644   8.847  0.00  0.00     0.198 C 
BRANCH  90  91
HETATM   91  O   UNK N   1      18.975  15.981   8.865  0.00  0.00    -0.398 OA
HETATM   92  H   UNK N   1      18.104  16.229   8.517  0.00  0.00     0.209 HD
ENDBRANCH  90  91
ENDBRANCH  82  90
ENDBRANCH  77  78
ENDBRANCH  72  77
ENDBRANCH  66  68
BRANCH  66  93
HETATM   93  O   UNK N   1      26.767  20.451   4.248  0.00  0.00    -0.346 OA
HETATM   94  H   UNK N   1      27.423  20.448   3.579  0.00  0.00     0.219 HD
ENDBRANCH  66  93
ENDBRANCH  64  65
ENDBRANCH  63  64
ENDBRANCH  62  63
ENDBRANCH  59  62
ENDBRANCH  55  56
ENDBRANCH  54  55
ENDBRANCH  53  54
ENDBRANCH  51  53
ENDBRANCH   2  51
TORSDOF 38
ENDMDL
MODEL 2
REMARK VINA RESULT:      -7.3      4.329     10.227
REMARK WARNING: 32 MAX_TORS EXCEEDED!!!
REMARK  38 active torsions:
REMARK  status: ('A' for Active; 'I' for Inactive)
REMARK    1  A    between atoms: C_5  and  C_1 
REMARK    2  A    between atoms: C_9  and  C_1 
REMARK    3  A    between atoms: C_6  and  C_2 
REMARK    4  A    between atoms: C_10  and  C_2 
REMARK    5  A    between atoms: C_7  and  C_3 
REMARK    6  A    between atoms: C_11  and  C_3 
REMARK    7  A    between atoms: C_8  and  C_4 
REMARK    8  A    between atoms: C_12  and  C_4 
REMARK    9  A    between atoms: N_51  and  C_5 
REMARK   10  A    between atoms: N_52  and  C_6 
REMARK   11  A    between atoms: N_53  and  C_7 
REMARK   12  A    between atoms: N_55  and  C_8 
REMARK   13  A    between atoms: N_57  and  C_9 
REMARK   14  A    between atoms: N_58  and  C_10 
REMARK   15  A    between atoms: N_59  and  C_11 
REMARK   16  A    between atoms: N_60  and  C_12 
REMARK   17  A    between atoms: C_35  and  C_27 
REMARK   18  A    between atoms: O_63  and  C_27 
REMARK   19  A    between atoms: C_36  and  C_28 
REMARK   20  A    between atoms: O_64  and  C_28 
REMARK   21  A    between atoms: C_47  and  C_29 
REMARK   22  A    between atoms: C_48  and  C_30 
REMARK   23  A    between atoms: N_61  and  C_31 
REMARK   24  A    between atoms: N_62  and  C_32 
REMARK   25  A    between atoms: O_79  and  C_33 
REMARK   26  A    between atoms: O_80  and  C_34 
REMARK   27  A    between atoms: N_51  and  C_37 
REMARK   28  A    between atoms: N_52  and  C_38 
REMARK   29  A    between atoms: C_39  and  O_65 
REMARK   30  A    between atoms: O_66  and  C_40 
REMARK   31  A    between atoms: C_43  and  O_69 
REMARK   32  A    between atoms: O_70  and  C_44 
REMARK   33  A    between atoms: C_45  and  O_71 
REMARK   34  A    between atoms: O_72  and  C_46 
REMARK   35  A    between atoms: O_73  and  C_47 
REMARK   36  A    between atoms: O_74  and  C_48 
REMARK   37  A    between atoms: C_49  and  O_79 
REMARK   38  A    between atoms: O_80  and  C_50 
ROOT
HETATM    1  C   UNK N   1      25.509  19.212   4.156  0.00  0.00     0.114 A 
HETATM    2  C   UNK N   1      24.201  18.988   4.441  0.00  0.00     0.114 A 
HETATM    3  C   UNK N   1      25.162  20.181   3.132  0.00  0.00     0.252 A 
HETATM    4  C   UNK N   1      23.763  19.937   3.431  0.00  0.00     0.252 A 
HETATM    5  O   UNK N   1      25.809  20.928   2.420  0.00  0.00    -0.281 OA
HETATM    6  O   UNK N   1      22.682  20.370   3.068  0.00  0.00    -0.281 OA
ENDROOT
BRANCH   1   7
HETATM    7  N   UNK N   1      26.789  18.749   4.564  0.00  0.00    -0.385 N 
HETATM    8  H   UNK N   1      27.218  18.045   4.025  0.00  0.00     0.159 HD
BRANCH   7   9
HETATM    9  C   UNK N   1      27.499  19.241   5.716  0.00  0.00     0.121 C 
BRANCH   9  10
HETATM   10  C   UNK N   1      28.611  18.296   6.126  0.00  0.00     0.050 C 
BRANCH  10  11
HETATM   11  C   UNK N   1      28.368  16.922   5.522  0.00  0.00     0.274 C 
BRANCH  11  12
HETATM   12  N   UNK N   1      29.605  16.441   4.947  0.00  0.00     0.091 N 
HETATM   13  C   UNK N   1      29.419  16.080   3.558  0.00  0.00     0.302 C 
HETATM   14  C   UNK N   1      30.688  15.375   3.077  0.00  0.00     0.302 C 
HETATM   15  N   UNK N   1      31.957  15.999   3.510  0.00  0.00     0.091 N 
HETATM   16  C   UNK N   1      31.900  16.899   4.686  0.00  0.00     0.302 C 
HETATM   17  C   UNK N   1      30.553  17.528   4.919  0.00  0.00     0.302 C 
BRANCH  15  18
HETATM   18  C   UNK N   1      32.860  14.853   3.729  0.00  0.00     0.274 C 
BRANCH  18  19
HETATM   19  C   UNK N   1      32.304  13.626   4.488  0.00  0.00     0.050 C 
BRANCH  19  20
HETATM   20  C   UNK N   1      33.020  13.354   5.793  0.00  0.00     0.123 C 
BRANCH  20  21
HETATM   21  N   UNK N   1      34.417  13.182   5.513  0.00  0.00    -0.370 N 
HETATM   22  C   UNK N   1      35.351  13.741   6.184  0.00  0.00     0.146 C 
ATOM     23  HN  UNK N   1      34.680  12.580   4.733  1.00  0.00     0.161 HD
BRANCH  22  24
HETATM   24  C   UNK N   1      35.089  14.637   7.324  0.00  0.00     0.019 A 
HETATM   25  C   UNK N   1      34.686  15.990   7.211  0.00  0.00     0.052 A 
HETATM   26  C   UNK N   1      34.578  16.787   8.377  0.00  0.00     0.106 A 
HETATM   27  C   UNK N   1      34.842  16.205   9.622  0.00  0.00     0.073 A 
HETATM   28  C   UNK N   1      35.265  14.881   9.700  0.00  0.00     0.075 A 
HETATM   29  C   UNK N   1      35.405  14.125   8.559  0.00  0.00     0.052 A 
BRANCH  26  30
HETATM   30  N   UNK N   1      34.385  18.200   8.311  0.00  0.00    -0.116 N 
HETATM   31  O   UNK N   1      35.274  18.940   8.592  0.00  0.00    -0.532 OA
HETATM   32  O   UNK N   1      33.397  18.642   7.796  0.00  0.00    -0.532 OA
ENDBRANCH  26  30
BRANCH  28  33
HETATM   33  O   UNK N   1      35.856  14.429  10.812  0.00  0.00    -0.318 OA
BRANCH  33  34
HETATM   34  C   UNK N   1      35.034  13.743  11.695  0.00  0.00     0.298 C 
HETATM   35  C   UNK N   1      35.183  12.220  11.514  0.00  0.00     0.205 C 
HETATM   36  C   UNK N   1      36.592  11.833  11.952  0.00  0.00     0.183 C 
HETATM   37  C   UNK N   1      36.778  12.287  13.402  0.00  0.00     0.180 C 
HETATM   38  C   UNK N   1      36.519  13.811  13.518  0.00  0.00     0.179 C 
HETATM   39  O   UNK N   1      35.239  14.158  13.030  0.00  0.00    -0.348 OA
BRANCH  35  40
HETATM   40  O   UNK N   1      34.223  11.559  12.284  0.00  0.00    -0.388 OA
HETATM   41  H   UNK N   1      33.721  11.033  12.925  0.00  0.00     0.210 HD
ENDBRANCH  35  40
BRANCH  36  42
HETATM   42  O   UNK N   1      36.768  10.453  11.838  0.00  0.00    -0.390 OA
HETATM   43  H   UNK N   1      37.021   9.887  12.585  0.00  0.00     0.210 HD
ENDBRANCH  36  42
BRANCH  37  44
HETATM   44  O   UNK N   1      38.071  11.971  13.825  0.00  0.00    -0.390 OA
HETATM   45  H   UNK N   1      38.587  12.319  14.570  0.00  0.00     0.210 HD
ENDBRANCH  37  44
BRANCH  38  46
HETATM   46  C   UNK N   1      36.526  14.252  14.980  0.00  0.00     0.198 C 
BRANCH  46  47
HETATM   47  O   UNK N   1      36.295  13.185  15.847  0.00  0.00    -0.398 OA
HETATM   48  H   UNK N   1      36.433  12.242  15.666  0.00  0.00     0.209 HD
ENDBRANCH  46  47
ENDBRANCH  38  46
ENDBRANCH  33  34
ENDBRANCH  28  33
ENDBRANCH  22  24
BRANCH  22  49
HETATM   49  O   UNK N   1      36.627  13.421   5.897  0.00  0.00    -0.346 OA
HETATM   50  H   UNK N   1      37.211  12.710   6.073  0.00  0.00     0.219 HD
ENDBRANCH  22  49
ENDBRANCH  20  21
ENDBRANCH  19  20
ENDBRANCH  18  19
ENDBRANCH  15  18
ENDBRANCH  11  12
ENDBRANCH  10  11
ENDBRANCH   9  10
ENDBRANCH   7   9
ENDBRANCH   1   7
BRANCH   2  51
HETATM   51  N   UNK N   1      23.456  18.184   5.328  0.00  0.00    -0.385 N 
HETATM   52  H   UNK N   1      22.874  18.599   6.005  0.00  0.00     0.159 HD
BRANCH  51  53
HETATM   53  C   UNK N   1      23.553  16.757   5.237  0.00  0.00     0.121 C 
BRANCH  53  54
HETATM   54  C   UNK N   1      23.245  16.284   3.845  0.00  0.00     0.050 C 
BRANCH  54  55
HETATM   55  C   UNK N   1      23.264  14.757   3.759  0.00  0.00     0.274 C 
BRANCH  55  56
HETATM   56  N   UNK N   1      24.339  14.165   2.929  0.00  0.00     0.091 N 
HETATM   57  C   UNK N   1      24.209  12.703   3.011  0.00  0.00     0.302 C 
HETATM   58  C   UNK N   1      22.940  12.194   2.292  0.00  0.00     0.302 C 
HETATM   59  N   UNK N   1      22.177  13.327   1.749  0.00  0.00     0.091 N 
HETATM   60  C   UNK N   1      22.971  14.179   0.859  0.00  0.00     0.302 C 
HETATM   61  C   UNK N   1      24.306  14.551   1.508  0.00  0.00     0.302 C 
BRANCH  59  62
HETATM   62  C   UNK N   1      20.853  13.031   1.204  0.00  0.00     0.274 C 
BRANCH  62  63
HETATM   63  C   UNK N   1      19.704  13.897   1.724  0.00  0.00     0.050 C 
BRANCH  63  64
HETATM   64  C   UNK N   1      19.156  13.496   3.086  0.00  0.00     0.123 C 
BRANCH  64  65
HETATM   65  N   UNK N   1      19.675  14.303   4.166  0.00  0.00    -0.370 N 
HETATM   66  C   UNK N   1      20.031  13.802   5.287  0.00  0.00     0.146 C 
ATOM     67  HN  UNK N   1      19.761  15.310   4.028  1.00  0.00     0.161 HD
BRANCH  66  68
HETATM   68  C   UNK N   1      20.293  14.689   6.416  0.00  0.00     0.019 A 
HETATM   69  C   UNK N   1      20.128  16.096   6.443  0.00  0.00     0.052 A 
HETATM   70  C   UNK N   1      20.360  16.798   7.660  0.00  0.00     0.106 A 
HETATM   71  C   UNK N   1      20.671  16.069   8.813  0.00  0.00     0.073 A 
HETATM   72  C   UNK N   1      20.827  14.687   8.745  0.00  0.00     0.075 A 
HETATM   73  C   UNK N   1      20.663  14.027   7.557  0.00  0.00     0.052 A 
BRANCH  70  74
HETATM   74  N   UNK N   1      20.409  18.223   7.711  0.00  0.00    -0.116 N 
HETATM   75  O   UNK N   1      20.019  18.799   8.686  0.00  0.00    -0.532 OA
HETATM   76  O   UNK N   1      20.987  18.835   6.867  0.00  0.00    -0.532 OA
ENDBRANCH  70  74
BRANCH  72  77
HETATM   77  O   UNK N   1      21.383  14.008   9.750  0.00  0.00    -0.318 OA
BRANCH  77  78
HETATM   78  C   UNK N   1      21.661  12.672   9.511  0.00  0.00     0.298 C 
HETATM   79  C   UNK N   1      22.868  12.548   8.555  0.00  0.00     0.205 C 
HETATM   80  C   UNK N   1      24.086  13.137   9.273  0.00  0.00     0.183 C 
HETATM   81  C   UNK N   1      24.279  12.372  10.586  0.00  0.00     0.180 C 
HETATM   82  C   UNK N   1      22.984  12.455  11.432  0.00  0.00     0.179 C 
HETATM   83  O   UNK N   1      21.863  11.968  10.718  0.00  0.00    -0.348 OA
BRANCH  79  84
HETATM   84  O   UNK N   1      23.077  11.208   8.226  0.00  0.00    -0.388 OA
HETATM   85  H   UNK N   1      23.336  10.466   7.656  0.00  0.00     0.210 HD
ENDBRANCH  79  84
BRANCH  80  86
HETATM   86  O   UNK N   1      25.219  13.035   8.465  0.00  0.00    -0.390 OA
HETATM   87  H   UNK N   1      26.062  13.471   8.668  0.00  0.00     0.210 HD
ENDBRANCH  80  86
BRANCH  81  88
HETATM   88  O   UNK N   1      25.352  12.908  11.299  0.00  0.00    -0.390 OA
HETATM   89  H   UNK N   1      25.483  13.321  12.167  0.00  0.00     0.210 HD
ENDBRANCH  81  88
BRANCH  82  90
HETATM   90  C   UNK N   1      23.114  11.612  12.694  0.00  0.00     0.198 C 
BRANCH  90  91
HETATM   91  O   UNK N   1      23.779  12.330  13.693  0.00  0.00    -0.398 OA
HETATM   92  H   UNK N   1      24.295  13.047  14.094  0.00  0.00     0.209 HD
ENDBRANCH  90  91
ENDBRANCH  82  90
ENDBRANCH  77  78
ENDBRANCH  72  77
ENDBRANCH  66  68
BRANCH  66  93
HETATM   93  O   UNK N   1      19.925  12.471   5.505  0.00  0.00    -0.346 OA
HETATM   94  H   UNK N   1      19.360  11.814   5.148  0.00  0.00     0.219 HD
ENDBRANCH  66  93
ENDBRANCH  64  65
ENDBRANCH  63  64
ENDBRANCH  62  63
ENDBRANCH  59  62
ENDBRANCH  55  56
ENDBRANCH  54  55
ENDBRANCH  53  54
ENDBRANCH  51  53
ENDBRANCH   2  51
TORSDOF 38
ENDMDL
MODEL 3
REMARK VINA RESULT:      -6.9      1.519      2.287
REMARK WARNING: 32 MAX_TORS EXCEEDED!!!
REMARK  38 active torsions:
REMARK  status: ('A' for Active; 'I' for Inactive)
REMARK    1  A    between atoms: C_5  and  C_1 
REMARK    2  A    between atoms: C_9  and  C_1 
REMARK    3  A    between atoms: C_6  and  C_2 
REMARK    4  A    between atoms: C_10  and  C_2 
REMARK    5  A    between atoms: C_7  and  C_3 
REMARK    6  A    between atoms: C_11  and  C_3 
REMARK    7  A    between atoms: C_8  and  C_4 
REMARK    8  A    between atoms: C_12  and  C_4 
REMARK    9  A    between atoms: N_51  and  C_5 
REMARK   10  A    between atoms: N_52  and  C_6 
REMARK   11  A    between atoms: N_53  and  C_7 
REMARK   12  A    between atoms: N_55  and  C_8 
REMARK   13  A    between atoms: N_57  and  C_9 
REMARK   14  A    between atoms: N_58  and  C_10 
REMARK   15  A    between atoms: N_59  and  C_11 
REMARK   16  A    between atoms: N_60  and  C_12 
REMARK   17  A    between atoms: C_35  and  C_27 
REMARK   18  A    between atoms: O_63  and  C_27 
REMARK   19  A    between atoms: C_36  and  C_28 
REMARK   20  A    between atoms: O_64  and  C_28 
REMARK   21  A    between atoms: C_47  and  C_29 
REMARK   22  A    between atoms: C_48  and  C_30 
REMARK   23  A    between atoms: N_61  and  C_31 
REMARK   24  A    between atoms: N_62  and  C_32 
REMARK   25  A    between atoms: O_79  and  C_33 
REMARK   26  A    between atoms: O_80  and  C_34 
REMARK   27  A    between atoms: N_51  and  C_37 
REMARK   28  A    between atoms: N_52  and  C_38 
REMARK   29  A    between atoms: C_39  and  O_65 
REMARK   30  A    between atoms: O_66  and  C_40 
REMARK   31  A    between atoms: C_43  and  O_69 
REMARK   32  A    between atoms: O_70  and  C_44 
REMARK   33  A    between atoms: C_45  and  O_71 
REMARK   34  A    between atoms: O_72  and  C_46 
REMARK   35  A    between atoms: O_73  and  C_47 
REMARK   36  A    between atoms: O_74  and  C_48 
REMARK   37  A    between atoms: C_49  and  O_79 
REMARK   38  A    between atoms: O_80  and  C_50 
ROOT
HETATM    1  C   UNK N   1      25.026  13.949   3.380  0.00  0.00     0.114 A 
HETATM    2  C   UNK N   1      26.291  13.926   3.871  0.00  0.00     0.114 A 
HETATM    3  C   UNK N   1      24.705  12.695   4.037  0.00  0.00     0.252 A 
HETATM    4  C   UNK N   1      26.059  12.666   4.557  0.00  0.00     0.252 A 
HETATM    5  O   UNK N   1      23.686  12.038   4.154  0.00  0.00    -0.281 OA
HETATM    6  O   UNK N   1      26.717  11.957   5.299  0.00  0.00    -0.281 OA
ENDROOT
BRANCH   1   7
HETATM    7  N   UNK N   1      24.218  14.759   2.536  0.00  0.00    -0.385 N 
HETATM    8  H   UNK N   1      23.529  15.321   2.959  0.00  0.00     0.159 HD
BRANCH   7   9
HETATM    9  C   UNK N   1      24.342  14.810   1.102  0.00  0.00     0.121 C 
BRANCH   9  10
HETATM   10  C   UNK N   1      23.457  13.778   0.434  0.00  0.00     0.050 C 
BRANCH  10  11
HETATM   11  C   UNK N   1      22.098  13.745   1.115  0.00  0.00     0.274 C 
BRANCH  11  12
HETATM   12  N   UNK N   1      21.673  12.368   1.241  0.00  0.00     0.091 N 
HETATM   13  C   UNK N   1      20.495  12.119   0.439  0.00  0.00     0.302 C 
HETATM   14  C   UNK N   1      19.970  10.726   0.788  0.00  0.00     0.302 C 
HETATM   15  N   UNK N   1      21.005   9.677   0.918  0.00  0.00     0.091 N 
HETATM   16  C   UNK N   1      22.395  10.128   1.164  0.00  0.00     0.302 C 
HETATM   17  C   UNK N   1      22.691  11.518   0.670  0.00  0.00     0.302 C 
BRANCH  15  18
HETATM   18  C   UNK N   1      20.500   8.812   2.001  0.00  0.00     0.274 C 
BRANCH  18  19
HETATM   19  C   UNK N   1      19.482   9.416   2.997  0.00  0.00     0.050 C 
BRANCH  19  20
HETATM   20  C   UNK N   1      20.038   9.578   4.395  0.00  0.00     0.123 C 
BRANCH  20  21
HETATM   21  N   UNK N   1      19.899   8.327   5.083  0.00  0.00    -0.370 N 
HETATM   22  C   UNK N   1      20.868   7.718   5.653  0.00  0.00     0.146 C 
ATOM     23  HN  UNK N   1      18.975   7.898   5.120  1.00  0.00     0.161 HD
BRANCH  22  24
HETATM   24  C   UNK N   1      22.247   8.237   5.656  0.00  0.00     0.019 A 
HETATM   25  C   UNK N   1      23.307   7.719   4.874  0.00  0.00     0.052 A 
HETATM   26  C   UNK N   1      24.619   8.225   5.048  0.00  0.00     0.106 A 
HETATM   27  C   UNK N   1      24.829   9.255   5.972  0.00  0.00     0.073 A 
HETATM   28  C   UNK N   1      23.773   9.726   6.749  0.00  0.00     0.075 A 
HETATM   29  C   UNK N   1      22.511   9.200   6.600  0.00  0.00     0.052 A 
BRANCH  26  30
HETATM   30  N   UNK N   1      25.755   7.603   4.448  0.00  0.00    -0.116 N 
HETATM   31  O   UNK N   1      26.841   7.770   4.907  0.00  0.00    -0.532 OA
HETATM   32  O   UNK N   1      25.599   6.769   3.603  0.00  0.00    -0.532 OA
ENDBRANCH  26  30
BRANCH  28  33
HETATM   33  O   UNK N   1      24.018  10.430   7.859  0.00  0.00    -0.318 OA
BRANCH  33  34
HETATM   34  C   UNK N   1      23.173  11.506   8.088  0.00  0.00     0.298 C 
HETATM   35  C   UNK N   1      22.834  11.628   9.587  0.00  0.00     0.205 C 
HETATM   36  C   UNK N   1      24.114  12.006  10.326  0.00  0.00     0.183 C 
HETATM   37  C   UNK N   1      24.642  13.309   9.722  0.00  0.00     0.180 C 
HETATM   38  C   UNK N   1      24.868  13.133   8.198  0.00  0.00     0.179 C 
HETATM   39  O   UNK N   1      23.690  12.703   7.546  0.00  0.00    -0.348 OA
BRANCH  35  40
HETATM   40  O   UNK N   1      21.848  12.602   9.768  0.00  0.00    -0.388 OA
HETATM   41  H   UNK N   1      21.054  13.157   9.765  0.00  0.00     0.210 HD
ENDBRANCH  35  40
BRANCH  36  42
HETATM   42  O   UNK N   1      23.853  12.162  11.689  0.00  0.00    -0.390 OA
HETATM   43  H   UNK N   1      24.276  11.623  12.375  0.00  0.00     0.210 HD
ENDBRANCH  36  42
BRANCH  37  44
HETATM   44  O   UNK N   1      25.831  13.668  10.359  0.00  0.00    -0.390 OA
HETATM   45  H   UNK N   1      26.698  13.893   9.985  0.00  0.00     0.210 HD
ENDBRANCH  37  44
BRANCH  38  46
HETATM   46  C   UNK N   1      25.225  14.468   7.546  0.00  0.00     0.198 C 
BRANCH  46  47
HETATM   47  O   UNK N   1      24.214  14.923   6.703  0.00  0.00    -0.398 OA
HETATM   48  H   UNK N   1      24.318  15.315   5.821  0.00  0.00     0.209 HD
ENDBRANCH  46  47
ENDBRANCH  38  46
ENDBRANCH  33  34
ENDBRANCH  28  33
ENDBRANCH  22  24
BRANCH  22  49
HETATM   49  O   UNK N   1      20.598   6.604   6.360  0.00  0.00    -0.346 OA
HETATM   50  H   UNK N   1      20.696   5.679   6.247  0.00  0.00     0.219 HD
ENDBRANCH  22  49
ENDBRANCH  20  21
ENDBRANCH  19  20
ENDBRANCH  18  19
ENDBRANCH  15  18
ENDBRANCH  11  12
ENDBRANCH  10  11
ENDBRANCH   9  10
ENDBRANCH   7   9
ENDBRANCH   1   7
BRANCH   2  51
HETATM   51  N   UNK N   1      27.443  14.736   3.805  0.00  0.00    -0.385 N 
HETATM   52  H   UNK N   1      27.707  15.288   4.576  0.00  0.00     0.159 HD
BRANCH  51  53
HETATM   53  C   UNK N   1      28.228  14.749   2.606  0.00  0.00     0.121 C 
BRANCH  53  54
HETATM   54  C   UNK N   1      29.658  14.385   2.893  0.00  0.00     0.050 C 
BRANCH  54  55
HETATM   55  C   UNK N   1      30.005  14.613   4.365  0.00  0.00     0.274 C 
BRANCH  55  56
HETATM   56  N   UNK N   1      31.219  15.419   4.630  0.00  0.00     0.091 N 
HETATM   57  C   UNK N   1      31.011  16.744   4.030  0.00  0.00     0.302 C 
HETATM   58  C   UNK N   1      29.928  17.554   4.776  0.00  0.00     0.302 C 
HETATM   59  N   UNK N   1      29.364  16.753   5.873  0.00  0.00     0.091 N 
HETATM   60  C   UNK N   1      30.382  16.263   6.807  0.00  0.00     0.302 C 
HETATM   61  C   UNK N   1      31.540  15.604   6.055  0.00  0.00     0.302 C 
BRANCH  59  62
HETATM   62  C   UNK N   1      28.195  17.302   6.559  0.00  0.00     0.274 C 
BRANCH  62  63
HETATM   63  C   UNK N   1      28.339  18.727   7.098  0.00  0.00     0.050 C 
BRANCH  63  64
HETATM   64  C   UNK N   1      27.551  19.787   6.344  0.00  0.00     0.123 C 
BRANCH  64  65
HETATM   65  N   UNK N   1      26.235  19.343   5.950  0.00  0.00    -0.370 N 
HETATM   66  C   UNK N   1      25.861  19.299   4.728  0.00  0.00     0.146 C 
ATOM     67  HN  UNK N   1      25.578  19.053   6.675  1.00  0.00     0.161 HD
BRANCH  66  68
HETATM   68  C   UNK N   1      24.450  19.098   4.417  0.00  0.00     0.019 A 
HETATM   69  C   UNK N   1      23.674  19.836   3.491  0.00  0.00     0.052 A 
HETATM   70  C   UNK N   1      22.323  19.452   3.257  0.00  0.00     0.106 A 
HETATM   71  C   UNK N   1      21.823  18.310   3.893  0.00  0.00     0.073 A 
HETATM   72  C   UNK N   1      22.617  17.613   4.800  0.00  0.00     0.075 A 
HETATM   73  C   UNK N   1      23.895  18.026   5.065  0.00  0.00     0.052 A 
BRANCH  70  74
HETATM   74  N   UNK N   1      21.428  20.264   2.497  0.00  0.00    -0.116 N 
HETATM   75  O   UNK N   1      20.420  20.672   2.998  0.00  0.00    -0.532 OA
HETATM   76  O   UNK N   1      21.754  20.678   1.427  0.00  0.00    -0.532 OA
ENDBRANCH  70  74
BRANCH  72  77
HETATM   77  O   UNK N   1      22.088  16.698   5.614  0.00  0.00    -0.318 OA
BRANCH  77  78
HETATM   78  C   UNK N   1      20.711  16.564   5.578  0.00  0.00     0.298 C 
HETATM   79  C   UNK N   1      20.323  15.071   5.677  0.00  0.00     0.205 C 
HETATM   80  C   UNK N   1      20.785  14.568   7.048  0.00  0.00     0.183 C 
HETATM   81  C   UNK N   1      20.120  15.434   8.122  0.00  0.00     0.180 C 
HETATM   82  C   UNK N   1      20.470  16.923   7.879  0.00  0.00     0.179 C 
HETATM   83  O   UNK N   1      20.094  17.342   6.581  0.00  0.00    -0.348 OA
BRANCH  79  84
HETATM   84  O   UNK N   1      18.943  14.928   5.528  0.00  0.00    -0.388 OA
HETATM   85  H   UNK N   1      18.055  14.616   5.763  0.00  0.00     0.210 HD
ENDBRANCH  79  84
BRANCH  80  86
HETATM   86  O   UNK N   1      20.444  13.224   7.209  0.00  0.00    -0.390 OA
HETATM   87  H   UNK N   1      19.529  12.904   7.240  0.00  0.00     0.210 HD
ENDBRANCH  80  86
BRANCH  81  88
HETATM   88  O   UNK N   1      20.551  15.040   9.389  0.00  0.00    -0.390 OA
HETATM   89  H   UNK N   1      20.417  15.341  10.302  0.00  0.00     0.210 HD
ENDBRANCH  81  88
BRANCH  82  90
HETATM   90  C   UNK N   1      19.732  17.814   8.871  0.00  0.00     0.198 C 
BRANCH  90  91
HETATM   91  O   UNK N   1      20.074  19.155   8.669  0.00  0.00    -0.398 OA
HETATM   92  H   UNK N   1      20.092  20.024   8.240  0.00  0.00     0.209 HD
ENDBRANCH  90  91
ENDBRANCH  82  90
ENDBRANCH  77  78
ENDBRANCH  72  77
ENDBRANCH  66  68
BRANCH  66  93
HETATM   93  O   UNK N   1      26.705  19.682   3.742  0.00  0.00    -0.346 OA
HETATM   94  H   UNK N   1      26.648  19.645   2.808  0.00  0.00     0.219 HD
ENDBRANCH  66  93
ENDBRANCH  64  65
ENDBRANCH  63  64
ENDBRANCH  62  63
ENDBRANCH  59  62
ENDBRANCH  55  56
ENDBRANCH  54  55
ENDBRANCH  53  54
ENDBRANCH  51  53
ENDBRANCH   2  51
TORSDOF 38
ENDMDL
MODEL 4
REMARK VINA RESULT:      -6.7      5.548     11.227
REMARK WARNING: 32 MAX_TORS EXCEEDED!!!
REMARK  38 active torsions:
REMARK  status: ('A' for Active; 'I' for Inactive)
REMARK    1  A    between atoms: C_5  and  C_1 
REMARK    2  A    between atoms: C_9  and  C_1 
REMARK    3  A    between atoms: C_6  and  C_2 
REMARK    4  A    between atoms: C_10  and  C_2 
REMARK    5  A    between atoms: C_7  and  C_3 
REMARK    6  A    between atoms: C_11  and  C_3 
REMARK    7  A    between atoms: C_8  and  C_4 
REMARK    8  A    between atoms: C_12  and  C_4 
REMARK    9  A    between atoms: N_51  and  C_5 
REMARK   10  A    between atoms: N_52  and  C_6 
REMARK   11  A    between atoms: N_53  and  C_7 
REMARK   12  A    between atoms: N_55  and  C_8 
REMARK   13  A    between atoms: N_57  and  C_9 
REMARK   14  A    between atoms: N_58  and  C_10 
REMARK   15  A    between atoms: N_59  and  C_11 
REMARK   16  A    between atoms: N_60  and  C_12 
REMARK   17  A    between atoms: C_35  and  C_27 
REMARK   18  A    between atoms: O_63  and  C_27 
REMARK   19  A    between atoms: C_36  and  C_28 
REMARK   20  A    between atoms: O_64  and  C_28 
REMARK   21  A    between atoms: C_47  and  C_29 
REMARK   22  A    between atoms: C_48  and  C_30 
REMARK   23  A    between atoms: N_61  and  C_31 
REMARK   24  A    between atoms: N_62  and  C_32 
REMARK   25  A    between atoms: O_79  and  C_33 
REMARK   26  A    between atoms: O_80  and  C_34 
REMARK   27  A    between atoms: N_51  and  C_37 
REMARK   28  A    between atoms: N_52  and  C_38 
REMARK   29  A    between atoms: C_39  and  O_65 
REMARK   30  A    between atoms: O_66  and  C_40 
REMARK   31  A    between atoms: C_43  and  O_69 
REMARK   32  A    between atoms: O_70  and  C_44 
REMARK   33  A    between atoms: C_45  and  O_71 
REMARK   34  A    between atoms: O_72  and  C_46 
REMARK   35  A    between atoms: O_73  and  C_47 
REMARK   36  A    between atoms: O_74  and  C_48 
REMARK   37  A    between atoms: C_49  and  O_79 
REMARK   38  A    between atoms: O_80  and  C_50 
ROOT
HETATM    1  C   UNK N   1      28.755  17.998   7.210  0.00  0.00     0.114 A 
HETATM    2  C   UNK N   1      29.842  17.280   6.829  0.00  0.00     0.114 A 
HETATM    3  C   UNK N   1      29.112  17.869   8.612  0.00  0.00     0.252 A 
HETATM    4  C   UNK N   1      30.270  17.095   8.205  0.00  0.00     0.252 A 
HETATM    5  O   UNK N   1      28.655  18.321   9.646  0.00  0.00    -0.281 OA
HETATM    6  O   UNK N   1      31.231  16.573   8.745  0.00  0.00    -0.281 OA
ENDROOT
BRANCH   1   7
HETATM    7  N   UNK N   1      27.632  18.636   6.620  0.00  0.00    -0.385 N 
HETATM    8  H   UNK N   1      26.740  18.433   6.987  0.00  0.00     0.159 HD
BRANCH   7   9
HETATM    9  C   UNK N   1      27.711  19.560   5.518  0.00  0.00     0.121 C 
BRANCH   9  10
HETATM   10  C   UNK N   1      27.763  18.833   4.189  0.00  0.00     0.050 C 
BRANCH  10  11
HETATM   11  C   UNK N   1      26.383  18.303   3.836  0.00  0.00     0.274 C 
BRANCH  11  12
HETATM   12  N   UNK N   1      26.329  16.894   4.158  0.00  0.00     0.091 N 
HETATM   13  C   UNK N   1      25.280  16.236   3.409  0.00  0.00     0.302 C 
HETATM   14  C   UNK N   1      25.127  14.816   3.955  0.00  0.00     0.302 C 
HETATM   15  N   UNK N   1      26.395  14.104   4.222  0.00  0.00     0.091 N 
HETATM   16  C   UNK N   1      27.612  14.933   4.392  0.00  0.00     0.302 C 
HETATM   17  C   UNK N   1      27.550  16.271   3.705  0.00  0.00     0.302 C 
BRANCH  15  18
HETATM   18  C   UNK N   1      26.103  13.294   5.421  0.00  0.00     0.274 C 
BRANCH  18  19
HETATM   19  C   UNK N   1      25.652  14.033   6.703  0.00  0.00     0.050 C 
BRANCH  19  20
HETATM   20  C   UNK N   1      24.495  13.359   7.406  0.00  0.00     0.123 C 
BRANCH  20  21
HETATM   21  N   UNK N   1      23.740  12.626   6.431  0.00  0.00    -0.370 N 
HETATM   22  C   UNK N   1      22.565  12.954   6.048  0.00  0.00     0.146 C 
ATOM     23  HN  UNK N   1      24.164  11.794   6.021  1.00  0.00     0.161 HD
BRANCH  22  24
HETATM   24  C   UNK N   1      21.851  14.128   6.578  0.00  0.00     0.019 A 
HETATM   25  C   UNK N   1      21.060  14.130   7.752  0.00  0.00     0.052 A 
HETATM   26  C   UNK N   1      20.325  15.290   8.100  0.00  0.00     0.106 A 
HETATM   27  C   UNK N   1      20.425  16.423   7.285  0.00  0.00     0.073 A 
HETATM   28  C   UNK N   1      21.186  16.384   6.120  0.00  0.00     0.075 A 
HETATM   29  C   UNK N   1      21.866  15.240   5.770  0.00  0.00     0.052 A 
BRANCH  26  30
HETATM   30  N   UNK N   1      19.353  15.283   9.145  0.00  0.00    -0.116 N 
HETATM   31  O   UNK N   1      18.512  16.125   9.186  0.00  0.00    -0.532 OA
HETATM   32  O   UNK N   1      19.265  14.334   9.871  0.00  0.00    -0.532 OA
ENDBRANCH  26  30
BRANCH  28  33
HETATM   33  O   UNK N   1      21.007  17.306   5.168  0.00  0.00    -0.318 OA
BRANCH  33  34
HETATM   34  C   UNK N   1      21.687  17.085   3.979  0.00  0.00     0.298 C 
HETATM   35  C   UNK N   1      20.711  16.685   2.855  0.00  0.00     0.205 C 
HETATM   36  C   UNK N   1      19.828  17.891   2.552  0.00  0.00     0.183 C 
HETATM   37  C   UNK N   1      20.739  19.060   2.168  0.00  0.00     0.180 C 
HETATM   38  C   UNK N   1      21.751  19.340   3.310  0.00  0.00     0.179 C 
HETATM   39  O   UNK N   1      22.502  18.186   3.630  0.00  0.00    -0.348 OA
BRANCH  35  40
HETATM   40  O   UNK N   1      21.433  16.298   1.723  0.00  0.00    -0.388 OA
HETATM   41  H   UNK N   1      21.970  15.858   1.047  0.00  0.00     0.210 HD
ENDBRANCH  35  40
BRANCH  36  42
HETATM   42  O   UNK N   1      18.945  17.590   1.512  0.00  0.00    -0.390 OA
HETATM   43  H   UNK N   1      18.894  18.109   0.694  0.00  0.00     0.210 HD
ENDBRANCH  36  42
BRANCH  37  44
HETATM   44  O   UNK N   1      19.961  20.190   1.911  0.00  0.00    -0.390 OA
HETATM   45  H   UNK N   1      20.214  21.055   1.550  0.00  0.00     0.210 HD
ENDBRANCH  37  44
BRANCH  38  46
HETATM   46  C   UNK N   1      22.780  20.382   2.877  0.00  0.00     0.198 C 
BRANCH  46  47
HETATM   47  O   UNK N   1      22.260  21.674   2.913  0.00  0.00    -0.398 OA
HETATM   48  H   UNK N   1      22.706  22.477   3.228  0.00  0.00     0.209 HD
ENDBRANCH  46  47
ENDBRANCH  38  46
ENDBRANCH  33  34
ENDBRANCH  28  33
ENDBRANCH  22  24
BRANCH  22  49
HETATM   49  O   UNK N   1      21.998  12.251   5.049  0.00  0.00    -0.346 OA
HETATM   50  H   UNK N   1      22.288  11.756   4.308  0.00  0.00     0.219 HD
ENDBRANCH  22  49
ENDBRANCH  20  21
ENDBRANCH  19  20
ENDBRANCH  18  19
ENDBRANCH  15  18
ENDBRANCH  11  12
ENDBRANCH  10  11
ENDBRANCH   9  10
ENDBRANCH   7   9
ENDBRANCH   1   7
BRANCH   2  51
HETATM   51  N   UNK N   1      30.416  16.831   5.622  0.00  0.00    -0.385 N 
HETATM   52  H   UNK N   1      30.064  16.029   5.173  0.00  0.00     0.159 HD
BRANCH  51  53
HETATM   53  C   UNK N   1      31.516  17.552   5.053  0.00  0.00     0.121 C 
BRANCH  53  54
HETATM   54  C   UNK N   1      31.946  16.940   3.749  0.00  0.00     0.050 C 
BRANCH  54  55
HETATM   55  C   UNK N   1      33.248  16.153   3.907  0.00  0.00     0.274 C 
BRANCH  55  56
HETATM   56  N   UNK N   1      33.180  14.709   3.584  0.00  0.00     0.091 N 
HETATM   57  C   UNK N   1      34.542  14.168   3.681  0.00  0.00     0.302 C 
HETATM   58  C   UNK N   1      35.051  14.139   5.139  0.00  0.00     0.302 C 
HETATM   59  N   UNK N   1      34.037  14.706   6.040  0.00  0.00     0.091 N 
HETATM   60  C   UNK N   1      32.736  14.038   5.930  0.00  0.00     0.302 C 
HETATM   61  C   UNK N   1      32.306  13.918   4.467  0.00  0.00     0.302 C 
BRANCH  59  62
HETATM   62  C   UNK N   1      34.436  14.926   7.429  0.00  0.00     0.274 C 
BRANCH  62  63
HETATM   63  C   UNK N   1      34.458  16.382   7.899  0.00  0.00     0.050 C 
BRANCH  63  64
HETATM   64  C   UNK N   1      34.720  16.580   9.384  0.00  0.00     0.123 C 
BRANCH  64  65
HETATM   65  N   UNK N   1      35.053  15.353  10.070  0.00  0.00    -0.370 N 
HETATM   66  C   UNK N   1      36.164  15.187  10.681  0.00  0.00     0.146 C 
ATOM     67  HN  UNK N   1      34.376  14.590  10.066  1.00  0.00     0.161 HD
BRANCH  66  68
HETATM   68  C   UNK N   1      36.546  13.850  11.121  0.00  0.00     0.019 A 
HETATM   69  C   UNK N   1      37.088  12.817  10.316  0.00  0.00     0.052 A 
HETATM   70  C   UNK N   1      37.476  11.592  10.930  0.00  0.00     0.106 A 
HETATM   71  C   UNK N   1      37.382  11.472  12.321  0.00  0.00     0.073 A 
HETATM   72  C   UNK N   1      36.841  12.508  13.076  0.00  0.00     0.075 A 
HETATM   73  C   UNK N   1      36.413  13.659  12.471  0.00  0.00     0.052 A 
BRANCH  70  74
HETATM   74  N   UNK N   1      37.838  10.445  10.161  0.00  0.00    -0.116 N 
HETATM   75  O   UNK N   1      37.247  10.193   9.151  0.00  0.00    -0.532 OA
HETATM   76  O   UNK N   1      38.827   9.833  10.425  0.00  0.00    -0.532 OA
ENDBRANCH  70  74
BRANCH  72  77
HETATM   77  O   UNK N   1      36.490  12.320  14.350  0.00  0.00    -0.318 OA
BRANCH  77  78
HETATM   78  C   UNK N   1      35.132  12.238  14.608  0.00  0.00     0.298 C 
HETATM   79  C   UNK N   1      34.739  10.773  14.904  0.00  0.00     0.205 C 
HETATM   80  C   UNK N   1      35.465  10.354  16.186  0.00  0.00     0.183 C 
HETATM   81  C   UNK N   1      35.058  11.322  17.301  0.00  0.00     0.180 C 
HETATM   82  C   UNK N   1      35.384  12.774  16.874  0.00  0.00     0.179 C 
HETATM   83  O   UNK N   1      34.756  13.111  15.652  0.00  0.00    -0.348 OA
BRANCH  79  84
HETATM   84  O   UNK N   1      33.355  10.673  15.053  0.00  0.00    -0.388 OA
HETATM   85  H   UNK N   1      32.487  10.896  15.425  0.00  0.00     0.210 HD
ENDBRANCH  79  84
BRANCH  80  86
HETATM   86  O   UNK N   1      35.134   9.040  16.521  0.00  0.00    -0.390 OA
HETATM   87  H   UNK N   1      34.816   8.775  17.398  0.00  0.00     0.210 HD
ENDBRANCH  80  86
BRANCH  81  88
HETATM   88  O   UNK N   1      35.734  11.005  18.480  0.00  0.00    -0.390 OA
HETATM   89  H   UNK N   1      36.174  11.497  19.191  0.00  0.00     0.210 HD
ENDBRANCH  81  88
BRANCH  82  90
HETATM   90  C   UNK N   1      34.889  13.763  17.922  0.00  0.00     0.198 C 
BRANCH  90  91
HETATM   91  O   UNK N   1      35.491  13.505  19.157  0.00  0.00    -0.398 OA
HETATM   92  H   UNK N   1      36.117  13.121  19.791  0.00  0.00     0.209 HD
ENDBRANCH  90  91
ENDBRANCH  82  90
ENDBRANCH  77  78
ENDBRANCH  72  77
ENDBRANCH  66  68
BRANCH  66  93
HETATM   93  O   UNK N   1      37.087  16.177  10.700  0.00  0.00    -0.346 OA
HETATM   94  H   UNK N   1      37.251  16.901  10.128  0.00  0.00     0.219 HD
ENDBRANCH  66  93
ENDBRANCH  64  65
ENDBRANCH  63  64
ENDBRANCH  62  63
ENDBRANCH  59  62
ENDBRANCH  55  56
ENDBRANCH  54  55
ENDBRANCH  53  54
ENDBRANCH  51  53
ENDBRANCH   2  51
TORSDOF 38
ENDMDL
MODEL 5
REMARK VINA RESULT:      -6.7      3.621      8.677
REMARK WARNING: 32 MAX_TORS EXCEEDED!!!
REMARK  38 active torsions:
REMARK  status: ('A' for Active; 'I' for Inactive)
REMARK    1  A    between atoms: C_5  and  C_1 
REMARK    2  A    between atoms: C_9  and  C_1 
REMARK    3  A    between atoms: C_6  and  C_2 
REMARK    4  A    between atoms: C_10  and  C_2 
REMARK    5  A    between atoms: C_7  and  C_3 
REMARK    6  A    between atoms: C_11  and  C_3 
REMARK    7  A    between atoms: C_8  and  C_4 
REMARK    8  A    between atoms: C_12  and  C_4 
REMARK    9  A    between atoms: N_51  and  C_5 
REMARK   10  A    between atoms: N_52  and  C_6 
REMARK   11  A    between atoms: N_53  and  C_7 
REMARK   12  A    between atoms: N_55  and  C_8 
REMARK   13  A    between atoms: N_57  and  C_9 
REMARK   14  A    between atoms: N_58  and  C_10 
REMARK   15  A    between atoms: N_59  and  C_11 
REMARK   16  A    between atoms: N_60  and  C_12 
REMARK   17  A    between atoms: C_35  and  C_27 
REMARK   18  A    between atoms: O_63  and  C_27 
REMARK   19  A    between atoms: C_36  and  C_28 
REMARK   20  A    between atoms: O_64  and  C_28 
REMARK   21  A    between atoms: C_47  and  C_29 
REMARK   22  A    between atoms: C_48  and  C_30 
REMARK   23  A    between atoms: N_61  and  C_31 
REMARK   24  A    between atoms: N_62  and  C_32 
REMARK   25  A    between atoms: O_79  and  C_33 
REMARK   26  A    between atoms: O_80  and  C_34 
REMARK   27  A    between atoms: N_51  and  C_37 
REMARK   28  A    between atoms: N_52  and  C_38 
REMARK   29  A    between atoms: C_39  and  O_65 
REMARK   30  A    between atoms: O_66  and  C_40 
REMARK   31  A    between atoms: C_43  and  O_69 
REMARK   32  A    between atoms: O_70  and  C_44 
REMARK   33  A    between atoms: C_45  and  O_71 
REMARK   34  A    between atoms: O_72  and  C_46 
REMARK   35  A    between atoms: O_73  and  C_47 
REMARK   36  A    between atoms: O_74  and  C_48 
REMARK   37  A    between atoms: C_49  and  O_79 
REMARK   38  A    between atoms: O_80  and  C_50 
ROOT
HETATM    1  C   UNK N   1      25.472  13.597   3.536  0.00  0.00     0.114 A 
HETATM    2  C   UNK N   1      24.855  14.250   4.553  0.00  0.00     0.114 A 
HETATM    3  C   UNK N   1      24.202  13.124   3.016  0.00  0.00     0.252 A 
HETATM    4  C   UNK N   1      23.542  13.816   4.107  0.00  0.00     0.252 A 
HETATM    5  O   UNK N   1      23.875  12.497   2.024  0.00  0.00    -0.281 OA
HETATM    6  O   UNK N   1      22.397  14.023   4.473  0.00  0.00    -0.281 OA
ENDROOT
BRANCH   1   7
HETATM    7  N   UNK N   1      26.790  13.348   3.065  0.00  0.00    -0.385 N 
HETATM    8  H   UNK N   1      26.967  13.471   2.104  0.00  0.00     0.159 HD
BRANCH   7   9
HETATM    9  C   UNK N   1      27.883  12.926   3.902  0.00  0.00     0.121 C 
BRANCH   9  10
HETATM   10  C   UNK N   1      28.740  11.886   3.209  0.00  0.00     0.050 C 
BRANCH  10  11
HETATM   11  C   UNK N   1      28.946  12.273   1.753  0.00  0.00     0.274 C 
BRANCH  11  12
HETATM   12  N   UNK N   1      30.272  11.866   1.346  0.00  0.00     0.091 N 
HETATM   13  C   UNK N   1      30.520  10.487   1.708  0.00  0.00     0.302 C 
HETATM   14  C   UNK N   1      31.999  10.189   1.458  0.00  0.00     0.302 C 
HETATM   15  N   UNK N   1      32.543  10.724   0.192  0.00  0.00     0.091 N 
HETATM   16  C   UNK N   1      31.799  11.836  -0.447  0.00  0.00     0.302 C 
HETATM   17  C   UNK N   1      30.337  11.883  -0.096  0.00  0.00     0.302 C 
BRANCH  15  18
HETATM   18  C   UNK N   1      33.928  11.105   0.533  0.00  0.00     0.274 C 
BRANCH  18  19
HETATM   19  C   UNK N   1      34.289  12.609   0.527  0.00  0.00     0.050 C 
BRANCH  19  20
HETATM   20  C   UNK N   1      34.294  13.228   1.907  0.00  0.00     0.123 C 
BRANCH  20  21
HETATM   21  N   UNK N   1      33.050  13.918   2.096  0.00  0.00    -0.370 N 
HETATM   22  C   UNK N   1      32.393  13.912   3.192  0.00  0.00     0.146 C 
ATOM     23  HN  UNK N   1      32.668  14.444   1.310  1.00  0.00     0.161 HD
BRANCH  22  24
HETATM   24  C   UNK N   1      32.843  13.181   4.389  0.00  0.00     0.019 A 
HETATM   25  C   UNK N   1      32.520  11.835   4.682  0.00  0.00     0.052 A 
HETATM   26  C   UNK N   1      32.913  11.274   5.923  0.00  0.00     0.106 A 
HETATM   27  C   UNK N   1      33.646  12.060   6.818  0.00  0.00     0.073 A 
HETATM   28  C   UNK N   1      33.924  13.391   6.517  0.00  0.00     0.075 A 
HETATM   29  C   UNK N   1      33.504  13.938   5.327  0.00  0.00     0.052 A 
BRANCH  26  30
HETATM   30  N   UNK N   1      32.438  10.001   6.361  0.00  0.00    -0.116 N 
HETATM   31  O   UNK N   1      31.269   9.775   6.388  0.00  0.00    -0.532 OA
HETATM   32  O   UNK N   1      33.211   9.100   6.523  0.00  0.00    -0.532 OA
ENDBRANCH  26  30
BRANCH  28  33
HETATM   33  O   UNK N   1      34.292  14.237   7.486  0.00  0.00    -0.318 OA
BRANCH  33  34
HETATM   34  C   UNK N   1      33.260  14.915   8.117  0.00  0.00     0.298 C 
HETATM   35  C   UNK N   1      33.243  14.607   9.627  0.00  0.00     0.205 C 
HETATM   36  C   UNK N   1      34.504  15.209  10.240  0.00  0.00     0.183 C 
HETATM   37  C   UNK N   1      34.511  16.708   9.933  0.00  0.00     0.180 C 
HETATM   38  C   UNK N   1      34.431  16.936   8.401  0.00  0.00     0.179 C 
HETATM   39  O   UNK N   1      33.299  16.300   7.842  0.00  0.00    -0.348 OA
BRANCH  35  40
HETATM   40  O   UNK N   1      32.096  15.157  10.205  0.00  0.00    -0.388 OA
HETATM   41  H   UNK N   1      31.210  15.479  10.430  0.00  0.00     0.210 HD
ENDBRANCH  35  40
BRANCH  36  42
HETATM   42  O   UNK N   1      34.520  14.986  11.619  0.00  0.00    -0.390 OA
HETATM   43  H   UNK N   1      34.472  15.701  12.272  0.00  0.00     0.210 HD
ENDBRANCH  36  42
BRANCH  37  44
HETATM   44  O   UNK N   1      35.669  17.285  10.459  0.00  0.00    -0.390 OA
HETATM   45  H   UNK N   1      35.993  18.198  10.403  0.00  0.00     0.210 HD
ENDBRANCH  37  44
BRANCH  38  46
HETATM   46  C   UNK N   1      34.259  18.420   8.083  0.00  0.00     0.198 C 
BRANCH  46  47
HETATM   47  O   UNK N   1      35.334  19.179   8.538  0.00  0.00    -0.398 OA
HETATM   48  H   UNK N   1      36.157  18.851   8.936  0.00  0.00     0.209 HD
ENDBRANCH  46  47
ENDBRANCH  38  46
ENDBRANCH  33  34
ENDBRANCH  28  33
ENDBRANCH  22  24
BRANCH  22  49
HETATM   49  O   UNK N   1      31.293  14.684   3.285  0.00  0.00    -0.346 OA
HETATM   50  H   UNK N   1      31.102  15.593   3.410  0.00  0.00     0.219 HD
ENDBRANCH  22  49
ENDBRANCH  20  21
ENDBRANCH  19  20
ENDBRANCH  18  19
ENDBRANCH  15  18
ENDBRANCH  11  12
ENDBRANCH  10  11
ENDBRANCH   9  10
ENDBRANCH   7   9
ENDBRANCH   1   7
BRANCH   2  51
HETATM   51  N   UNK N   1      25.233  15.049   5.653  0.00  0.00    -0.385 N 
HETATM   52  H   UNK N   1      25.922  15.744   5.547  0.00  0.00     0.159 HD
BRANCH  51  53
HETATM   53  C   UNK N   1      24.606  14.841   6.924  0.00  0.00     0.121 C 
BRANCH  53  54
HETATM   54  C   UNK N   1      25.174  13.633   7.614  0.00  0.00     0.050 C 
BRANCH  54  55
HETATM   55  C   UNK N   1      24.276  13.176   8.765  0.00  0.00     0.274 C 
BRANCH  55  56
HETATM   56  N   UNK N   1      23.750  11.794   8.671  0.00  0.00     0.091 N 
HETATM   57  C   UNK N   1      23.181  11.447   9.981  0.00  0.00     0.302 C 
HETATM   58  C   UNK N   1      21.897  12.251  10.286  0.00  0.00     0.302 C 
HETATM   59  N   UNK N   1      21.613  13.186   9.188  0.00  0.00     0.091 N 
HETATM   60  C   UNK N   1      21.514  12.525   7.883  0.00  0.00     0.302 C 
HETATM   61  C   UNK N   1      22.708  11.597   7.649  0.00  0.00     0.302 C 
BRANCH  59  62
HETATM   62  C   UNK N   1      20.540  14.155   9.405  0.00  0.00     0.274 C 
BRANCH  62  63
HETATM   63  C   UNK N   1      20.857  15.604   9.029  0.00  0.00     0.050 C 
BRANCH  63  64
HETATM   64  C   UNK N   1      19.871  16.254   8.069  0.00  0.00     0.123 C 
BRANCH  64  65
HETATM   65  N   UNK N   1      20.499  17.172   7.148  0.00  0.00    -0.370 N 
HETATM   66  C   UNK N   1      20.644  16.907   5.905  0.00  0.00     0.146 C 
ATOM     67  HN  UNK N   1      20.840  18.066   7.502  1.00  0.00     0.161 HD
BRANCH  66  68
HETATM   68  C   UNK N   1      21.513  17.749   5.090  0.00  0.00     0.019 A 
HETATM   69  C   UNK N   1      21.104  18.726   4.149  0.00  0.00     0.052 A 
HETATM   70  C   UNK N   1      22.093  19.513   3.494  0.00  0.00     0.106 A 
HETATM   71  C   UNK N   1      23.436  19.352   3.854  0.00  0.00     0.073 A 
HETATM   72  C   UNK N   1      23.797  18.378   4.781  0.00  0.00     0.075 A 
HETATM   73  C   UNK N   1      22.846  17.583   5.360  0.00  0.00     0.052 A 
BRANCH  70  74
HETATM   74  N   UNK N   1      21.772  20.368   2.397  0.00  0.00    -0.116 N 
HETATM   75  O   UNK N   1      20.740  20.975   2.396  0.00  0.00    -0.532 OA
HETATM   76  O   UNK N   1      22.592  20.613   1.566  0.00  0.00    -0.532 OA
ENDBRANCH  70  74
BRANCH  72  77
HETATM   77  O   UNK N   1      25.073  18.019   4.938  0.00  0.00    -0.318 OA
BRANCH  77  78
HETATM   78  C   UNK N   1      26.024  18.881   4.418  0.00  0.00     0.298 C 
HETATM   79  C   UNK N   1      26.798  19.566   5.566  0.00  0.00     0.205 C 
HETATM   80  C   UNK N   1      27.554  18.472   6.327  0.00  0.00     0.183 C 
HETATM   81  C   UNK N   1      28.468  17.748   5.334  0.00  0.00     0.180 C 
HETATM   82  C   UNK N   1      27.625  17.191   4.161  0.00  0.00     0.179 C 
HETATM   83  O   UNK N   1      26.884  18.212   3.520  0.00  0.00    -0.348 OA
BRANCH  79  84
HETATM   84  O   UNK N   1      27.677  20.516   5.044  0.00  0.00    -0.388 OA
HETATM   85  H   UNK N   1      28.015  21.141   4.383  0.00  0.00     0.210 HD
ENDBRANCH  79  84
BRANCH  80  86
HETATM   86  O   UNK N   1      28.294  19.032   7.369  0.00  0.00    -0.390 OA
HETATM   87  H   UNK N   1      29.048  18.589   7.788  0.00  0.00     0.210 HD
ENDBRANCH  80  86
BRANCH  81  88
HETATM   88  O   UNK N   1      29.144  16.709   5.976  0.00  0.00    -0.390 OA
HETATM   89  H   UNK N   1      29.774  16.629   6.708  0.00  0.00     0.210 HD
ENDBRANCH  81  88
BRANCH  82  90
HETATM   90  C   UNK N   1      28.526  16.560   3.107  0.00  0.00     0.198 C 
BRANCH  90  91
HETATM   91  O   UNK N   1      29.790  17.156   3.126  0.00  0.00    -0.398 OA
HETATM   92  H   UNK N   1      30.454  17.856   3.233  0.00  0.00     0.209 HD
ENDBRANCH  90  91
ENDBRANCH  82  90
ENDBRANCH  77  78
ENDBRANCH  72  77
ENDBRANCH  66  68
BRANCH  66  93
HETATM   93  O   UNK N   1      20.209  15.728   5.404  0.00  0.00    -0.346 OA
HETATM   94  H   UNK N   1      20.353  15.295   4.585  0.00  0.00     0.219 HD
ENDBRANCH  66  93
ENDBRANCH  64  65
ENDBRANCH  63  64
ENDBRANCH  62  63
ENDBRANCH  59  62
ENDBRANCH  55  56
ENDBRANCH  54  55
ENDBRANCH  53  54
ENDBRANCH  51  53
ENDBRANCH   2  51
TORSDOF 38
ENDMDL
MODEL 6
REMARK VINA RESULT:      -6.6      3.721      8.873
REMARK WARNING: 32 MAX_TORS EXCEEDED!!!
REMARK  38 active torsions:
REMARK  status: ('A' for Active; 'I' for Inactive)
REMARK    1  A    between atoms: C_5  and  C_1 
REMARK    2  A    between atoms: C_9  and  C_1 
REMARK    3  A    between atoms: C_6  and  C_2 
REMARK    4  A    between atoms: C_10  and  C_2 
REMARK    5  A    between atoms: C_7  and  C_3 
REMARK    6  A    between atoms: C_11  and  C_3 
REMARK    7  A    between atoms: C_8  and  C_4 
REMARK    8  A    between atoms: C_12  and  C_4 
REMARK    9  A    between atoms: N_51  and  C_5 
REMARK   10  A    between atoms: N_52  and  C_6 
REMARK   11  A    between atoms: N_53  and  C_7 
REMARK   12  A    between atoms: N_55  and  C_8 
REMARK   13  A    between atoms: N_57  and  C_9 
REMARK   14  A    between atoms: N_58  and  C_10 
REMARK   15  A    between atoms: N_59  and  C_11 
REMARK   16  A    between atoms: N_60  and  C_12 
REMARK   17  A    between atoms: C_35  and  C_27 
REMARK   18  A    between atoms: O_63  and  C_27 
REMARK   19  A    between atoms: C_36  and  C_28 
REMARK   20  A    between atoms: O_64  and  C_28 
REMARK   21  A    between atoms: C_47  and  C_29 
REMARK   22  A    between atoms: C_48  and  C_30 
REMARK   23  A    between atoms: N_61  and  C_31 
REMARK   24  A    between atoms: N_62  and  C_32 
REMARK   25  A    between atoms: O_79  and  C_33 
REMARK   26  A    between atoms: O_80  and  C_34 
REMARK   27  A    between atoms: N_51  and  C_37 
REMARK   28  A    between atoms: N_52  and  C_38 
REMARK   29  A    between atoms: C_39  and  O_65 
REMARK   30  A    between atoms: O_66  and  C_40 
REMARK   31  A    between atoms: C_43  and  O_69 
REMARK   32  A    between atoms: O_70  and  C_44 
REMARK   33  A    between atoms: C_45  and  O_71 
REMARK   34  A    between atoms: O_72  and  C_46 
REMARK   35  A    between atoms: O_73  and  C_47 
REMARK   36  A    between atoms: O_74  and  C_48 
REMARK   37  A    between atoms: C_49  and  O_79 
REMARK   38  A    between atoms: O_80  and  C_50 
ROOT
HETATM    1  C   UNK N   1      20.091  16.326   6.747  0.00  0.00     0.114 A 
HETATM    2  C   UNK N   1      20.909  17.408   6.785  0.00  0.00     0.114 A 
HETATM    3  C   UNK N   1      19.316  16.822   7.869  0.00  0.00     0.252 A 
HETATM    4  C   UNK N   1      20.195  17.976   7.915  0.00  0.00     0.252 A 
HETATM    5  O   UNK N   1      18.305  16.443   8.433  0.00  0.00    -0.281 OA
HETATM    6  O   UNK N   1      20.278  19.012   8.554  0.00  0.00    -0.281 OA
ENDROOT
BRANCH   1   7
HETATM    7  N   UNK N   1      19.946  15.117   6.014  0.00  0.00    -0.385 N 
HETATM    8  H   UNK N   1      20.476  14.338   6.300  0.00  0.00     0.159 HD
BRANCH   7   9
HETATM    9  C   UNK N   1      19.075  14.958   4.878  0.00  0.00     0.121 C 
BRANCH   9  10
HETATM   10  C   UNK N   1      19.810  15.214   3.578  0.00  0.00     0.050 C 
BRANCH  10  11
HETATM   11  C   UNK N   1      19.521  14.093   2.592  0.00  0.00     0.274 C 
BRANCH  11  12
HETATM   12  N   UNK N   1      20.755  13.722   1.934  0.00  0.00     0.091 N 
HETATM   13  C   UNK N   1      20.486  12.975   0.724  0.00  0.00     0.302 C 
HETATM   14  C   UNK N   1      21.814  12.424   0.203  0.00  0.00     0.302 C 
HETATM   15  N   UNK N   1      22.948  13.372   0.244  0.00  0.00     0.091 N 
HETATM   16  C   UNK N   1      22.832  14.525   1.168  0.00  0.00     0.302 C 
HETATM   17  C   UNK N   1      21.415  14.924   1.484  0.00  0.00     0.302 C 
BRANCH  15  18
HETATM   18  C   UNK N   1      24.112  12.521   0.560  0.00  0.00     0.274 C 
BRANCH  18  19
HETATM   19  C   UNK N   1      23.845  11.059   0.990  0.00  0.00     0.050 C 
BRANCH  19  20
HETATM   20  C   UNK N   1      24.163  10.798   2.446  0.00  0.00     0.123 C 
BRANCH  20  21
HETATM   21  N   UNK N   1      25.171  11.730   2.862  0.00  0.00    -0.370 N 
HETATM   22  C   UNK N   1      25.571  11.851   4.070  0.00  0.00     0.146 C 
ATOM     23  HN  UNK N   1      25.592  12.331   2.154  1.00  0.00     0.161 HD
BRANCH  22  24
HETATM   24  C   UNK N   1      25.028  11.044   5.177  0.00  0.00     0.019 A 
HETATM   25  C   UNK N   1      25.230   9.652   5.335  0.00  0.00     0.052 A 
HETATM   26  C   UNK N   1      24.560   8.961   6.374  0.00  0.00     0.106 A 
HETATM   27  C   UNK N   1      23.737   9.683   7.245  0.00  0.00     0.073 A 
HETATM   28  C   UNK N   1      23.533  11.046   7.049  0.00  0.00     0.075 A 
HETATM   29  C   UNK N   1      24.157  11.701   6.012  0.00  0.00     0.052 A 
BRANCH  26  30
HETATM   30  N   UNK N   1      24.555   7.535   6.454  0.00  0.00    -0.116 N 
HETATM   31  O   UNK N   1      24.572   6.995   7.515  0.00  0.00    -0.532 OA
HETATM   32  O   UNK N   1      24.346   6.885   5.470  0.00  0.00    -0.532 OA
ENDBRANCH  26  30
BRANCH  28  33
HETATM   33  O   UNK N   1      22.497  11.662   7.628  0.00  0.00    -0.318 OA
BRANCH  33  34
HETATM   34  C   UNK N   1      22.786  12.864   8.259  0.00  0.00     0.298 C 
HETATM   35  C   UNK N   1      21.503  13.514   8.814  0.00  0.00     0.205 C 
HETATM   36  C   UNK N   1      20.980  12.627   9.940  0.00  0.00     0.183 C 
HETATM   37  C   UNK N   1      22.087  12.492  10.989  0.00  0.00     0.180 C 
HETATM   38  C   UNK N   1      23.371  11.919  10.333  0.00  0.00     0.179 C 
HETATM   39  O   UNK N   1      23.791  12.712   9.240  0.00  0.00    -0.348 OA
BRANCH  35  40
HETATM   40  O   UNK N   1      21.793  14.797   9.284  0.00  0.00    -0.388 OA
HETATM   41  H   UNK N   1      21.992  15.738   9.408  0.00  0.00     0.210 HD
ENDBRANCH  35  40
BRANCH  36  42
HETATM   42  O   UNK N   1      19.833  13.192  10.502  0.00  0.00    -0.390 OA
HETATM   43  H   UNK N   1      19.337  12.777  11.225  0.00  0.00     0.210 HD
ENDBRANCH  36  42
BRANCH  37  44
HETATM   44  O   UNK N   1      21.649  11.661  12.022  0.00  0.00    -0.390 OA
HETATM   45  H   UNK N   1      21.753  10.704  12.142  0.00  0.00     0.210 HD
ENDBRANCH  37  44
BRANCH  38  46
HETATM   46  C   UNK N   1      24.538  11.941  11.318  0.00  0.00     0.198 C 
BRANCH  46  47
HETATM   47  O   UNK N   1      24.139  12.346  12.590  0.00  0.00    -0.398 OA
HETATM   48  H   UNK N   1      23.234  12.522  12.892  0.00  0.00     0.209 HD
ENDBRANCH  46  47
ENDBRANCH  38  46
ENDBRANCH  33  34
ENDBRANCH  28  33
ENDBRANCH  22  24
BRANCH  22  49
HETATM   49  O   UNK N   1      26.598  12.684   4.325  0.00  0.00    -0.346 OA
HETATM   50  H   UNK N   1      27.498  12.760   4.074  0.00  0.00     0.219 HD
ENDBRANCH  22  49
ENDBRANCH  20  21
ENDBRANCH  19  20
ENDBRANCH  18  19
ENDBRANCH  15  18
ENDBRANCH  11  12
ENDBRANCH  10  11
ENDBRANCH   9  10
ENDBRANCH   7   9
ENDBRANCH   1   7
BRANCH   2  51
HETATM   51  N   UNK N   1      22.029  17.886   6.072  0.00  0.00    -0.385 N 
HETATM   52  H   UNK N   1      22.924  17.859   6.480  0.00  0.00     0.159 HD
BRANCH  51  53
HETATM   53  C   UNK N   1      21.852  18.410   4.751  0.00  0.00     0.121 C 
BRANCH  53  54
HETATM   54  C   UNK N   1      22.825  17.787   3.789  0.00  0.00     0.050 C 
BRANCH  54  55
HETATM   55  C   UNK N   1      24.158  17.474   4.471  0.00  0.00     0.274 C 
BRANCH  55  56
HETATM   56  N   UNK N   1      24.595  16.059   4.427  0.00  0.00     0.091 N 
HETATM   57  C   UNK N   1      25.572  15.931   3.337  0.00  0.00     0.302 C 
HETATM   58  C   UNK N   1      26.896  16.658   3.658  0.00  0.00     0.302 C 
HETATM   59  N   UNK N   1      26.804  17.324   4.965  0.00  0.00     0.091 N 
HETATM   60  C   UNK N   1      26.438  16.408   6.050  0.00  0.00     0.302 C 
HETATM   61  C   UNK N   1      25.220  15.566   5.666  0.00  0.00     0.302 C 
BRANCH  59  62
HETATM   62  C   UNK N   1      27.904  18.214   5.333  0.00  0.00     0.274 C 
BRANCH  62  63
HETATM   63  C   UNK N   1      27.680  19.082   6.573  0.00  0.00     0.050 C 
BRANCH  63  64
HETATM   64  C   UNK N   1      28.463  18.663   7.807  0.00  0.00     0.123 C 
BRANCH  64  65
HETATM   65  N   UNK N   1      29.640  17.886   7.496  0.00  0.00    -0.370 N 
HETATM   66  C   UNK N   1      30.548  17.636   8.361  0.00  0.00     0.146 C 
ATOM     67  HN  UNK N   1      29.751  17.522   6.549  1.00  0.00     0.161 HD
BRANCH  66  68
HETATM   68  C   UNK N   1      31.824  17.081   7.920  0.00  0.00     0.019 A 
HETATM   69  C   UNK N   1      32.238  16.870   6.582  0.00  0.00     0.052 A 
HETATM   70  C   UNK N   1      33.553  16.386   6.332  0.00  0.00     0.106 A 
HETATM   71  C   UNK N   1      34.425  16.204   7.412  0.00  0.00     0.073 A 
HETATM   72  C   UNK N   1      33.978  16.418   8.713  0.00  0.00     0.075 A 
HETATM   73  C   UNK N   1      32.692  16.824   8.948  0.00  0.00     0.052 A 
BRANCH  70  74
HETATM   74  N   UNK N   1      33.967  15.963   5.033  0.00  0.00    -0.116 N 
HETATM   75  O   UNK N   1      34.882  15.200   4.918  0.00  0.00    -0.532 OA
HETATM   76  O   UNK N   1      33.308  16.229   4.076  0.00  0.00    -0.532 OA
ENDBRANCH  70  74
BRANCH  72  77
HETATM   77  O   UNK N   1      34.688  15.996   9.761  0.00  0.00    -0.318 OA
BRANCH  77  78
HETATM   78  C   UNK N   1      34.183  14.904  10.447  0.00  0.00     0.298 C 
HETATM   79  C   UNK N   1      34.580  13.598   9.723  0.00  0.00     0.205 C 
HETATM   80  C   UNK N   1      36.107  13.491   9.773  0.00  0.00     0.183 C 
HETATM   81  C   UNK N   1      36.538  13.518  11.243  0.00  0.00     0.180 C 
HETATM   82  C   UNK N   1      36.002  14.805  11.918  0.00  0.00     0.179 C 
HETATM   83  O   UNK N   1      34.597  14.912  11.797  0.00  0.00    -0.348 OA
BRANCH  79  84
HETATM   84  O   UNK N   1      33.978  12.506  10.350  0.00  0.00    -0.388 OA
HETATM   85  H   UNK N   1      33.893  11.579  10.624  0.00  0.00     0.210 HD
ENDBRANCH  79  84
BRANCH  80  86
HETATM   86  O   UNK N   1      36.530  12.316   9.151  0.00  0.00    -0.390 OA
HETATM   87  H   UNK N   1      36.358  12.113   8.218  0.00  0.00     0.210 HD
ENDBRANCH  80  86
BRANCH  81  88
HETATM   88  O   UNK N   1      37.930  13.471  11.335  0.00  0.00    -0.390 OA
HETATM   89  H   UNK N   1      38.586  13.474  12.048  0.00  0.00     0.210 HD
ENDBRANCH  81  88
BRANCH  82  90
HETATM   90  C   UNK N   1      36.327  14.802  13.407  0.00  0.00     0.198 C 
BRANCH  90  91
HETATM   91  O   UNK N   1      36.796  13.545  13.801  0.00  0.00    -0.398 OA
HETATM   92  H   UNK N   1      36.774  12.593  13.984  0.00  0.00     0.209 HD
ENDBRANCH  90  91
ENDBRANCH  82  90
ENDBRANCH  77  78
ENDBRANCH  72  77
ENDBRANCH  66  68
BRANCH  66  93
HETATM   93  O   UNK N   1      30.436  18.109   9.623  0.00  0.00    -0.346 OA
HETATM   94  H   UNK N   1      31.070  18.390  10.254  0.00  0.00     0.219 HD
ENDBRANCH  66  93
ENDBRANCH  64  65
ENDBRANCH  63  64
ENDBRANCH  62  63
ENDBRANCH  59  62
ENDBRANCH  55  56
ENDBRANCH  54  55
ENDBRANCH  53  54
ENDBRANCH  51  53
ENDBRANCH   2  51
TORSDOF 38
ENDMDL
MODEL 7
REMARK VINA RESULT:      -6.6      4.632     10.584
REMARK WARNING: 32 MAX_TORS EXCEEDED!!!
REMARK  38 active torsions:
REMARK  status: ('A' for Active; 'I' for Inactive)
REMARK    1  A    between atoms: C_5  and  C_1 
REMARK    2  A    between atoms: C_9  and  C_1 
REMARK    3  A    between atoms: C_6  and  C_2 
REMARK    4  A    between atoms: C_10  and  C_2 
REMARK    5  A    between atoms: C_7  and  C_3 
REMARK    6  A    between atoms: C_11  and  C_3 
REMARK    7  A    between atoms: C_8  and  C_4 
REMARK    8  A    between atoms: C_12  and  C_4 
REMARK    9  A    between atoms: N_51  and  C_5 
REMARK   10  A    between atoms: N_52  and  C_6 
REMARK   11  A    between atoms: N_53  and  C_7 
REMARK   12  A    between atoms: N_55  and  C_8 
REMARK   13  A    between atoms: N_57  and  C_9 
REMARK   14  A    between atoms: N_58  and  C_10 
REMARK   15  A    between atoms: N_59  and  C_11 
REMARK   16  A    between atoms: N_60  and  C_12 
REMARK   17  A    between atoms: C_35  and  C_27 
REMARK   18  A    between atoms: O_63  and  C_27 
REMARK   19  A    between atoms: C_36  and  C_28 
REMARK   20  A    between atoms: O_64  and  C_28 
REMARK   21  A    between atoms: C_47  and  C_29 
REMARK   22  A    between atoms: C_48  and  C_30 
REMARK   23  A    between atoms: N_61  and  C_31 
REMARK   24  A    between atoms: N_62  and  C_32 
REMARK   25  A    between atoms: O_79  and  C_33 
REMARK   26  A    between atoms: O_80  and  C_34 
REMARK   27  A    between atoms: N_51  and  C_37 
REMARK   28  A    between atoms: N_52  and  C_38 
REMARK   29  A    between atoms: C_39  and  O_65 
REMARK   30  A    between atoms: O_66  and  C_40 
REMARK   31  A    between atoms: C_43  and  O_69 
REMARK   32  A    between atoms: O_70  and  C_44 
REMARK   33  A    between atoms: C_45  and  O_71 
REMARK   34  A    between atoms: O_72  and  C_46 
REMARK   35  A    between atoms: O_73  and  C_47 
REMARK   36  A    between atoms: O_74  and  C_48 
REMARK   37  A    between atoms: C_49  and  O_79 
REMARK   38  A    between atoms: O_80  and  C_50 
ROOT
HETATM    1  C   UNK N   1      28.756  18.038   7.213  0.00  0.00     0.114 A 
HETATM    2  C   UNK N   1      29.825  17.284   6.853  0.00  0.00     0.114 A 
HETATM    3  C   UNK N   1      29.126  17.968   8.615  0.00  0.00     0.252 A 
HETATM    4  C   UNK N   1      30.266  17.155   8.232  0.00  0.00     0.252 A 
HETATM    5  O   UNK N   1      28.689  18.475   9.632  0.00  0.00    -0.281 OA
HETATM    6  O   UNK N   1      31.224  16.641   8.785  0.00  0.00    -0.281 OA
ENDROOT
BRANCH   1   7
HETATM    7  N   UNK N   1      27.636  18.669   6.606  0.00  0.00    -0.385 N 
HETATM    8  H   UNK N   1      26.739  18.435   6.939  0.00  0.00     0.159 HD
BRANCH   7   9
HETATM    9  C   UNK N   1      27.729  19.626   5.534  0.00  0.00     0.121 C 
BRANCH   9  10
HETATM   10  C   UNK N   1      27.788  18.940   4.184  0.00  0.00     0.050 C 
BRANCH  10  11
HETATM   11  C   UNK N   1      26.414  18.403   3.817  0.00  0.00     0.274 C 
BRANCH  11  12
HETATM   12  N   UNK N   1      26.359  16.996   4.148  0.00  0.00     0.091 N 
HETATM   13  C   UNK N   1      25.279  16.344   3.441  0.00  0.00     0.302 C 
HETATM   14  C   UNK N   1      25.133  14.927   3.999  0.00  0.00     0.302 C 
HETATM   15  N   UNK N   1      26.404  14.206   4.225  0.00  0.00     0.091 N 
HETATM   16  C   UNK N   1      27.633  15.026   4.347  0.00  0.00     0.302 C 
HETATM   17  C   UNK N   1      27.557  16.360   3.655  0.00  0.00     0.302 C 
BRANCH  15  18
HETATM   18  C   UNK N   1      26.147  13.405   5.438  0.00  0.00     0.274 C 
BRANCH  18  19
HETATM   19  C   UNK N   1      25.646  14.144   6.702  0.00  0.00     0.050 C 
BRANCH  19  20
HETATM   20  C   UNK N   1      24.534  13.412   7.420  0.00  0.00     0.123 C 
BRANCH  20  21
HETATM   21  N   UNK N   1      23.800  12.647   6.453  0.00  0.00    -0.370 N 
HETATM   22  C   UNK N   1      22.619  12.942   6.061  0.00  0.00     0.146 C 
ATOM     23  HN  UNK N   1      24.245  11.819   6.057  1.00  0.00     0.161 HD
BRANCH  22  24
HETATM   24  C   UNK N   1      21.876  14.107   6.571  0.00  0.00     0.019 A 
HETATM   25  C   UNK N   1      21.109  14.117   7.761  0.00  0.00     0.052 A 
HETATM   26  C   UNK N   1      20.341  15.262   8.089  0.00  0.00     0.106 A 
HETATM   27  C   UNK N   1      20.387  16.373   7.240  0.00  0.00     0.073 A 
HETATM   28  C   UNK N   1      21.126  16.324   6.061  0.00  0.00     0.075 A 
HETATM   29  C   UNK N   1      21.837  15.194   5.731  0.00  0.00     0.052 A 
BRANCH  26  30
HETATM   30  N   UNK N   1      19.391  15.254   9.155  0.00  0.00    -0.116 N 
HETATM   31  O   UNK N   1      18.575  16.118   9.236  0.00  0.00    -0.532 OA
HETATM   32  O   UNK N   1      19.291  14.288   9.856  0.00  0.00    -0.532 OA
ENDBRANCH  26  30
BRANCH  28  33
HETATM   33  O   UNK N   1      20.897  17.212   5.087  0.00  0.00    -0.318 OA
BRANCH  33  34
HETATM   34  C   UNK N   1      21.601  17.008   3.909  0.00  0.00     0.298 C 
HETATM   35  C   UNK N   1      20.647  16.635   2.757  0.00  0.00     0.205 C 
HETATM   36  C   UNK N   1      19.779  17.853   2.457  0.00  0.00     0.183 C 
HETATM   37  C   UNK N   1      20.705  19.023   2.115  0.00  0.00     0.180 C 
HETATM   38  C   UNK N   1      21.694  19.274   3.283  0.00  0.00     0.179 C 
HETATM   39  O   UNK N   1      22.430  18.109   3.598  0.00  0.00    -0.348 OA
BRANCH  35  40
HETATM   40  O   UNK N   1      21.391  16.265   1.633  0.00  0.00    -0.388 OA
HETATM   41  H   UNK N   1      21.968  16.206   0.857  0.00  0.00     0.210 HD
ENDBRANCH  35  40
BRANCH  36  42
HETATM   42  O   UNK N   1      18.917  17.578   1.394  0.00  0.00    -0.390 OA
HETATM   43  H   UNK N   1      19.138  17.768   0.469  0.00  0.00     0.210 HD
ENDBRANCH  36  42
BRANCH  37  44
HETATM   44  O   UNK N   1      19.940  20.163   1.862  0.00  0.00    -0.390 OA
HETATM   45  H   UNK N   1      19.065  20.250   1.450  0.00  0.00     0.210 HD
ENDBRANCH  37  44
BRANCH  38  46
HETATM   46  C   UNK N   1      22.739  20.317   2.892  0.00  0.00     0.198 C 
BRANCH  46  47
HETATM   47  O   UNK N   1      22.215  21.608   2.897  0.00  0.00    -0.398 OA
HETATM   48  H   UNK N   1      22.343  22.290   3.576  0.00  0.00     0.209 HD
ENDBRANCH  46  47
ENDBRANCH  38  46
ENDBRANCH  33  34
ENDBRANCH  28  33
ENDBRANCH  22  24
BRANCH  22  49
HETATM   49  O   UNK N   1      22.072  12.212   5.070  0.00  0.00    -0.346 OA
HETATM   50  H   UNK N   1      21.869  11.310   4.915  0.00  0.00     0.219 HD
ENDBRANCH  22  49
ENDBRANCH  20  21
ENDBRANCH  19  20
ENDBRANCH  18  19
ENDBRANCH  15  18
ENDBRANCH  11  12
ENDBRANCH  10  11
ENDBRANCH   9  10
ENDBRANCH   7   9
ENDBRANCH   1   7
BRANCH   2  51
HETATM   51  N   UNK N   1      30.377  16.770   5.662  0.00  0.00    -0.385 N 
HETATM   52  H   UNK N   1      30.018  15.944   5.264  0.00  0.00     0.159 HD
BRANCH  51  53
HETATM   53  C   UNK N   1      31.464  17.459   5.033  0.00  0.00     0.121 C 
BRANCH  53  54
HETATM   54  C   UNK N   1      32.055  16.637   3.922  0.00  0.00     0.050 C 
BRANCH  54  55
HETATM   55  C   UNK N   1      33.306  15.891   4.387  0.00  0.00     0.274 C 
BRANCH  55  56
HETATM   56  N   UNK N   1      33.247  14.412   4.316  0.00  0.00     0.091 N 
HETATM   57  C   UNK N   1      34.608  13.903   4.531  0.00  0.00     0.302 C 
HETATM   58  C   UNK N   1      35.088  14.129   5.982  0.00  0.00     0.302 C 
HETATM   59  N   UNK N   1      34.056  14.837   6.752  0.00  0.00     0.091 N 
HETATM   60  C   UNK N   1      32.759  14.154   6.735  0.00  0.00     0.302 C 
HETATM   61  C   UNK N   1      32.358  13.781   5.306  0.00  0.00     0.302 C 
BRANCH  59  62
HETATM   62  C   UNK N   1      34.427  15.296   8.090  0.00  0.00     0.274 C 
BRANCH  62  63
HETATM   63  C   UNK N   1      34.491  16.812   8.287  0.00  0.00     0.050 C 
BRANCH  63  64
HETATM   64  C   UNK N   1      34.929  17.268   9.670  0.00  0.00     0.123 C 
BRANCH  64  65
HETATM   65  N   UNK N   1      34.822  16.231  10.670  0.00  0.00    -0.370 N 
HETATM   66  C   UNK N   1      35.846  15.705  11.227  0.00  0.00     0.146 C 
ATOM     67  HN  UNK N   1      33.894  15.905  10.941  1.00  0.00     0.161 HD
BRANCH  66  68
HETATM   68  C   UNK N   1      35.686  14.493  12.023  0.00  0.00     0.019 A 
HETATM   69  C   UNK N   1      35.973  14.341  13.401  0.00  0.00     0.052 A 
HETATM   70  C   UNK N   1      35.683  13.101  14.038  0.00  0.00     0.106 A 
HETATM   71  C   UNK N   1      35.052  12.093  13.300  0.00  0.00     0.073 A 
HETATM   72  C   UNK N   1      34.789  12.279  11.946  0.00  0.00     0.075 A 
HETATM   73  C   UNK N   1      35.128  13.453  11.327  0.00  0.00     0.052 A 
BRANCH  70  74
HETATM   74  N   UNK N   1      36.127  12.810  15.363  0.00  0.00    -0.116 N 
HETATM   75  O   UNK N   1      36.751  11.811  15.577  0.00  0.00    -0.532 OA
HETATM   76  O   UNK N   1      36.029  13.630  16.223  0.00  0.00    -0.532 OA
ENDBRANCH  70  74
BRANCH  72  77
HETATM   77  O   UNK N   1      34.446  11.253  11.164  0.00  0.00    -0.318 OA
BRANCH  77  78
HETATM   78  C   UNK N   1      35.322  10.939  10.140  0.00  0.00     0.298 C 
HETATM   79  C   UNK N   1      36.019   9.592  10.438  0.00  0.00     0.205 C 
HETATM   80  C   UNK N   1      34.937   8.508  10.449  0.00  0.00     0.183 C 
HETATM   81  C   UNK N   1      34.228   8.530   9.092  0.00  0.00     0.180 C 
HETATM   82  C   UNK N   1      33.658   9.945   8.826  0.00  0.00     0.179 C 
HETATM   83  O   UNK N   1      34.668  10.934   8.889  0.00  0.00    -0.348 OA
BRANCH  79  84
HETATM   84  O   UNK N   1      36.984   9.331   9.463  0.00  0.00    -0.388 OA
HETATM   85  H   UNK N   1      37.321   9.213   8.560  0.00  0.00     0.210 HD
ENDBRANCH  79  84
BRANCH  80  86
HETATM   86  O   UNK N   1      35.508   7.258  10.694  0.00  0.00    -0.390 OA
HETATM   87  H   UNK N   1      36.465   7.101  10.707  0.00  0.00     0.210 HD
ENDBRANCH  80  86
BRANCH  81  88
HETATM   88  O   UNK N   1      33.199   7.587   9.075  0.00  0.00    -0.390 OA
HETATM   89  H   UNK N   1      32.546   7.249   9.707  0.00  0.00     0.210 HD
ENDBRANCH  81  88
BRANCH  82  90
HETATM   90  C   UNK N   1      33.041  10.020   7.435  0.00  0.00     0.198 C 
BRANCH  90  91
HETATM   91  O   UNK N   1      31.701   9.625   7.474  0.00  0.00    -0.398 OA
HETATM   92  H   UNK N   1      30.736   9.710   7.428  0.00  0.00     0.209 HD
ENDBRANCH  90  91
ENDBRANCH  82  90
ENDBRANCH  77  78
ENDBRANCH  72  77
ENDBRANCH  66  68
BRANCH  66  93
HETATM   93  O   UNK N   1      37.091  16.110  10.885  0.00  0.00    -0.346 OA
HETATM   94  H   UNK N   1      37.945  15.789  11.104  0.00  0.00     0.219 HD
ENDBRANCH  66  93
ENDBRANCH  64  65
ENDBRANCH  63  64
ENDBRANCH  62  63
ENDBRANCH  59  62
ENDBRANCH  55  56
ENDBRANCH  54  55
ENDBRANCH  53  54
ENDBRANCH  51  53
ENDBRANCH   2  51
TORSDOF 38
ENDMDL
MODEL 8
REMARK VINA RESULT:      -6.6      4.392      9.953
REMARK WARNING: 32 MAX_TORS EXCEEDED!!!
REMARK  38 active torsions:
REMARK  status: ('A' for Active; 'I' for Inactive)
REMARK    1  A    between atoms: C_5  and  C_1 
REMARK    2  A    between atoms: C_9  and  C_1 
REMARK    3  A    between atoms: C_6  and  C_2 
REMARK    4  A    between atoms: C_10  and  C_2 
REMARK    5  A    between atoms: C_7  and  C_3 
REMARK    6  A    between atoms: C_11  and  C_3 
REMARK    7  A    between atoms: C_8  and  C_4 
REMARK    8  A    between atoms: C_12  and  C_4 
REMARK    9  A    between atoms: N_51  and  C_5 
REMARK   10  A    between atoms: N_52  and  C_6 
REMARK   11  A    between atoms: N_53  and  C_7 
REMARK   12  A    between atoms: N_55  and  C_8 
REMARK   13  A    between atoms: N_57  and  C_9 
REMARK   14  A    between atoms: N_58  and  C_10 
REMARK   15  A    between atoms: N_59  and  C_11 
REMARK   16  A    between atoms: N_60  and  C_12 
REMARK   17  A    between atoms: C_35  and  C_27 
REMARK   18  A    between atoms: O_63  and  C_27 
REMARK   19  A    between atoms: C_36  and  C_28 
REMARK   20  A    between atoms: O_64  and  C_28 
REMARK   21  A    between atoms: C_47  and  C_29 
REMARK   22  A    between atoms: C_48  and  C_30 
REMARK   23  A    between atoms: N_61  and  C_31 
REMARK   24  A    between atoms: N_62  and  C_32 
REMARK   25  A    between atoms: O_79  and  C_33 
REMARK   26  A    between atoms: O_80  and  C_34 
REMARK   27  A    between atoms: N_51  and  C_37 
REMARK   28  A    between atoms: N_52  and  C_38 
REMARK   29  A    between atoms: C_39  and  O_65 
REMARK   30  A    between atoms: O_66  and  C_40 
REMARK   31  A    between atoms: C_43  and  O_69 
REMARK   32  A    between atoms: O_70  and  C_44 
REMARK   33  A    between atoms: C_45  and  O_71 
REMARK   34  A    between atoms: O_72  and  C_46 
REMARK   35  A    between atoms: O_73  and  C_47 
REMARK   36  A    between atoms: O_74  and  C_48 
REMARK   37  A    between atoms: C_49  and  O_79 
REMARK   38  A    between atoms: O_80  and  C_50 
ROOT
HETATM    1  C   UNK N   1      20.903  13.562   1.285  0.00  0.00     0.114 A 
HETATM    2  C   UNK N   1      21.341  12.283   1.406  0.00  0.00     0.114 A 
HETATM    3  C   UNK N   1      19.520  13.126   1.224  0.00  0.00     0.252 A 
HETATM    4  C   UNK N   1      19.987  11.758   1.346  0.00  0.00     0.252 A 
HETATM    5  O   UNK N   1      18.450  13.707   1.186  0.00  0.00    -0.281 OA
HETATM    6  O   UNK N   1      19.491  10.647   1.436  0.00  0.00    -0.281 OA
ENDROOT
BRANCH   1   7
HETATM    7  N   UNK N   1      21.440  14.875   1.197  0.00  0.00    -0.385 N 
HETATM    8  H   UNK N   1      22.416  14.968   1.097  0.00  0.00     0.159 HD
BRANCH   7   9
HETATM    9  C   UNK N   1      20.650  16.078   1.245  0.00  0.00     0.121 C 
BRANCH   9  10
HETATM   10  C   UNK N   1      20.466  16.561   2.670  0.00  0.00     0.050 C 
BRANCH  10  11
HETATM   11  C   UNK N   1      21.769  16.411   3.438  0.00  0.00     0.274 C 
BRANCH  11  12
HETATM   12  N   UNK N   1      21.471  15.940   4.773  0.00  0.00     0.091 N 
HETATM   13  C   UNK N   1      22.443  16.437   5.722  0.00  0.00     0.302 C 
HETATM   14  C   UNK N   1      22.208  15.728   7.057  0.00  0.00     0.302 C 
HETATM   15  N   UNK N   1      20.791  15.597   7.458  0.00  0.00     0.091 N 
HETATM   16  C   UNK N   1      19.773  15.714   6.388  0.00  0.00     0.302 C 
HETATM   17  C   UNK N   1      20.218  16.517   5.196  0.00  0.00     0.302 C 
BRANCH  15  18
HETATM   18  C   UNK N   1      20.735  14.288   8.139  0.00  0.00     0.274 C 
BRANCH  18  19
HETATM   19  C   UNK N   1      21.400  14.166   9.530  0.00  0.00     0.050 C 
BRANCH  19  20
HETATM   20  C   UNK N   1      21.997  12.800   9.789  0.00  0.00     0.123 C 
BRANCH  20  21
HETATM   21  N   UNK N   1      23.248  12.976  10.469  0.00  0.00    -0.370 N 
HETATM   22  C   UNK N   1      24.379  13.034   9.873  0.00  0.00     0.146 C 
ATOM     23  HN  UNK N   1      23.237  13.060  11.485  1.00  0.00     0.161 HD
BRANCH  22  24
HETATM   24  C   UNK N   1      24.518  12.916   8.412  0.00  0.00     0.019 A 
HETATM   25  C   UNK N   1      24.092  11.804   7.647  0.00  0.00     0.052 A 
HETATM   26  C   UNK N   1      24.386  11.752   6.262  0.00  0.00     0.106 A 
HETATM   27  C   UNK N   1      25.065  12.825   5.674  0.00  0.00     0.073 A 
HETATM   28  C   UNK N   1      25.498  13.893   6.456  0.00  0.00     0.075 A 
HETATM   29  C   UNK N   1      25.242  13.916   7.807  0.00  0.00     0.052 A 
BRANCH  26  30
HETATM   30  N   UNK N   1      24.173  10.572   5.487  0.00  0.00    -0.116 N 
HETATM   31  O   UNK N   1      23.567  10.629   4.463  0.00  0.00    -0.532 OA
HETATM   32  O   UNK N   1      24.758   9.564   5.764  0.00  0.00    -0.532 OA
ENDBRANCH  26  30
BRANCH  28  33
HETATM   33  O   UNK N   1      26.438  14.726   5.995  0.00  0.00    -0.318 OA
BRANCH  33  34
HETATM   34  C   UNK N   1      26.393  16.020   6.493  0.00  0.00     0.298 C 
HETATM   35  C   UNK N   1      27.757  16.428   7.084  0.00  0.00     0.205 C 
HETATM   36  C   UNK N   1      28.757  16.514   5.935  0.00  0.00     0.183 C 
HETATM   37  C   UNK N   1      28.219  17.520   4.915  0.00  0.00     0.180 C 
HETATM   38  C   UNK N   1      26.807  17.090   4.440  0.00  0.00     0.179 C 
HETATM   39  O   UNK N   1      25.919  16.937   5.529  0.00  0.00    -0.348 OA
BRANCH  35  40
HETATM   40  O   UNK N   1      27.638  17.659   7.735  0.00  0.00    -0.388 OA
HETATM   41  H   UNK N   1      27.364  18.512   8.105  0.00  0.00     0.210 HD
ENDBRANCH  35  40
BRANCH  36  42
HETATM   42  O   UNK N   1      30.006  16.914   6.415  0.00  0.00    -0.390 OA
HETATM   43  H   UNK N   1      30.420  16.528   7.202  0.00  0.00     0.210 HD
ENDBRANCH  36  42
BRANCH  37  44
HETATM   44  O   UNK N   1      29.100  17.602   3.835  0.00  0.00    -0.390 OA
HETATM   45  H   UNK N   1      30.069  17.665   3.821  0.00  0.00     0.210 HD
ENDBRANCH  37  44
BRANCH  38  46
HETATM   46  C   UNK N   1      26.181  18.169   3.558  0.00  0.00     0.198 C 
BRANCH  46  47
HETATM   47  O   UNK N   1      26.824  19.397   3.700  0.00  0.00    -0.398 OA
HETATM   48  H   UNK N   1      27.737  19.612   3.452  0.00  0.00     0.209 HD
ENDBRANCH  46  47
ENDBRANCH  38  46
ENDBRANCH  33  34
ENDBRANCH  28  33
ENDBRANCH  22  24
BRANCH  22  49
HETATM   49  O   UNK N   1      25.475  13.309  10.605  0.00  0.00    -0.346 OA
HETATM   50  H   UNK N   1      25.978  14.068  10.827  0.00  0.00     0.219 HD
ENDBRANCH  22  49
ENDBRANCH  20  21
ENDBRANCH  19  20
ENDBRANCH  18  19
ENDBRANCH  15  18
ENDBRANCH  11  12
ENDBRANCH  10  11
ENDBRANCH   9  10
ENDBRANCH   7   9
ENDBRANCH   1   7
BRANCH   2  51
HETATM   51  N   UNK N   1      22.578  11.619   1.537  0.00  0.00    -0.385 N 
HETATM   52  H   UNK N   1      22.636  10.771   2.033  0.00  0.00     0.159 HD
BRANCH  51  53
HETATM   53  C   UNK N   1      23.750  12.188   0.942  0.00  0.00     0.121 C 
BRANCH  53  54
HETATM   54  C   UNK N   1      24.653  12.781   1.987  0.00  0.00     0.050 C 
BRANCH  54  55
HETATM   55  C   UNK N   1      26.121  12.689   1.571  0.00  0.00     0.274 C 
BRANCH  55  56
HETATM   56  N   UNK N   1      26.769  11.369   1.754  0.00  0.00     0.091 N 
HETATM   57  C   UNK N   1      28.038  11.391   1.015  0.00  0.00     0.302 C 
HETATM   58  C   UNK N   1      29.070  12.339   1.665  0.00  0.00     0.302 C 
HETATM   59  N   UNK N   1      28.480  13.001   2.838  0.00  0.00     0.091 N 
HETATM   60  C   UNK N   1      27.951  12.054   3.824  0.00  0.00     0.302 C 
HETATM   61  C   UNK N   1      27.056  11.011   3.153  0.00  0.00     0.302 C 
BRANCH  59  62
HETATM   62  C   UNK N   1      29.262  14.072   3.455  0.00  0.00     0.274 C 
BRANCH  62  63
HETATM   63  C   UNK N   1      30.694  13.714   3.855  0.00  0.00     0.050 C 
BRANCH  63  64
HETATM   64  C   UNK N   1      30.871  13.262   5.297  0.00  0.00     0.123 C 
BRANCH  64  65
HETATM   65  N   UNK N   1      31.724  14.138   6.065  0.00  0.00    -0.370 N 
HETATM   66  C   UNK N   1      32.571  13.700   6.917  0.00  0.00     0.146 C 
ATOM     67  HN  UNK N   1      31.648  15.146   5.923  1.00  0.00     0.161 HD
BRANCH  66  68
HETATM   68  C   UNK N   1      33.205  14.633   7.841  0.00  0.00     0.019 A 
HETATM   69  C   UNK N   1      33.582  15.971   7.567  0.00  0.00     0.052 A 
HETATM   70  C   UNK N   1      34.124  16.767   8.616  0.00  0.00     0.106 A 
HETATM   71  C   UNK N   1      34.200  16.229   9.905  0.00  0.00     0.073 A 
HETATM   72  C   UNK N   1      33.823  14.908  10.133  0.00  0.00     0.075 A 
HETATM   73  C   UNK N   1      33.361  14.130   9.106  0.00  0.00     0.052 A 
BRANCH  70  74
HETATM   74  N   UNK N   1      34.707  18.047   8.368  0.00  0.00    -0.116 N 
HETATM   75  O   UNK N   1      35.392  18.562   9.204  0.00  0.00    -0.532 OA
HETATM   76  O   UNK N   1      34.657  18.528   7.278  0.00  0.00    -0.532 OA
ENDBRANCH  70  74
BRANCH  72  77
HETATM   77  O   UNK N   1      34.136  14.291  11.274  0.00  0.00    -0.318 OA
BRANCH  77  78
HETATM   78  C   UNK N   1      35.252  13.472  11.245  0.00  0.00     0.298 C 
HETATM   79  C   UNK N   1      36.401  14.118  12.053  0.00  0.00     0.205 C 
HETATM   80  C   UNK N   1      35.944  14.201  13.513  0.00  0.00     0.183 C 
HETATM   81  C   UNK N   1      35.600  12.785  13.985  0.00  0.00     0.180 C 
HETATM   82  C   UNK N   1      34.525  12.173  13.052  0.00  0.00     0.179 C 
HETATM   83  O   UNK N   1      34.945  12.172  11.702  0.00  0.00    -0.348 OA
BRANCH  79  84
HETATM   84  O   UNK N   1      37.558  13.348  11.931  0.00  0.00    -0.388 OA
HETATM   85  H   UNK N   1      38.082  12.572  11.677  0.00  0.00     0.210 HD
ENDBRANCH  79  84
BRANCH  80  86
HETATM   86  O   UNK N   1      36.951  14.759  14.303  0.00  0.00    -0.390 OA
HETATM   87  H   UNK N   1      36.881  15.632  14.720  0.00  0.00     0.210 HD
ENDBRANCH  80  86
BRANCH  81  88
HETATM   88  O   UNK N   1      35.133  12.819  15.299  0.00  0.00    -0.390 OA
HETATM   89  H   UNK N   1      35.232  12.271  16.094  0.00  0.00     0.210 HD
ENDBRANCH  81  88
BRANCH  82  90
HETATM   90  C   UNK N   1      34.245  10.726  13.437  0.00  0.00     0.198 C 
BRANCH  90  91
HETATM   91  O   UNK N   1      33.314  10.670  14.480  0.00  0.00    -0.398 OA
HETATM   92  H   UNK N   1      32.880  10.913  15.312  0.00  0.00     0.209 HD
ENDBRANCH  90  91
ENDBRANCH  82  90
ENDBRANCH  77  78
ENDBRANCH  72  77
ENDBRANCH  66  68
BRANCH  66  93
HETATM   93  O   UNK N   1      32.692  12.370   7.135  0.00  0.00    -0.346 OA
HETATM   94  H   UNK N   1      32.270  11.624   6.756  0.00  0.00     0.219 HD
ENDBRANCH  66  93
ENDBRANCH  64  65
ENDBRANCH  63  64
ENDBRANCH  62  63
ENDBRANCH  59  62
ENDBRANCH  55  56
ENDBRANCH  54  55
ENDBRANCH  53  54
ENDBRANCH  51  53
ENDBRANCH   2  51
TORSDOF 38
ENDMDL
MODEL 9
REMARK VINA RESULT:      -6.6      6.829     13.225
REMARK WARNING: 32 MAX_TORS EXCEEDED!!!
REMARK  38 active torsions:
REMARK  status: ('A' for Active; 'I' for Inactive)
REMARK    1  A    between atoms: C_5  and  C_1 
REMARK    2  A    between atoms: C_9  and  C_1 
REMARK    3  A    between atoms: C_6  and  C_2 
REMARK    4  A    between atoms: C_10  and  C_2 
REMARK    5  A    between atoms: C_7  and  C_3 
REMARK    6  A    between atoms: C_11  and  C_3 
REMARK    7  A    between atoms: C_8  and  C_4 
REMARK    8  A    between atoms: C_12  and  C_4 
REMARK    9  A    between atoms: N_51  and  C_5 
REMARK   10  A    between atoms: N_52  and  C_6 
REMARK   11  A    between atoms: N_53  and  C_7 
REMARK   12  A    between atoms: N_55  and  C_8 
REMARK   13  A    between atoms: N_57  and  C_9 
REMARK   14  A    between atoms: N_58  and  C_10 
REMARK   15  A    between atoms: N_59  and  C_11 
REMARK   16  A    between atoms: N_60  and  C_12 
REMARK   17  A    between atoms: C_35  and  C_27 
REMARK   18  A    between atoms: O_63  and  C_27 
REMARK   19  A    between atoms: C_36  and  C_28 
REMARK   20  A    between atoms: O_64  and  C_28 
REMARK   21  A    between atoms: C_47  and  C_29 
REMARK   22  A    between atoms: C_48  and  C_30 
REMARK   23  A    between atoms: N_61  and  C_31 
REMARK   24  A    between atoms: N_62  and  C_32 
REMARK   25  A    between atoms: O_79  and  C_33 
REMARK   26  A    between atoms: O_80  and  C_34 
REMARK   27  A    between atoms: N_51  and  C_37 
REMARK   28  A    between atoms: N_52  and  C_38 
REMARK   29  A    between atoms: C_39  and  O_65 
REMARK   30  A    between atoms: O_66  and  C_40 
REMARK   31  A    between atoms: C_43  and  O_69 
REMARK   32  A    between atoms: O_70  and  C_44 
REMARK   33  A    between atoms: C_45  and  O_71 
REMARK   34  A    between atoms: O_72  and  C_46 
REMARK   35  A    between atoms: O_73  and  C_47 
REMARK   36  A    between atoms: O_74  and  C_48 
REMARK   37  A    between atoms: C_49  and  O_79 
REMARK   38  A    between atoms: O_80  and  C_50 
ROOT
HETATM    1  C   UNK N   1      34.792  15.304   6.699  0.00  0.00     0.114 A 
HETATM    2  C   UNK N   1      34.187  14.825   7.816  0.00  0.00     0.114 A 
HETATM    3  C   UNK N   1      34.360  16.657   6.997  0.00  0.00     0.252 A 
HETATM    4  C   UNK N   1      33.707  16.146   8.187  0.00  0.00     0.252 A 
HETATM    5  O   UNK N   1      34.568  17.743   6.486  0.00  0.00    -0.281 OA
HETATM    6  O   UNK N   1      33.088  16.602   9.134  0.00  0.00    -0.281 OA
ENDROOT
BRANCH   1   7
HETATM    7  N   UNK N   1      35.534  14.816   5.590  0.00  0.00    -0.385 N 
HETATM    8  H   UNK N   1      35.046  14.633   4.754  0.00  0.00     0.159 HD
BRANCH   7   9
HETATM    9  C   UNK N   1      36.953  14.570   5.610  0.00  0.00     0.121 C 
BRANCH   9  10
HETATM   10  C   UNK N   1      37.328  13.588   6.701  0.00  0.00     0.050 C 
BRANCH  10  11
HETATM   11  C   UNK N   1      38.199  12.483   6.125  0.00  0.00     0.274 C 
BRANCH  11  12
HETATM   12  N   UNK N   1      37.568  11.968   4.929  0.00  0.00     0.091 N 
HETATM   13  C   UNK N   1      38.510  11.919   3.832  0.00  0.00     0.302 C 
HETATM   14  C   UNK N   1      37.735  11.586   2.557  0.00  0.00     0.302 C 
HETATM   15  N   UNK N   1      36.716  10.523   2.698  0.00  0.00     0.091 N 
HETATM   16  C   UNK N   1      36.227  10.235   4.067  0.00  0.00     0.302 C 
HETATM   17  C   UNK N   1      37.199  10.592   5.159  0.00  0.00     0.302 C 
BRANCH  15  18
HETATM   18  C   UNK N   1      35.628  10.952   1.797  0.00  0.00     0.274 C 
BRANCH  18  19
HETATM   19  C   UNK N   1      35.397  12.470   1.611  0.00  0.00     0.050 C 
BRANCH  19  20
HETATM   20  C   UNK N   1      34.394  13.045   2.587  0.00  0.00     0.123 C 
BRANCH  20  21
HETATM   21  N   UNK N   1      34.233  14.441   2.297  0.00  0.00    -0.370 N 
HETATM   22  C   UNK N   1      33.221  15.132   2.663  0.00  0.00     0.146 C 
ATOM     23  HN  UNK N   1      34.968  14.910   1.768  1.00  0.00     0.161 HD
BRANCH  22  24
HETATM   24  C   UNK N   1      32.096  14.559   3.422  0.00  0.00     0.019 A 
HETATM   25  C   UNK N   1      31.198  13.585   2.923  0.00  0.00     0.052 A 
HETATM   26  C   UNK N   1      30.082  13.195   3.705  0.00  0.00     0.106 A 
HETATM   27  C   UNK N   1      29.914  13.762   4.973  0.00  0.00     0.073 A 
HETATM   28  C   UNK N   1      30.797  14.739   5.427  0.00  0.00     0.075 A 
HETATM   29  C   UNK N   1      31.855  15.139   4.644  0.00  0.00     0.052 A 
BRANCH  26  30
HETATM   30  N   UNK N   1      29.034  12.384   3.174  0.00  0.00    -0.116 N 
HETATM   31  O   UNK N   1      29.032  11.209   3.364  0.00  0.00    -0.532 OA
HETATM   32  O   UNK N   1      28.062  12.902   2.702  0.00  0.00    -0.532 OA
ENDBRANCH  26  30
BRANCH  28  33
HETATM   33  O   UNK N   1      30.455  15.531   6.450  0.00  0.00    -0.318 OA
BRANCH  33  34
HETATM   34  C   UNK N   1      30.185  16.852   6.124  0.00  0.00     0.298 C 
HETATM   35  C   UNK N   1      28.721  17.018   5.672  0.00  0.00     0.205 C 
HETATM   36  C   UNK N   1      27.827  16.750   6.878  0.00  0.00     0.183 C 
HETATM   37  C   UNK N   1      28.227  17.724   7.989  0.00  0.00     0.180 C 
HETATM   38  C   UNK N   1      29.733  17.560   8.321  0.00  0.00     0.179 C 
HETATM   39  O   UNK N   1      30.537  17.732   7.171  0.00  0.00    -0.348 OA
BRANCH  35  40
HETATM   40  O   UNK N   1      28.525  18.312   5.184  0.00  0.00    -0.388 OA
HETATM   41  H   UNK N   1      28.280  19.114   4.696  0.00  0.00     0.210 HD
ENDBRANCH  35  40
BRANCH  36  42
HETATM   42  O   UNK N   1      26.486  16.921   6.529  0.00  0.00    -0.390 OA
HETATM   43  H   UNK N   1      25.915  16.191   6.242  0.00  0.00     0.210 HD
ENDBRANCH  36  42
BRANCH  37  44
HETATM   44  O   UNK N   1      27.443  17.485   9.120  0.00  0.00    -0.390 OA
HETATM   45  H   UNK N   1      27.707  17.312  10.038  0.00  0.00     0.210 HD
ENDBRANCH  37  44
BRANCH  38  46
HETATM   46  C   UNK N   1      30.192  18.640   9.299  0.00  0.00     0.198 C 
BRANCH  46  47
HETATM   47  O   UNK N   1      29.694  18.426  10.583  0.00  0.00    -0.398 OA
HETATM   48  H   UNK N   1      29.825  17.642  11.139  0.00  0.00     0.209 HD
ENDBRANCH  46  47
ENDBRANCH  38  46
ENDBRANCH  33  34
ENDBRANCH  28  33
ENDBRANCH  22  24
BRANCH  22  49
HETATM   49  O   UNK N   1      33.231  16.457   2.428  0.00  0.00    -0.346 OA
HETATM   50  H   UNK N   1      33.392  17.023   1.698  0.00  0.00     0.219 HD
ENDBRANCH  22  49
ENDBRANCH  20  21
ENDBRANCH  19  20
ENDBRANCH  18  19
ENDBRANCH  15  18
ENDBRANCH  11  12
ENDBRANCH  10  11
ENDBRANCH   9  10
ENDBRANCH   7   9
ENDBRANCH   1   7
BRANCH   2  51
HETATM   51  N   UNK N   1      34.022  13.577   8.451  0.00  0.00    -0.385 N 
HETATM   52  H   UNK N   1      34.292  13.459   9.391  0.00  0.00     0.159 HD
BRANCH  51  53
HETATM   53  C   UNK N   1      33.456  12.483   7.720  0.00  0.00     0.121 C 
BRANCH  53  54
HETATM   54  C   UNK N   1      34.486  11.421   7.455  0.00  0.00     0.050 C 
BRANCH  54  55
HETATM   55  C   UNK N   1      34.590  10.443   8.626  0.00  0.00     0.274 C 
BRANCH  55  56
HETATM   56  N   UNK N   1      33.432   9.540   8.825  0.00  0.00     0.091 N 
HETATM   57  C   UNK N   1      33.943   8.163   8.852  0.00  0.00     0.302 C 
HETATM   58  C   UNK N   1      34.781   7.881  10.119  0.00  0.00     0.302 C 
HETATM   59  N   UNK N   1      34.876   9.094  10.943  0.00  0.00     0.091 N 
HETATM   60  C   UNK N   1      33.566   9.648  11.300  0.00  0.00     0.302 C 
HETATM   61  C   UNK N   1      32.672   9.774  10.064  0.00  0.00     0.302 C 
BRANCH  59  62
HETATM   62  C   UNK N   1      35.792   9.051  12.082  0.00  0.00     0.274 C 
BRANCH  62  63
HETATM   63  C   UNK N   1      35.808   7.747  12.882  0.00  0.00     0.050 C 
BRANCH  63  64
HETATM   64  C   UNK N   1      35.924   7.913  14.389  0.00  0.00     0.123 C 
BRANCH  64  65
HETATM   65  N   UNK N   1      36.151   9.282  14.793  0.00  0.00    -0.370 N 
HETATM   66  C   UNK N   1      35.695   9.759  15.888  0.00  0.00     0.146 C 
ATOM     67  HN  UNK N   1      36.696   9.890  14.181  1.00  0.00     0.161 HD
BRANCH  66  68
HETATM   68  C   UNK N   1      35.731  11.201  16.110  0.00  0.00     0.019 A 
HETATM   69  C   UNK N   1      35.531  11.873  17.340  0.00  0.00     0.052 A 
HETATM   70  C   UNK N   1      35.677  13.289  17.389  0.00  0.00     0.106 A 
HETATM   71  C   UNK N   1      36.089  13.967  16.236  0.00  0.00     0.073 A 
HETATM   72  C   UNK N   1      36.271  13.270  15.044  0.00  0.00     0.075 A 
HETATM   73  C   UNK N   1      36.068  11.918  14.992  0.00  0.00     0.052 A 
BRANCH  70  74
HETATM   74  N   UNK N   1      35.298  14.048  18.537  0.00  0.00    -0.116 N 
HETATM   75  O   UNK N   1      35.211  15.240  18.461  0.00  0.00    -0.532 OA
HETATM   76  O   UNK N   1      34.905  13.497  19.518  0.00  0.00    -0.532 OA
ENDBRANCH  70  74
BRANCH  72  77
HETATM   77  O   UNK N   1      36.393  13.916  13.883  0.00  0.00    -0.318 OA
BRANCH  77  78
HETATM   78  C   UNK N   1      35.489  13.575  12.891  0.00  0.00     0.298 C 
HETATM   79  C   UNK N   1      34.991  14.849  12.171  0.00  0.00     0.205 C 
HETATM   80  C   UNK N   1      36.199  15.485  11.477  0.00  0.00     0.183 C 
HETATM   81  C   UNK N   1      36.797  14.450  10.520  0.00  0.00     0.180 C 
HETATM   82  C   UNK N   1      37.163  13.166  11.305  0.00  0.00     0.179 C 
HETATM   83  O   UNK N   1      36.045  12.639  11.992  0.00  0.00    -0.348 OA
BRANCH  79  84
HETATM   84  O   UNK N   1      33.998  14.515  11.249  0.00  0.00    -0.388 OA
HETATM   85  H   UNK N   1      33.217  14.671  10.694  0.00  0.00     0.210 HD
ENDBRANCH  79  84
BRANCH  80  86
HETATM   86  O   UNK N   1      35.809  16.635  10.788  0.00  0.00    -0.390 OA
HETATM   87  H   UNK N   1      34.927  17.032  10.864  0.00  0.00     0.210 HD
ENDBRANCH  80  86
BRANCH  81  88
HETATM   88  O   UNK N   1      37.932  14.972   9.898  0.00  0.00    -0.390 OA
HETATM   89  H   UNK N   1      38.835  15.203  10.165  0.00  0.00     0.210 HD
ENDBRANCH  81  88
BRANCH  82  90
HETATM   90  C   UNK N   1      37.660  12.083  10.356  0.00  0.00     0.198 C 
BRANCH  90  91
HETATM   91  O   UNK N   1      38.936  12.400   9.880  0.00  0.00    -0.398 OA
HETATM   92  H   UNK N   1      39.645  12.940   9.499  0.00  0.00     0.209 HD
ENDBRANCH  90  91
ENDBRANCH  82  90
ENDBRANCH  77  78
ENDBRANCH  72  77
ENDBRANCH  66  68
BRANCH  66  93
HETATM   93  O   UNK N   1      34.963   8.982  16.719  0.00  0.00    -0.346 OA
HETATM   94  H   UNK N   1      34.602   8.122  16.629  0.00  0.00     0.219 HD
ENDBRANCH  66  93
ENDBRANCH  64  65
ENDBRANCH  63  64
ENDBRANCH  62  63
ENDBRANCH  59  62
ENDBRANCH  55  56
ENDBRANCH  54  55
ENDBRANCH  53  54
ENDBRANCH  51  53
ENDBRANCH   2  51
TORSDOF 38
ENDMDL
