MODEL 1
REMARK VINA RESULT:      -7.6      0.000      0.000
REMARK  10 active torsions:
REMARK  status: ('A' for Active; 'I' for Inactive)
REMARK    1  A    between atoms: C_2  and  N_3 
REMARK    2  A    between atoms: C_2  and  C_31 
REMARK       I    between atoms: N_3  and  C_4 
REMARK    3  A    between atoms: C_6  and  C_4 
REMARK       I    between atoms: N_10  and  C_11 
REMARK    4  A    between atoms: C_13  and  C_11 
REMARK       I    between atoms: N_17  and  C_18 
REMARK    5  A    between atoms: C_18  and  C_20 
REMARK    6  A    between atoms: C_20  and  O_21 
REMARK    7  A    between atoms: C_20  and  C_22 
REMARK    8  A    between atoms: C_22  and  N_23 
REMARK    9  A    between atoms: C_22  and  C_24 
REMARK   10  A    between atoms: C_24  and  C_25 
REMARK       I    between atoms: C_31  and  N_32 
ROOT
HETATM    1  C   UNK N   1      27.557  18.364   5.085  0.00  0.00     0.179 C 
HETATM    2  C   UNK N   1      27.460  19.808   4.624  0.00  0.00     0.037 C 
HETATM    3  C   UNK N   1      27.496  20.677   5.875  0.00  0.00     0.022 C 
HETATM    4  C   UNK N   1      27.849  19.764   7.034  0.00  0.00     0.127 C 
HETATM    5  N   UNK N   1      27.780  18.431   6.509  0.00  0.00    -0.336 N 
HETATM    6  C   UNK N   1      27.883  17.296   7.277  0.00  0.00     0.251 C 
HETATM    7  O   UNK N   1      27.732  16.204   6.746  0.00  0.00    -0.270 OA
ENDROOT
BRANCH   1   8
HETATM    8  C   UNK N   1      28.721  17.701   4.383  0.00  0.00     0.243 C 
HETATM    9  N   UNK N   1      28.533  16.597   3.602  0.00  0.00    -0.337 N 
HETATM   10  C   UNK N   1      27.222  16.067   3.351  0.00  0.00     0.127 A 
HETATM   11  C   UNK N   1      29.603  15.930   2.899  0.00  0.00     0.179 A 
HETATM   12  C   UNK N   1      27.409  15.028   2.261  0.00  0.00     0.022 A 
HETATM   13  C   UNK N   1      28.910  14.892   2.022  0.00  0.00     0.037 A 
HETATM   14  O   UNK N   1      29.839  18.185   4.502  0.00  0.00    -0.271 OA
BRANCH  11  15
HETATM   15  C   UNK N   1      30.609  15.282   3.839  0.00  0.00     0.241 C 
HETATM   16  N   UNK N   1      31.910  15.675   3.831  0.00  0.00    -0.346 N 
HETATM   17  H   UNK N   1      32.198  16.355   3.182  0.00  0.00     0.163 HD
HETATM   18  O   UNK N   1      30.236  14.434   4.635  0.00  0.00    -0.271 OA
BRANCH  16  19
HETATM   19  C   UNK N   1      32.886  15.126   4.749  0.00  0.00     0.172 C 
HETATM   20  C   UNK N   1      33.620  13.969   4.094  0.00  0.00     0.042 C 
BRANCH  19  21
HETATM   21  C   UNK N   1      33.860  16.181   5.198  0.00  0.00     0.237 C 
HETATM   22  N   UNK N   1      33.513  17.481   5.137  0.00  0.00    -0.368 N 
HETATM   23  H   UNK N   1      34.162  18.177   5.392  0.00  0.00     0.159 HD
HETATM   24  H   UNK N   1      32.611  17.738   4.838  0.00  0.00     0.159 HD
HETATM   25  O   UNK N   1      34.971  15.872   5.601  0.00  0.00    -0.271 OA
ENDBRANCH  19  21
ENDBRANCH  16  19
ENDBRANCH  11  15
ENDBRANCH   1   8
BRANCH   6  26
HETATM   26  C   UNK N   1      28.142  17.309   8.782  0.00  0.00     0.232 C 
BRANCH  26  27
HETATM   27  O   UNK N   1      27.339  18.185   9.514  0.00  0.00    -0.384 OA
HETATM   28  H   UNK N   1      27.312  19.152   9.445  0.00  0.00     0.210 HD
ENDBRANCH  26  27
BRANCH  26  29
HETATM   29  C   UNK N   1      29.600  17.464   9.241  0.00  0.00     0.116 C 
BRANCH  29  30
HETATM   30  N   UNK N   1      29.880  18.751   9.864  0.00  0.00    -0.423 N 
HETATM   31  H   UNK N   1      29.953  18.855  10.876  0.00  0.00     0.150 HD
HETATM   32  H   UNK N   1      30.007  19.572   9.271  0.00  0.00     0.150 HD
ENDBRANCH  29  30
BRANCH  29  33
HETATM   33  C   UNK N   1      30.481  17.258   8.016  0.00  0.00     0.066 C 
BRANCH  33  34
HETATM   34  C   UNK N   1      31.886  16.900   8.362  0.00  0.00    -0.056 A 
HETATM   35  C   UNK N   1      32.217  15.555   8.549  0.00  0.00     0.007 A 
HETATM   36  C   UNK N   1      33.534  15.190   8.840  0.00  0.00     0.001 A 
HETATM   37  C   UNK N   1      34.526  16.170   8.931  0.00  0.00     0.000 A 
HETATM   38  C   UNK N   1      34.200  17.517   8.734  0.00  0.00     0.001 A 
HETATM   39  C   UNK N   1      32.880  17.883   8.449  0.00  0.00     0.007 A 
ENDBRANCH  33  34
ENDBRANCH  29  33
ENDBRANCH  26  29
ENDBRANCH   6  26
TORSDOF 10
ENDMDL
MODEL 2
REMARK VINA RESULT:      -7.5      3.514      6.639
REMARK  10 active torsions:
REMARK  status: ('A' for Active; 'I' for Inactive)
REMARK    1  A    between atoms: C_2  and  N_3 
REMARK    2  A    between atoms: C_2  and  C_31 
REMARK       I    between atoms: N_3  and  C_4 
REMARK    3  A    between atoms: C_6  and  C_4 
REMARK       I    between atoms: N_10  and  C_11 
REMARK    4  A    between atoms: C_13  and  C_11 
REMARK       I    between atoms: N_17  and  C_18 
REMARK    5  A    between atoms: C_18  and  C_20 
REMARK    6  A    between atoms: C_20  and  O_21 
REMARK    7  A    between atoms: C_20  and  C_22 
REMARK    8  A    between atoms: C_22  and  N_23 
REMARK    9  A    between atoms: C_22  and  C_24 
REMARK   10  A    between atoms: C_24  and  C_25 
REMARK       I    between atoms: C_31  and  N_32 
ROOT
HETATM    1  C   UNK N   1      34.195  14.366   6.532  0.00  0.00     0.179 C 
HETATM    2  C   UNK N   1      34.734  13.096   5.896  0.00  0.00     0.037 C 
HETATM    3  C   UNK N   1      35.230  12.207   7.030  0.00  0.00     0.022 C 
HETATM    4  C   UNK N   1      34.769  12.849   8.324  0.00  0.00     0.127 C 
HETATM    5  N   UNK N   1      34.256  14.137   7.955  0.00  0.00    -0.336 N 
HETATM    6  C   UNK N   1      33.876  15.101   8.858  0.00  0.00     0.251 C 
HETATM    7  O   UNK N   1      33.526  16.198   8.443  0.00  0.00    -0.270 OA
ENDROOT
BRANCH   1   8
HETATM    8  C   UNK N   1      32.768  14.577   6.076  0.00  0.00     0.243 C 
HETATM    9  N   UNK N   1      32.417  15.684   5.359  0.00  0.00    -0.337 N 
HETATM   10  C   UNK N   1      33.393  16.652   4.941  0.00  0.00     0.127 A 
HETATM   11  C   UNK N   1      31.075  15.933   4.887  0.00  0.00     0.179 A 
HETATM   12  C   UNK N   1      32.666  17.568   3.975  0.00  0.00     0.022 A 
HETATM   13  C   UNK N   1      31.195  17.160   3.990  0.00  0.00     0.037 A 
HETATM   14  O   UNK N   1      31.929  13.724   6.336  0.00  0.00    -0.271 OA
BRANCH  11  15
HETATM   15  C   UNK N   1      30.088  16.166   6.021  0.00  0.00     0.241 C 
HETATM   16  N   UNK N   1      30.285  17.175   6.909  0.00  0.00    -0.346 N 
HETATM   17  H   UNK N   1      31.097  17.727   6.831  0.00  0.00     0.163 HD
HETATM   18  O   UNK N   1      29.088  15.468   6.107  0.00  0.00    -0.271 OA
BRANCH  16  19
HETATM   19  C   UNK N   1      29.341  17.468   7.966  0.00  0.00     0.172 C 
HETATM   20  C   UNK N   1      30.083  17.868   9.229  0.00  0.00     0.042 C 
BRANCH  19  21
HETATM   21  C   UNK N   1      28.383  18.551   7.552  0.00  0.00     0.237 C 
HETATM   22  N   UNK N   1      27.525  19.068   8.454  0.00  0.00    -0.368 N 
HETATM   23  H   UNK N   1      26.869  19.748   8.177  0.00  0.00     0.159 HD
HETATM   24  H   UNK N   1      27.554  18.766   9.391  0.00  0.00     0.159 HD
HETATM   25  O   UNK N   1      28.360  18.956   6.400  0.00  0.00    -0.271 OA
ENDBRANCH  19  21
ENDBRANCH  16  19
ENDBRANCH  11  15
ENDBRANCH   1   8
BRANCH   6  26
HETATM   26  C   UNK N   1      33.899  14.903  10.372  0.00  0.00     0.232 C 
BRANCH  26  27
HETATM   27  O   UNK N   1      32.666  15.049  11.008  0.00  0.00    -0.384 OA
HETATM   28  H   UNK N   1      31.847  15.403  10.626  0.00  0.00     0.210 HD
ENDBRANCH  26  27
BRANCH  26  29
HETATM   29  C   UNK N   1      34.965  15.675  11.164  0.00  0.00     0.116 C 
BRANCH  29  30
HETATM   30  N   UNK N   1      35.137  17.052  10.719  0.00  0.00    -0.423 N 
HETATM   31  H   UNK N   1      35.274  17.817  11.379  0.00  0.00     0.150 HD
HETATM   32  H   UNK N   1      35.119  17.256   9.720  0.00  0.00     0.150 HD
ENDBRANCH  29  30
BRANCH  29  33
HETATM   33  C   UNK N   1      36.270  14.902  11.031  0.00  0.00     0.066 C 
BRANCH  33  34
HETATM   34  C   UNK N   1      36.544  14.016  12.197  0.00  0.00    -0.056 A 
HETATM   35  C   UNK N   1      36.243  14.474  13.483  0.00  0.00     0.007 A 
HETATM   36  C   UNK N   1      36.459  13.650  14.591  0.00  0.00     0.001 A 
HETATM   37  C   UNK N   1      36.965  12.360  14.413  0.00  0.00     0.000 A 
HETATM   38  C   UNK N   1      37.258  11.894  13.126  0.00  0.00     0.001 A 
HETATM   39  C   UNK N   1      37.048  12.721  12.018  0.00  0.00     0.007 A 
ENDBRANCH  33  34
ENDBRANCH  29  33
ENDBRANCH  26  29
ENDBRANCH   6  26
TORSDOF 10
ENDMDL
MODEL 3
REMARK VINA RESULT:      -7.5      2.838      6.418
REMARK  10 active torsions:
REMARK  status: ('A' for Active; 'I' for Inactive)
REMARK    1  A    between atoms: C_2  and  N_3 
REMARK    2  A    between atoms: C_2  and  C_31 
REMARK       I    between atoms: N_3  and  C_4 
REMARK    3  A    between atoms: C_6  and  C_4 
REMARK       I    between atoms: N_10  and  C_11 
REMARK    4  A    between atoms: C_13  and  C_11 
REMARK       I    between atoms: N_17  and  C_18 
REMARK    5  A    between atoms: C_18  and  C_20 
REMARK    6  A    between atoms: C_20  and  O_21 
REMARK    7  A    between atoms: C_20  and  C_22 
REMARK    8  A    between atoms: C_22  and  N_23 
REMARK    9  A    between atoms: C_22  and  C_24 
REMARK   10  A    between atoms: C_24  and  C_25 
REMARK       I    between atoms: C_31  and  N_32 
ROOT
HETATM    1  C   UNK N   1      33.138  15.275   5.196  0.00  0.00     0.179 C 
HETATM    2  C   UNK N   1      33.381  15.596   3.731  0.00  0.00     0.037 C 
HETATM    3  C   UNK N   1      32.794  16.979   3.476  0.00  0.00     0.022 C 
HETATM    4  C   UNK N   1      32.425  17.556   4.830  0.00  0.00     0.127 C 
HETATM    5  N   UNK N   1      32.572  16.476   5.762  0.00  0.00    -0.336 N 
HETATM    6  C   UNK N   1      32.188  16.540   7.080  0.00  0.00     0.251 C 
HETATM    7  O   UNK N   1      32.282  15.537   7.775  0.00  0.00    -0.270 OA
ENDROOT
BRANCH   1   8
HETATM    8  C   UNK N   1      34.458  14.935   5.850  0.00  0.00     0.243 C 
HETATM    9  N   UNK N   1      34.721  13.668   6.284  0.00  0.00    -0.337 N 
HETATM   10  C   UNK N   1      33.795  12.592   6.069  0.00  0.00     0.127 A 
HETATM   11  C   UNK N   1      35.967  13.282   6.904  0.00  0.00     0.179 A 
HETATM   12  C   UNK N   1      34.545  11.330   6.454  0.00  0.00     0.022 A 
HETATM   13  C   UNK N   1      35.884  11.766   7.041  0.00  0.00     0.037 A 
HETATM   14  O   UNK N   1      35.307  15.811   5.964  0.00  0.00    -0.271 OA
BRANCH  11  15
HETATM   15  C   UNK N   1      36.183  13.953   8.253  0.00  0.00     0.241 C 
HETATM   16  N   UNK N   1      35.203  14.710   8.810  0.00  0.00    -0.346 N 
HETATM   17  H   UNK N   1      34.367  14.851   8.310  0.00  0.00     0.163 HD
HETATM   18  O   UNK N   1      37.230  13.773   8.858  0.00  0.00    -0.271 OA
BRANCH  16  19
HETATM   19  C   UNK N   1      35.346  15.316  10.117  0.00  0.00     0.172 C 
HETATM   20  C   UNK N   1      35.270  16.829   9.999  0.00  0.00     0.042 C 
BRANCH  19  21
HETATM   21  C   UNK N   1      34.297  14.809  11.068  0.00  0.00     0.237 C 
HETATM   22  N   UNK N   1      32.992  14.943  10.759  0.00  0.00    -0.368 N 
HETATM   23  H   UNK N   1      32.302  14.649  11.397  0.00  0.00     0.159 HD
HETATM   24  H   UNK N   1      32.728  15.335   9.895  0.00  0.00     0.159 HD
HETATM   25  O   UNK N   1      34.614  14.292  12.129  0.00  0.00    -0.271 OA
ENDBRANCH  19  21
ENDBRANCH  16  19
ENDBRANCH  11  15
ENDBRANCH   1   8
BRANCH   6  26
HETATM   26  C   UNK N   1      31.607  17.791   7.735  0.00  0.00     0.232 C 
BRANCH  26  27
HETATM   27  O   UNK N   1      32.478  18.476   8.582  0.00  0.00    -0.384 OA
HETATM   28  H   UNK N   1      33.059  19.218   8.351  0.00  0.00     0.210 HD
ENDBRANCH  26  27
BRANCH  26  29
HETATM   29  C   UNK N   1      30.243  17.649   8.428  0.00  0.00     0.116 C 
BRANCH  29  30
HETATM   30  N   UNK N   1      30.262  16.747   9.572  0.00  0.00    -0.423 N 
HETATM   31  H   UNK N   1      29.407  16.468  10.053  0.00  0.00     0.150 HD
HETATM   32  H   UNK N   1      31.157  16.383   9.901  0.00  0.00     0.150 HD
ENDBRANCH  29  30
BRANCH  29  33
HETATM   33  C   UNK N   1      29.254  17.163   7.378  0.00  0.00     0.066 C 
BRANCH  33  34
HETATM   34  C   UNK N   1      28.611  18.275   6.623  0.00  0.00    -0.056 A 
HETATM   35  C   UNK N   1      28.023  19.326   7.333  0.00  0.00     0.007 A 
HETATM   36  C   UNK N   1      27.443  20.398   6.649  0.00  0.00     0.001 A 
HETATM   37  C   UNK N   1      27.462  20.427   5.252  0.00  0.00     0.000 A 
HETATM   38  C   UNK N   1      28.058  19.381   4.538  0.00  0.00     0.001 A 
HETATM   39  C   UNK N   1      28.633  18.305   5.223  0.00  0.00     0.007 A 
ENDBRANCH  33  34
ENDBRANCH  29  33
ENDBRANCH  26  29
ENDBRANCH   6  26
TORSDOF 10
ENDMDL
MODEL 4
REMARK VINA RESULT:      -7.4      6.230      8.680
REMARK  10 active torsions:
REMARK  status: ('A' for Active; 'I' for Inactive)
REMARK    1  A    between atoms: C_2  and  N_3 
REMARK    2  A    between atoms: C_2  and  C_31 
REMARK       I    between atoms: N_3  and  C_4 
REMARK    3  A    between atoms: C_6  and  C_4 
REMARK       I    between atoms: N_10  and  C_11 
REMARK    4  A    between atoms: C_13  and  C_11 
REMARK       I    between atoms: N_17  and  C_18 
REMARK    5  A    between atoms: C_18  and  C_20 
REMARK    6  A    between atoms: C_20  and  O_21 
REMARK    7  A    between atoms: C_20  and  C_22 
REMARK    8  A    between atoms: C_22  and  N_23 
REMARK    9  A    between atoms: C_22  and  C_24 
REMARK   10  A    between atoms: C_24  and  C_25 
REMARK       I    between atoms: C_31  and  N_32 
ROOT
HETATM    1  C   UNK N   1      20.612  16.371   6.044  0.00  0.00     0.179 C 
HETATM    2  C   UNK N   1      19.476  16.581   7.031  0.00  0.00     0.037 C 
HETATM    3  C   UNK N   1      19.919  15.967   8.354  0.00  0.00     0.022 C 
HETATM    4  C   UNK N   1      21.387  15.616   8.205  0.00  0.00     0.127 C 
HETATM    5  N   UNK N   1      21.688  15.797   6.815  0.00  0.00    -0.336 N 
HETATM    6  C   UNK N   1      22.880  15.438   6.233  0.00  0.00     0.251 C 
HETATM    7  O   UNK N   1      23.010  15.561   5.023  0.00  0.00    -0.270 OA
ENDROOT
BRANCH   1   8
HETATM    8  C   UNK N   1      21.011  17.708   5.462  0.00  0.00     0.243 C 
HETATM    9  N   UNK N   1      20.823  17.983   4.138  0.00  0.00    -0.337 N 
HETATM   10  C   UNK N   1      20.170  17.052   3.262  0.00  0.00     0.127 A 
HETATM   11  C   UNK N   1      21.173  19.245   3.531  0.00  0.00     0.179 A 
HETATM   12  C   UNK N   1      19.929  17.812   1.971  0.00  0.00     0.022 A 
HETATM   13  C   UNK N   1      20.616  19.167   2.114  0.00  0.00     0.037 A 
HETATM   14  O   UNK N   1      21.486  18.560   6.204  0.00  0.00    -0.271 OA
BRANCH  11  15
HETATM   15  C   UNK N   1      22.674  19.498   3.527  0.00  0.00     0.241 C 
HETATM   16  N   UNK N   1      23.536  18.534   3.943  0.00  0.00    -0.346 N 
HETATM   17  H   UNK N   1      23.172  17.686   4.284  0.00  0.00     0.163 HD
HETATM   18  O   UNK N   1      23.108  20.560   3.105  0.00  0.00    -0.271 OA
BRANCH  16  19
HETATM   19  C   UNK N   1      24.972  18.713   3.899  0.00  0.00     0.172 C 
HETATM   20  C   UNK N   1      25.422  19.582   5.061  0.00  0.00     0.042 C 
BRANCH  19  21
HETATM   21  C   UNK N   1      25.683  17.388   3.927  0.00  0.00     0.237 C 
HETATM   22  N   UNK N   1      25.288  16.398   3.102  0.00  0.00    -0.368 N 
HETATM   23  H   UNK N   1      25.724  15.517   3.145  0.00  0.00     0.159 HD
HETATM   24  H   UNK N   1      24.562  16.556   2.455  0.00  0.00     0.159 HD
HETATM   25  O   UNK N   1      26.606  17.191   4.703  0.00  0.00    -0.271 OA
ENDBRANCH  19  21
ENDBRANCH  16  19
ENDBRANCH  11  15
ENDBRANCH   1   8
BRANCH   6  26
HETATM   26  C   UNK N   1      24.059  14.850   7.006  0.00  0.00     0.232 C 
BRANCH  26  27
HETATM   27  O   UNK N   1      25.254  15.561   6.895  0.00  0.00    -0.384 OA
HETATM   28  H   UNK N   1      25.750  15.753   6.083  0.00  0.00     0.210 HD
ENDBRANCH  26  27
BRANCH  26  29
HETATM   29  C   UNK N   1      24.346  13.353   6.813  0.00  0.00     0.116 C 
BRANCH  29  30
HETATM   30  N   UNK N   1      24.575  12.979   5.424  0.00  0.00    -0.423 N 
HETATM   31  H   UNK N   1      23.954  12.339   4.929  0.00  0.00     0.150 HD
HETATM   32  H   UNK N   1      25.380  13.368   4.932  0.00  0.00     0.150 HD
ENDBRANCH  29  30
BRANCH  29  33
HETATM   33  C   UNK N   1      23.159  12.591   7.386  0.00  0.00     0.066 C 
BRANCH  33  34
HETATM   34  C   UNK N   1      23.231  12.426   8.865  0.00  0.00    -0.056 A 
HETATM   35  C   UNK N   1      22.042  12.309   9.592  0.00  0.00     0.007 A 
HETATM   36  C   UNK N   1      22.082  12.119  10.976  0.00  0.00     0.001 A 
HETATM   37  C   UNK N   1      23.312  12.033  11.634  0.00  0.00     0.000 A 
HETATM   38  C   UNK N   1      24.504  12.140  10.908  0.00  0.00     0.001 A 
HETATM   39  C   UNK N   1      24.464  12.336   9.523  0.00  0.00     0.007 A 
ENDBRANCH  33  34
ENDBRANCH  29  33
ENDBRANCH  26  29
ENDBRANCH   6  26
TORSDOF 10
ENDMDL
MODEL 5
REMARK VINA RESULT:      -7.4      4.310      7.209
REMARK  10 active torsions:
REMARK  status: ('A' for Active; 'I' for Inactive)
REMARK    1  A    between atoms: C_2  and  N_3 
REMARK    2  A    between atoms: C_2  and  C_31 
REMARK       I    between atoms: N_3  and  C_4 
REMARK    3  A    between atoms: C_6  and  C_4 
REMARK       I    between atoms: N_10  and  C_11 
REMARK    4  A    between atoms: C_13  and  C_11 
REMARK       I    between atoms: N_17  and  C_18 
REMARK    5  A    between atoms: C_18  and  C_20 
REMARK    6  A    between atoms: C_20  and  O_21 
REMARK    7  A    between atoms: C_20  and  C_22 
REMARK    8  A    between atoms: C_22  and  N_23 
REMARK    9  A    between atoms: C_22  and  C_24 
REMARK   10  A    between atoms: C_24  and  C_25 
REMARK       I    between atoms: C_31  and  N_32 
ROOT
HETATM    1  C   UNK N   1      34.068  12.565   7.305  0.00  0.00     0.179 C 
HETATM    2  C   UNK N   1      33.548  11.156   7.075  0.00  0.00     0.037 C 
HETATM    3  C   UNK N   1      33.442  10.493   8.443  0.00  0.00     0.022 C 
HETATM    4  C   UNK N   1      33.670  11.579   9.477  0.00  0.00     0.127 C 
HETATM    5  N   UNK N   1      34.113  12.727   8.739  0.00  0.00    -0.336 N 
HETATM    6  C   UNK N   1      34.574  13.884   9.319  0.00  0.00     0.251 C 
HETATM    7  O   UNK N   1      35.003  14.777   8.602  0.00  0.00    -0.270 OA
ENDROOT
BRANCH   1   8
HETATM    8  C   UNK N   1      33.109  13.551   6.676  0.00  0.00     0.243 C 
HETATM    9  N   UNK N   1      33.414  14.173   5.500  0.00  0.00    -0.337 N 
HETATM   10  C   UNK N   1      34.613  13.864   4.773  0.00  0.00     0.127 A 
HETATM   11  C   UNK N   1      32.534  15.114   4.848  0.00  0.00     0.179 A 
HETATM   12  C   UNK N   1      34.462  14.556   3.432  0.00  0.00     0.022 A 
HETATM   13  C   UNK N   1      33.190  15.395   3.500  0.00  0.00     0.037 A 
HETATM   14  O   UNK N   1      32.035  13.767   7.224  0.00  0.00    -0.271 OA
BRANCH  11  15
HETATM   15  C   UNK N   1      32.340  16.392   5.651  0.00  0.00     0.241 C 
HETATM   16  N   UNK N   1      33.048  16.602   6.790  0.00  0.00    -0.346 N 
HETATM   17  H   UNK N   1      33.658  15.899   7.109  0.00  0.00     0.163 HD
HETATM   18  O   UNK N   1      31.574  17.252   5.244  0.00  0.00    -0.271 OA
BRANCH  16  19
HETATM   19  C   UNK N   1      32.937  17.829   7.552  0.00  0.00     0.172 C 
HETATM   20  C   UNK N   1      31.741  17.754   8.484  0.00  0.00     0.042 C 
BRANCH  19  21
HETATM   21  C   UNK N   1      34.196  18.099   8.330  0.00  0.00     0.237 C 
HETATM   22  N   UNK N   1      34.385  17.505   9.524  0.00  0.00    -0.368 N 
HETATM   23  H   UNK N   1      35.188  17.710  10.055  0.00  0.00     0.159 HD
HETATM   24  H   UNK N   1      33.721  16.864   9.867  0.00  0.00     0.159 HD
HETATM   25  O   UNK N   1      35.042  18.868   7.900  0.00  0.00    -0.271 OA
ENDBRANCH  19  21
ENDBRANCH  16  19
ENDBRANCH  11  15
ENDBRANCH   1   8
BRANCH   6  26
HETATM   26  C   UNK N   1      34.621  14.117  10.828  0.00  0.00     0.232 C 
BRANCH  26  27
HETATM   27  O   UNK N   1      33.689  15.033  11.316  0.00  0.00    -0.384 OA
HETATM   28  H   UNK N   1      33.570  15.954  11.036  0.00  0.00     0.210 HD
ENDBRANCH  26  27
BRANCH  26  29
HETATM   29  C   UNK N   1      35.993  14.419  11.448  0.00  0.00     0.116 C 
BRANCH  29  30
HETATM   30  N   UNK N   1      36.868  15.192  10.576  0.00  0.00    -0.423 N 
HETATM   31  H   UNK N   1      37.325  16.047  10.892  0.00  0.00     0.150 HD
HETATM   32  H   UNK N   1      37.027  14.869   9.621  0.00  0.00     0.150 HD
ENDBRANCH  29  30
BRANCH  29  33
HETATM   33  C   UNK N   1      36.631  13.083  11.800  0.00  0.00     0.066 C 
BRANCH  33  34
HETATM   34  C   UNK N   1      36.481  12.725  13.239  0.00  0.00    -0.056 A 
HETATM   35  C   UNK N   1      36.785  11.424  13.649  0.00  0.00     0.007 A 
HETATM   36  C   UNK N   1      36.685  11.072  14.998  0.00  0.00     0.001 A 
HETATM   37  C   UNK N   1      36.293  12.026  15.941  0.00  0.00     0.000 A 
HETATM   38  C   UNK N   1      35.998  13.332  15.535  0.00  0.00     0.001 A 
HETATM   39  C   UNK N   1      36.092  13.683  14.184  0.00  0.00     0.007 A 
ENDBRANCH  33  34
ENDBRANCH  29  33
ENDBRANCH  26  29
ENDBRANCH   6  26
TORSDOF 10
ENDMDL
MODEL 6
REMARK VINA RESULT:      -7.2      5.876      9.210
REMARK  10 active torsions:
REMARK  status: ('A' for Active; 'I' for Inactive)
REMARK    1  A    between atoms: C_2  and  N_3 
REMARK    2  A    between atoms: C_2  and  C_31 
REMARK       I    between atoms: N_3  and  C_4 
REMARK    3  A    between atoms: C_6  and  C_4 
REMARK       I    between atoms: N_10  and  C_11 
REMARK    4  A    between atoms: C_13  and  C_11 
REMARK       I    between atoms: N_17  and  C_18 
REMARK    5  A    between atoms: C_18  and  C_20 
REMARK    6  A    between atoms: C_20  and  O_21 
REMARK    7  A    between atoms: C_20  and  C_22 
REMARK    8  A    between atoms: C_22  and  N_23 
REMARK    9  A    between atoms: C_22  and  C_24 
REMARK   10  A    between atoms: C_24  and  C_25 
REMARK       I    between atoms: C_31  and  N_32 
ROOT
HETATM    1  C   UNK N   1      36.196  11.355   8.928  0.00  0.00     0.179 C 
HETATM    2  C   UNK N   1      35.842   9.921   8.574  0.00  0.00     0.037 C 
HETATM    3  C   UNK N   1      35.008   9.372   9.725  0.00  0.00     0.022 C 
HETATM    4  C   UNK N   1      34.680  10.546  10.628  0.00  0.00     0.127 C 
HETATM    5  N   UNK N   1      35.477  11.637  10.147  0.00  0.00    -0.336 N 
HETATM    6  C   UNK N   1      35.588  12.849  10.786  0.00  0.00     0.251 C 
HETATM    7  O   UNK N   1      36.356  13.688  10.336  0.00  0.00    -0.270 OA
ENDROOT
BRANCH   1   8
HETATM    8  C   UNK N   1      35.744  12.264   7.807  0.00  0.00     0.243 C 
HETATM    9  N   UNK N   1      36.628  13.085   7.168  0.00  0.00    -0.337 N 
HETATM   10  C   UNK N   1      38.031  13.065   7.477  0.00  0.00     0.127 A 
HETATM   11  C   UNK N   1      36.257  13.964   6.085  0.00  0.00     0.179 A 
HETATM   12  C   UNK N   1      38.692  13.909   6.403  0.00  0.00     0.022 A 
HETATM   13  C   UNK N   1      37.576  14.528   5.567  0.00  0.00     0.037 A 
HETATM   14  O   UNK N   1      34.570  12.236   7.457  0.00  0.00    -0.271 OA
BRANCH  11  15
HETATM   15  C   UNK N   1      35.312  15.072   6.525  0.00  0.00     0.241 C 
HETATM   16  N   UNK N   1      34.967  15.204   7.832  0.00  0.00    -0.346 N 
HETATM   17  H   UNK N   1      35.306  14.547   8.483  0.00  0.00     0.163 HD
HETATM   18  O   UNK N   1      34.895  15.875   5.704  0.00  0.00    -0.271 OA
BRANCH  16  19
HETATM   19  C   UNK N   1      34.118  16.278   8.302  0.00  0.00     0.172 C 
HETATM   20  C   UNK N   1      32.835  15.710   8.883  0.00  0.00     0.042 C 
BRANCH  19  21
HETATM   21  C   UNK N   1      34.829  17.124   9.322  0.00  0.00     0.237 C 
HETATM   22  N   UNK N   1      34.997  16.661  10.577  0.00  0.00    -0.368 N 
HETATM   23  H   UNK N   1      35.425  17.228  11.258  0.00  0.00     0.159 HD
HETATM   24  H   UNK N   1      34.691  15.755  10.813  0.00  0.00     0.159 HD
HETATM   25  O   UNK N   1      35.241  18.237   9.032  0.00  0.00    -0.271 OA
ENDBRANCH  19  21
ENDBRANCH  16  19
ENDBRANCH  11  15
ENDBRANCH   1   8
BRANCH   6  26
HETATM   26  C   UNK N   1      34.832  13.207  12.063  0.00  0.00     0.232 C 
BRANCH  26  27
HETATM   27  O   UNK N   1      34.032  14.347  11.979  0.00  0.00    -0.384 OA
HETATM   28  H   UNK N   1      34.047  15.120  12.565  0.00  0.00     0.210 HD
ENDBRANCH  26  27
BRANCH  26  29
HETATM   29  C   UNK N   1      35.644  13.260  13.366  0.00  0.00     0.116 C 
BRANCH  29  30
HETATM   30  N   UNK N   1      37.056  13.553  13.160  0.00  0.00    -0.423 N 
HETATM   31  H   UNK N   1      37.419  13.841  12.252  0.00  0.00     0.150 HD
HETATM   32  H   UNK N   1      37.699  13.469  13.948  0.00  0.00     0.150 HD
ENDBRANCH  29  30
BRANCH  29  33
HETATM   33  C   UNK N   1      35.470  11.916  14.059  0.00  0.00     0.066 C 
BRANCH  33  34
HETATM   34  C   UNK N   1      35.379  12.030  15.542  0.00  0.00    -0.056 A 
HETATM   35  C   UNK N   1      35.651  10.906  16.327  0.00  0.00     0.007 A 
HETATM   36  C   UNK N   1      35.607  10.995  17.721  0.00  0.00     0.001 A 
HETATM   37  C   UNK N   1      35.302  12.214  18.333  0.00  0.00     0.000 A 
HETATM   38  C   UNK N   1      35.039  13.344  17.550  0.00  0.00     0.001 A 
HETATM   39  C   UNK N   1      35.077  13.253  16.154  0.00  0.00     0.007 A 
ENDBRANCH  33  34
ENDBRANCH  29  33
ENDBRANCH  26  29
ENDBRANCH   6  26
TORSDOF 10
ENDMDL
MODEL 7
REMARK VINA RESULT:      -7.2      3.953      7.090
REMARK  10 active torsions:
REMARK  status: ('A' for Active; 'I' for Inactive)
REMARK    1  A    between atoms: C_2  and  N_3 
REMARK    2  A    between atoms: C_2  and  C_31 
REMARK       I    between atoms: N_3  and  C_4 
REMARK    3  A    between atoms: C_6  and  C_4 
REMARK       I    between atoms: N_10  and  C_11 
REMARK    4  A    between atoms: C_13  and  C_11 
REMARK       I    between atoms: N_17  and  C_18 
REMARK    5  A    between atoms: C_18  and  C_20 
REMARK    6  A    between atoms: C_20  and  O_21 
REMARK    7  A    between atoms: C_20  and  C_22 
REMARK    8  A    between atoms: C_22  and  N_23 
REMARK    9  A    between atoms: C_22  and  C_24 
REMARK   10  A    between atoms: C_24  and  C_25 
REMARK       I    between atoms: C_31  and  N_32 
ROOT
HETATM    1  C   UNK N   1      34.215  13.116   6.944  0.00  0.00     0.179 C 
HETATM    2  C   UNK N   1      34.109  11.674   6.476  0.00  0.00     0.037 C 
HETATM    3  C   UNK N   1      34.219  10.795   7.717  0.00  0.00     0.022 C 
HETATM    4  C   UNK N   1      34.151  11.720   8.917  0.00  0.00     0.127 C 
HETATM    5  N   UNK N   1      34.239  13.050   8.386  0.00  0.00    -0.336 N 
HETATM    6  C   UNK N   1      34.365  14.180   9.157  0.00  0.00     0.251 C 
HETATM    7  O   UNK N   1      34.513  15.262   8.605  0.00  0.00    -0.270 OA
ENDROOT
BRANCH   1   8
HETATM    8  C   UNK N   1      33.006  13.881   6.454  0.00  0.00     0.243 C 
HETATM    9  N   UNK N   1      33.055  14.608   5.300  0.00  0.00    -0.337 N 
HETATM   10  C   UNK N   1      34.223  14.615   4.465  0.00  0.00     0.127 A 
HETATM   11  C   UNK N   1      31.931  15.347   4.778  0.00  0.00     0.179 A 
HETATM   12  C   UNK N   1      33.800  15.312   3.185  0.00  0.00     0.022 A 
HETATM   13  C   UNK N   1      32.382  15.832   3.404  0.00  0.00     0.037 A 
HETATM   14  O   UNK N   1      31.964  13.820   7.096  0.00  0.00    -0.271 OA
BRANCH  11  15
HETATM   15  C   UNK N   1      31.526  16.510   5.673  0.00  0.00     0.241 C 
HETATM   16  N   UNK N   1      30.461  16.398   6.507  0.00  0.00    -0.346 N 
HETATM   17  H   UNK N   1      29.931  15.568   6.495  0.00  0.00     0.163 HD
HETATM   18  O   UNK N   1      32.191  17.536   5.671  0.00  0.00    -0.271 OA
BRANCH  16  19
HETATM   19  C   UNK N   1      30.078  17.458   7.416  0.00  0.00     0.172 C 
HETATM   20  C   UNK N   1      28.595  17.754   7.273  0.00  0.00     0.042 C 
BRANCH  19  21
HETATM   21  C   UNK N   1      30.408  17.098   8.839  0.00  0.00     0.237 C 
HETATM   22  N   UNK N   1      31.467  16.307   9.101  0.00  0.00    -0.368 N 
HETATM   23  H   UNK N   1      31.663  16.035  10.027  0.00  0.00     0.159 HD
HETATM   24  H   UNK N   1      32.047  16.000   8.366  0.00  0.00     0.159 HD
HETATM   25  O   UNK N   1      29.714  17.499   9.761  0.00  0.00    -0.271 OA
ENDBRANCH  19  21
ENDBRANCH  16  19
ENDBRANCH  11  15
ENDBRANCH   1   8
BRANCH   6  26
HETATM   26  C   UNK N   1      34.372  14.169  10.684  0.00  0.00     0.232 C 
BRANCH  26  27
HETATM   27  O   UNK N   1      33.450  15.025  11.287  0.00  0.00    -0.384 OA
HETATM   28  H   UNK N   1      33.188  15.041  12.221  0.00  0.00     0.210 HD
ENDBRANCH  26  27
BRANCH  26  29
HETATM   29  C   UNK N   1      35.733  14.329  11.379  0.00  0.00     0.116 C 
BRANCH  29  30
HETATM   30  N   UNK N   1      36.716  15.044  10.577  0.00  0.00    -0.423 N 
HETATM   31  H   UNK N   1      37.370  15.707  10.991  0.00  0.00     0.150 HD
HETATM   32  H   UNK N   1      36.752  14.875   9.571  0.00  0.00     0.150 HD
ENDBRANCH  29  30
BRANCH  29  33
HETATM   33  C   UNK N   1      36.230  12.931  11.718  0.00  0.00     0.066 C 
BRANCH  33  34
HETATM   34  C   UNK N   1      35.414  12.259  12.768  0.00  0.00    -0.056 A 
HETATM   35  C   UNK N   1      35.293  12.863  14.023  0.00  0.00     0.007 A 
HETATM   36  C   UNK N   1      34.505  12.272  15.014  0.00  0.00     0.001 A 
HETATM   37  C   UNK N   1      33.826  11.080  14.747  0.00  0.00     0.000 A 
HETATM   38  C   UNK N   1      33.937  10.477  13.489  0.00  0.00     0.001 A 
HETATM   39  C   UNK N   1      34.730  11.066  12.499  0.00  0.00     0.007 A 
ENDBRANCH  33  34
ENDBRANCH  29  33
ENDBRANCH  26  29
ENDBRANCH   6  26
TORSDOF 10
ENDMDL
MODEL 8
REMARK VINA RESULT:      -6.9     11.443     14.033
REMARK  10 active torsions:
REMARK  status: ('A' for Active; 'I' for Inactive)
REMARK    1  A    between atoms: C_2  and  N_3 
REMARK    2  A    between atoms: C_2  and  C_31 
REMARK       I    between atoms: N_3  and  C_4 
REMARK    3  A    between atoms: C_6  and  C_4 
REMARK       I    between atoms: N_10  and  C_11 
REMARK    4  A    between atoms: C_13  and  C_11 
REMARK       I    between atoms: N_17  and  C_18 
REMARK    5  A    between atoms: C_18  and  C_20 
REMARK    6  A    between atoms: C_20  and  O_21 
REMARK    7  A    between atoms: C_20  and  C_22 
REMARK    8  A    between atoms: C_22  and  N_23 
REMARK    9  A    between atoms: C_22  and  C_24 
REMARK   10  A    between atoms: C_24  and  C_25 
REMARK       I    between atoms: C_31  and  N_32 
ROOT
HETATM    1  C   UNK N   1      29.248  26.432  -4.105  0.00  0.00     0.179 C 
HETATM    2  C   UNK N   1      30.336  27.410  -4.517  0.00  0.00     0.037 C 
HETATM    3  C   UNK N   1      31.671  26.758  -4.178  0.00  0.00     0.022 C 
HETATM    4  C   UNK N   1      31.373  25.321  -3.793  0.00  0.00     0.127 C 
HETATM    5  N   UNK N   1      29.944  25.238  -3.690  0.00  0.00    -0.336 N 
HETATM    6  C   UNK N   1      29.270  24.139  -3.213  0.00  0.00     0.251 C 
HETATM    7  O   UNK N   1      28.054  24.197  -3.090  0.00  0.00    -0.270 OA
ENDROOT
BRANCH   1   8
HETATM    8  C   UNK N   1      28.358  26.156  -5.297  0.00  0.00     0.243 C 
HETATM    9  N   UNK N   1      27.046  26.533  -5.295  0.00  0.00    -0.337 N 
HETATM   10  C   UNK N   1      26.476  27.271  -4.202  0.00  0.00     0.127 A 
HETATM   11  C   UNK N   1      26.153  26.307  -6.406  0.00  0.00     0.179 A 
HETATM   12  C   UNK N   1      25.106  27.710  -4.683  0.00  0.00     0.022 A 
HETATM   13  C   UNK N   1      24.873  27.050  -6.039  0.00  0.00     0.037 A 
HETATM   14  O   UNK N   1      28.838  25.611  -6.282  0.00  0.00    -0.271 OA
BRANCH  11  15
HETATM   15  C   UNK N   1      25.887  24.830  -6.656  0.00  0.00     0.241 C 
HETATM   16  N   UNK N   1      26.521  24.177  -7.664  0.00  0.00    -0.346 N 
HETATM   17  H   UNK N   1      27.124  24.683  -8.254  0.00  0.00     0.163 HD
HETATM   18  O   UNK N   1      25.131  24.217  -5.916  0.00  0.00    -0.271 OA
BRANCH  16  19
HETATM   19  C   UNK N   1      26.341  22.759  -7.898  0.00  0.00     0.172 C 
HETATM   20  C   UNK N   1      26.038  22.511  -9.365  0.00  0.00     0.042 C 
BRANCH  19  21
HETATM   21  C   UNK N   1      27.555  21.981  -7.471  0.00  0.00     0.237 C 
HETATM   22  N   UNK N   1      27.895  20.855  -8.129  0.00  0.00    -0.368 N 
HETATM   23  H   UNK N   1      28.665  20.321  -7.827  0.00  0.00     0.159 HD
HETATM   24  H   UNK N   1      27.372  20.565  -8.912  0.00  0.00     0.159 HD
HETATM   25  O   UNK N   1      28.229  22.349  -6.521  0.00  0.00    -0.271 OA
ENDBRANCH  19  21
ENDBRANCH  16  19
ENDBRANCH  11  15
ENDBRANCH   1   8
BRANCH   6  26
HETATM   26  C   UNK N   1      29.955  22.844  -2.783  0.00  0.00     0.232 C 
BRANCH  26  27
HETATM   27  O   UNK N   1      30.624  22.904  -1.560  0.00  0.00    -0.384 OA
HETATM   28  H   UNK N   1      31.558  22.703  -1.392  0.00  0.00     0.210 HD
ENDBRANCH  26  27
BRANCH  26  29
HETATM   29  C   UNK N   1      30.859  22.153  -3.815  0.00  0.00     0.116 C 
BRANCH  29  30
HETATM   30  N   UNK N   1      30.171  21.140  -4.605  0.00  0.00    -0.423 N 
HETATM   31  H   UNK N   1      29.766  20.307  -4.177  0.00  0.00     0.150 HD
HETATM   32  H   UNK N   1      30.093  21.267  -5.614  0.00  0.00     0.150 HD
ENDBRANCH  29  30
BRANCH  29  33
HETATM   33  C   UNK N   1      32.024  21.539  -3.052  0.00  0.00     0.066 C 
BRANCH  33  34
HETATM   34  C   UNK N   1      33.275  21.462  -3.860  0.00  0.00    -0.056 A 
HETATM   35  C   UNK N   1      33.544  22.470  -4.791  0.00  0.00     0.007 A 
HETATM   36  C   UNK N   1      34.726  22.439  -5.536  0.00  0.00     0.001 A 
HETATM   37  C   UNK N   1      35.647  21.406  -5.343  0.00  0.00     0.000 A 
HETATM   38  C   UNK N   1      35.385  20.401  -4.405  0.00  0.00     0.001 A 
HETATM   39  C   UNK N   1      34.199  20.428  -3.663  0.00  0.00     0.007 A 
ENDBRANCH  33  34
ENDBRANCH  29  33
ENDBRANCH  26  29
ENDBRANCH   6  26
TORSDOF 10
ENDMDL
MODEL 9
REMARK VINA RESULT:      -6.9      6.981     10.730
REMARK  10 active torsions:
REMARK  status: ('A' for Active; 'I' for Inactive)
REMARK    1  A    between atoms: C_2  and  N_3 
REMARK    2  A    between atoms: C_2  and  C_31 
REMARK       I    between atoms: N_3  and  C_4 
REMARK    3  A    between atoms: C_6  and  C_4 
REMARK       I    between atoms: N_10  and  C_11 
REMARK    4  A    between atoms: C_13  and  C_11 
REMARK       I    between atoms: N_17  and  C_18 
REMARK    5  A    between atoms: C_18  and  C_20 
REMARK    6  A    between atoms: C_20  and  O_21 
REMARK    7  A    between atoms: C_20  and  C_22 
REMARK    8  A    between atoms: C_22  and  N_23 
REMARK    9  A    between atoms: C_22  and  C_24 
REMARK   10  A    between atoms: C_24  and  C_25 
REMARK       I    between atoms: C_31  and  N_32 
ROOT
HETATM    1  C   UNK N   1      36.720  11.409  14.036  0.00  0.00     0.179 C 
HETATM    2  C   UNK N   1      36.574  11.388  15.548  0.00  0.00     0.037 C 
HETATM    3  C   UNK N   1      35.931  12.711  15.950  0.00  0.00     0.022 C 
HETATM    4  C   UNK N   1      35.491  13.392  14.668  0.00  0.00     0.127 C 
HETATM    5  N   UNK N   1      36.063  12.619  13.604  0.00  0.00    -0.336 N 
HETATM    6  C   UNK N   1      36.029  12.988  12.281  0.00  0.00     0.251 C 
HETATM    7  O   UNK N   1      36.616  12.299  11.458  0.00  0.00    -0.270 OA
ENDROOT
BRANCH   1   8
HETATM    8  C   UNK N   1      36.042  10.186  13.460  0.00  0.00     0.243 C 
HETATM    9  N   UNK N   1      36.773   9.165  12.924  0.00  0.00    -0.337 N 
HETATM   10  C   UNK N   1      38.209   9.171  12.953  0.00  0.00     0.127 A 
HETATM   11  C   UNK N   1      36.182   7.970  12.371  0.00  0.00     0.179 A 
HETATM   12  C   UNK N   1      38.628   7.784  12.505  0.00  0.00     0.022 A 
HETATM   13  C   UNK N   1      37.361   7.049  12.075  0.00  0.00     0.037 A 
HETATM   14  O   UNK N   1      34.821  10.109  13.503  0.00  0.00    -0.271 OA
BRANCH  11  15
HETATM   15  C   UNK N   1      35.363   8.246  11.118  0.00  0.00     0.241 C 
HETATM   16  N   UNK N   1      34.023   8.453  11.203  0.00  0.00    -0.346 N 
HETATM   17  H   UNK N   1      33.585   8.383  12.081  0.00  0.00     0.163 HD
HETATM   18  O   UNK N   1      35.922   8.323  10.034  0.00  0.00    -0.271 OA
BRANCH  16  19
HETATM   19  C   UNK N   1      33.218   8.776  10.044  0.00  0.00     0.172 C 
HETATM   20  C   UNK N   1      31.950   7.939  10.044  0.00  0.00     0.042 C 
BRANCH  19  21
HETATM   21  C   UNK N   1      32.882  10.241  10.008  0.00  0.00     0.237 C 
HETATM   22  N   UNK N   1      33.625  11.116  10.714  0.00  0.00    -0.368 N 
HETATM   23  H   UNK N   1      33.384  12.071  10.726  0.00  0.00     0.159 HD
HETATM   24  H   UNK N   1      34.411  10.801  11.218  0.00  0.00     0.159 HD
HETATM   25  O   UNK N   1      31.928  10.647   9.361  0.00  0.00    -0.271 OA
ENDBRANCH  19  21
ENDBRANCH  16  19
ENDBRANCH  11  15
ENDBRANCH   1   8
BRANCH   6  26
HETATM   26  C   UNK N   1      35.328  14.244  11.768  0.00  0.00     0.232 C 
BRANCH  26  27
HETATM   27  O   UNK N   1      33.948  14.128  11.604  0.00  0.00    -0.384 OA
HETATM   28  H   UNK N   1      33.318  14.839  11.406  0.00  0.00     0.210 HD
ENDBRANCH  26  27
BRANCH  26  29
HETATM   29  C   UNK N   1      35.925  14.921  10.524  0.00  0.00     0.116 C 
BRANCH  29  30
HETATM   30  N   UNK N   1      37.368  15.108  10.599  0.00  0.00    -0.423 N 
HETATM   31  H   UNK N   1      38.013  14.547  10.043  0.00  0.00     0.150 HD
HETATM   32  H   UNK N   1      37.743  15.820  11.226  0.00  0.00     0.150 HD
ENDBRANCH  29  30
BRANCH  29  33
HETATM   33  C   UNK N   1      35.218  16.259  10.358  0.00  0.00     0.066 C 
BRANCH  33  34
HETATM   34  C   UNK N   1      34.739  16.498   8.967  0.00  0.00    -0.056 A 
HETATM   35  C   UNK N   1      34.170  17.734   8.649  0.00  0.00     0.007 A 
HETATM   36  C   UNK N   1      33.744  17.996   7.344  0.00  0.00     0.001 A 
HETATM   37  C   UNK N   1      33.898  17.025   6.351  0.00  0.00     0.000 A 
HETATM   38  C   UNK N   1      34.477  15.789   6.664  0.00  0.00     0.001 A 
HETATM   39  C   UNK N   1      34.898  15.525   7.972  0.00  0.00     0.007 A 
ENDBRANCH  33  34
ENDBRANCH  29  33
ENDBRANCH  26  29
ENDBRANCH   6  26
TORSDOF 10
ENDMDL
