REMARK  8 active torsions:
REMARK  status: ('A' for Active; 'I' for Inactive)
REMARK       I    between atoms: C_2  and  N_4 
REMARK       I    between atoms: N_7  and  C_10 
REMARK    1  A    between atoms: C_10  and  C_12 
REMARK    2  A    between atoms: C_12  and  C_13 
REMARK    3  A    between atoms: C_12  and  N_24 
REMARK    4  A    between atoms: C_13  and  C_14 
REMARK    5  A    between atoms: C_18  and  C_20 
REMARK    6  A    between atoms: C_20  and  N_21 
REMARK    7  A    between atoms: N_24  and  S_25 
REMARK    8  A    between atoms: S_25  and  C_28 
ROOT
HETATM    1  C   UNK N   1      -1.822  -1.153  -0.019  0.00  0.00     0.189 C 
ENDROOT
BRANCH   1   2
HETATM    2  C   UNK N   1      -2.239   0.331   0.074  0.00  0.00     0.243 C 
HETATM    3  N   UNK N   1      -1.491   1.405  -0.358  0.00  0.00    -0.347 N 
HETATM    4  C   UNK N   1      -0.134   1.297  -0.863  0.00  0.00     0.145 C 
HETATM    5  C   UNK N   1      -2.046   2.742  -0.290  0.00  0.00     0.145 C 
HETATM    6  C   UNK N   1       0.780   2.171   0.006  0.00  0.00     0.145 C 
HETATM    7  N   UNK N   1       0.221   3.499   0.134  0.00  0.00    -0.349 N 
HETATM    8  C   UNK N   1       0.966   4.607  -0.145  0.00  0.00     0.215 C 
HETATM    9  C   UNK N   1      -1.156   3.623   0.579  0.00  0.00     0.145 C 
HETATM   10  C   UNK N   1       0.393   5.982  -0.025  0.00  0.00     0.117 C 
HETATM   11  O   UNK N   1       2.137   4.486  -0.490  0.00  0.00    -0.274 OA
HETATM   12  O   UNK N   1      -3.325   0.570   0.593  0.00  0.00    -0.271 OA
ENDBRANCH   1   2
BRANCH   1  13
HETATM   13  C   UNK N   1      -2.731  -1.985  -0.931  0.00  0.00     0.074 C 
BRANCH  13  14
HETATM   14  C   UNK N   1      -4.114  -2.235  -0.459  0.00  0.00    -0.055 A 
HETATM   15  C   UNK N   1      -4.517  -3.530  -0.126  0.00  0.00     0.007 A 
HETATM   16  C   UNK N   1      -5.838  -3.765   0.269  0.00  0.00     0.002 A 
HETATM   17  C   UNK N   1      -6.751  -2.704   0.328  0.00  0.00     0.015 A 
HETATM   18  C   UNK N   1      -6.345  -1.406  -0.018  0.00  0.00     0.007 A 
HETATM   19  C   UNK N   1      -5.032  -1.192  -0.424  0.00  0.00     0.022 A 
BRANCH  18  20
HETATM   20  C   UNK N   1      -7.278  -0.265   0.057  0.00  0.00     0.102 C 
HETATM   21  N   UNK N   1      -6.873   0.922  -0.215  0.00  0.00    -0.385 N 
HETATM   22  H   UNK N   1      -5.929   1.108  -0.424  0.00  0.00     0.157 HD
ATOM     23  HN  UNK N   1      -7.544   1.691  -0.215  1.00  0.00     0.157 HD
BRANCH  20  24
HETATM   24  N   UNK N   1      -8.615  -0.465   0.464  0.00  0.00    -0.385 N 
HETATM   25  H   UNK N   1      -9.202   0.273   0.748  0.00  0.00     0.157 HD
HETATM   26  H   UNK N   1      -8.976  -1.381   0.464  0.00  0.00     0.157 HD
ENDBRANCH  20  24
ENDBRANCH  18  20
ENDBRANCH  13  14
ENDBRANCH   1  13
BRANCH   1  27
HETATM   27  N   UNK N   1      -0.523  -1.317  -0.613  0.00  0.00    -0.301 N 
HETATM   28  H   UNK N   1      -0.210  -0.799  -1.434  0.00  0.00     0.173 HD
BRANCH  27  29
HETATM   29  S   UNK N   1       0.472  -2.505   0.222  0.00  0.00     0.259 S 
HETATM   30  O   UNK N   1       0.904  -3.208  -1.064  0.00  0.00    -0.201 OA
HETATM   31  O   UNK N   1      -0.341  -3.689   0.784  0.00  0.00    -0.201 OA
BRANCH  29  32
HETATM   32  C   UNK N   1       2.045  -1.814   0.666  0.00  0.00     0.080 A 
HETATM   33  C   UNK N   1       2.048  -0.458   0.994  0.00  0.00     0.026 A 
HETATM   34  C   UNK N   1       3.214   0.295   0.895  0.00  0.00     0.014 A 
HETATM   35  C   UNK N   1       4.383  -0.300   0.433  0.00  0.00    -0.026 A 
HETATM   36  C   UNK N   1       5.532   0.470   0.257  0.00  0.00     0.012 A 
HETATM   37  C   UNK N   1       4.400  -1.680   0.125  0.00  0.00    -0.025 A 
HETATM   38  C   UNK N   1       6.702  -0.125  -0.218  0.00  0.00     0.001 A 
HETATM   39  C   UNK N   1       6.727  -1.494  -0.508  0.00  0.00     0.001 A 
HETATM   40  C   UNK N   1       5.576  -2.271  -0.342  0.00  0.00     0.012 A 
HETATM   41  C   UNK N   1       3.225  -2.429   0.228  0.00  0.00     0.037 A 
ENDBRANCH  29  32
ENDBRANCH  27  29
ENDBRANCH   1  27
TORSDOF 8
