REMARK  10 active torsions:
REMARK  status: ('A' for Active; 'I' for Inactive)
REMARK    1  A    between atoms: C_2  and  O_3 
REMARK    2  A    between atoms: O_3  and  P_4 
REMARK    3  A    between atoms: P_4  and  O_6 
REMARK    4  A    between atoms: P_4  and  C_9 
REMARK    5  A    between atoms: O_6  and  C_7 
REMARK    6  A    between atoms: C_9  and  N_11 
REMARK       I    between atoms: N_11  and  C_12 
REMARK       I    between atoms: C_12  and  N_14 
REMARK    7  A    between atoms: N_14  and  C_15 
REMARK    8  A    between atoms: N_14  and  N_18 
REMARK    9  A    between atoms: C_15  and  C_16 
REMARK   10  A    between atoms: N_18  and  O_20 
ROOT
HETATM    1  N   UNK N   1       8.071   2.719   0.287  0.00  0.00    -0.326 N 
HETATM    2  C   UNK N   1       9.356   2.605   0.748  0.00  0.00     0.339 C 
HETATM    3  O   UNK N   1       9.772   3.470   1.504  0.00  0.00    -0.245 OA
HETATM    4  N   UNK N   1      10.197   1.584   0.367  0.00  0.00    -0.222 N 
HETATM    5  H   UNK N   1       7.501   3.417   0.684  0.00  0.00     0.165 HD
ENDROOT
BRANCH   1   6
HETATM    6  C   UNK N   1       7.498   1.886  -0.742  0.00  0.00     0.200 C 
HETATM    7  C   UNK N   1       7.444   2.665  -2.040  0.00  0.00     0.045 C 
BRANCH   6   8
HETATM    8  P   UNK N   1       5.785   1.259  -0.339  0.00  0.00     0.350 P 
HETATM    9  O   UNK N   1       5.469   0.275  -1.502  0.00  0.00    -0.257 OA
BRANCH   8  10
HETATM   10  O   UNK N   1       5.568   0.299   1.112  0.00  0.00    -0.313 OA
BRANCH  10  11
HETATM   11  C   UNK N   1       4.554  -0.633   0.849  0.00  0.00     0.174 C 
HETATM   12  C   UNK N   1       3.331  -0.334   1.692  0.00  0.00     0.034 C 
ENDBRANCH  10  11
ENDBRANCH   8  10
BRANCH   8  13
HETATM   13  O   UNK N   1       4.481   2.403  -0.484  0.00  0.00    -0.313 OA
BRANCH  13  14
HETATM   14  C   UNK N   1       4.651   3.318   0.552  0.00  0.00     0.174 C 
HETATM   15  C   UNK N   1       3.362   4.094   0.738  0.00  0.00     0.034 C 
ENDBRANCH  13  14
ENDBRANCH   8  13
ENDBRANCH   6   8
ENDBRANCH   1   6
BRANCH   4  16
HETATM   16  C   UNK N   1      11.578   1.598   0.815  0.00  0.00     0.171 C 
BRANCH  16  17
HETATM   17  C   UNK N   1      12.476   2.117  -0.298  0.00  0.00     0.136 C 
HETATM   18 Cl   UNK N   1      13.048   3.751   0.117  0.00  0.00    -0.129 Cl
ENDBRANCH  16  17
ENDBRANCH   4  16
BRANCH   4  19
HETATM   19  N   UNK N   1       9.748   0.529  -0.400  0.00  0.00    -0.204 N 
ATOM     20  HN  UNK N   1       8.798   0.549  -0.772  1.00  0.00     0.216 HD
BRANCH  19  21
HETATM   21  O   UNK N   1      10.451  -0.407  -0.636  0.00  0.00    -0.274 OA
ATOM     22  HO  UNK N   1      10.141  -1.134  -1.165  1.00  0.00     0.246 HD
ENDBRANCH  19  21
ENDBRANCH   4  19
TORSDOF 10
