MODEL 1
REMARK VINA RESULT:      -4.7      0.000      0.000
REMARK  14 active torsions:
REMARK  status: ('A' for Active; 'I' for Inactive)
REMARK    1  A    between atoms: C_2  and  C_3 
REMARK    2  A    between atoms: C_3  and  C_4 
REMARK    3  A    between atoms: C_4  and  C_5 
REMARK    4  A    between atoms: C_5  and  C_6 
REMARK    5  A    between atoms: C_6  and  C_7 
REMARK    6  A    between atoms: C_8  and  C_9 
REMARK    7  A    between atoms: C_9  and  C_10 
REMARK    8  A    between atoms: C_10  and  C_11 
REMARK    9  A    between atoms: C_11  and  C_12 
REMARK   10  A    between atoms: C_12  and  C_13 
REMARK   11  A    between atoms: C_13  and  C_14 
REMARK   12  A    between atoms: C_14  and  C_15 
REMARK   13  A    between atoms: C_15  and  C_16 
REMARK   14  A    between atoms: C_16  and  O_17 
ROOT
HETATM    1  C   UNK N   1      27.066  23.994  -5.252  0.00  0.00     0.004 C 
ENDROOT
BRANCH   1   2
HETATM    2  C   UNK N   1      25.992  24.459  -6.201  0.00  0.00     0.027 C 
BRANCH   2   3
HETATM    3  C   UNK N   1      26.337  25.601  -7.109  0.00  0.00    -0.031 C 
HETATM    4  C   UNK N   1      25.799  26.806  -6.856  0.00  0.00    -0.031 C 
BRANCH   4   5
HETATM    5  C   UNK N   1      24.882  26.946  -5.678  0.00  0.00     0.027 C 
BRANCH   5   6
HETATM    6  C   UNK N   1      25.331  27.850  -4.561  0.00  0.00     0.004 C 
BRANCH   6   7
HETATM    7  C   UNK N   1      26.771  28.157  -4.920  0.00  0.00     0.000 C 
BRANCH   7   8
HETATM    8  C   UNK N   1      27.724  28.069  -3.753  0.00  0.00    -0.000 C 
BRANCH   8   9
HETATM    9  C   UNK N   1      28.857  27.154  -4.177  0.00  0.00    -0.005 C 
HETATM   10  C   UNK N   1      29.240  27.420  -5.616  0.00  0.00     0.005 C 
ENDBRANCH   8   9
ENDBRANCH   7   8
ENDBRANCH   6   7
ENDBRANCH   5   6
ENDBRANCH   4   5
ENDBRANCH   2   3
ENDBRANCH   1   2
BRANCH   1  11
HETATM   11  C   UNK N   1      26.489  24.311  -3.890  0.00  0.00     0.000 C 
BRANCH  11  12
HETATM   12  C   UNK N   1      27.407  23.971  -2.742  0.00  0.00     0.000 C 
BRANCH  12  13
HETATM   13  C   UNK N   1      28.736  23.589  -3.361  0.00  0.00     0.001 C 
BRANCH  13  14
HETATM   14  C   UNK N   1      29.731  23.175  -2.303  0.00  0.00     0.010 C 
BRANCH  14  15
HETATM   15  C   UNK N   1      31.097  23.031  -2.958  0.00  0.00     0.110 C 
BRANCH  15  16
HETATM   16  C   UNK N   1      31.595  21.622  -2.932  0.00  0.00     0.139 C 
HETATM   17  O   UNK N   1      31.069  20.786  -3.656  0.00  0.00    -0.650 OA
BRANCH  16  18
HETATM   18  O   UNK N   1      32.611  21.256  -2.130  0.00  0.00    -0.776 OA
HETATM   19  H   UNK N   1      32.859  20.354  -2.070  0.00  0.00     0.167 HD
ENDBRANCH  16  18
ENDBRANCH  15  16
ENDBRANCH  14  15
ENDBRANCH  13  14
ENDBRANCH  12  13
ENDBRANCH  11  12
ENDBRANCH   1  11
TORSDOF 14
ENDMDL
MODEL 2
REMARK VINA RESULT:      -4.4      3.576      4.973
REMARK  14 active torsions:
REMARK  status: ('A' for Active; 'I' for Inactive)
REMARK    1  A    between atoms: C_2  and  C_3 
REMARK    2  A    between atoms: C_3  and  C_4 
REMARK    3  A    between atoms: C_4  and  C_5 
REMARK    4  A    between atoms: C_5  and  C_6 
REMARK    5  A    between atoms: C_6  and  C_7 
REMARK    6  A    between atoms: C_8  and  C_9 
REMARK    7  A    between atoms: C_9  and  C_10 
REMARK    8  A    between atoms: C_10  and  C_11 
REMARK    9  A    between atoms: C_11  and  C_12 
REMARK   10  A    between atoms: C_12  and  C_13 
REMARK   11  A    between atoms: C_13  and  C_14 
REMARK   12  A    between atoms: C_14  and  C_15 
REMARK   13  A    between atoms: C_15  and  C_16 
REMARK   14  A    between atoms: C_16  and  O_17 
ROOT
HETATM    1  C   UNK N   1      28.049  26.387  -7.338  0.00  0.00     0.004 C 
ENDROOT
BRANCH   1   2
HETATM    2  C   UNK N   1      26.913  27.335  -7.058  0.00  0.00     0.027 C 
BRANCH   2   3
HETATM    3  C   UNK N   1      25.561  26.727  -6.831  0.00  0.00    -0.031 C 
HETATM    4  C   UNK N   1      24.920  27.001  -5.682  0.00  0.00    -0.031 C 
BRANCH   4   5
HETATM    5  C   UNK N   1      25.591  27.901  -4.687  0.00  0.00     0.027 C 
BRANCH   5   6
HETATM    6  C   UNK N   1      25.945  27.305  -3.351  0.00  0.00     0.004 C 
BRANCH   6   7
HETATM    7  C   UNK N   1      27.171  26.468  -3.657  0.00  0.00     0.000 C 
BRANCH   7   8
HETATM    8  C   UNK N   1      26.967  24.988  -3.449  0.00  0.00    -0.000 C 
BRANCH   8   9
HETATM    9  C   UNK N   1      28.331  24.334  -3.564  0.00  0.00    -0.005 C 
HETATM   10  C   UNK N   1      29.367  25.347  -4.000  0.00  0.00     0.005 C 
ENDBRANCH   8   9
ENDBRANCH   7   8
ENDBRANCH   6   7
ENDBRANCH   5   6
ENDBRANCH   4   5
ENDBRANCH   2   3
ENDBRANCH   1   2
BRANCH   1  11
HETATM   11  C   UNK N   1      27.401  25.024  -7.220  0.00  0.00     0.000 C 
BRANCH  11  12
HETATM   12  C   UNK N   1      28.373  23.873  -7.324  0.00  0.00     0.000 C 
BRANCH  12  13
HETATM   13  C   UNK N   1      27.650  22.658  -6.781  0.00  0.00     0.001 C 
BRANCH  13  14
HETATM   14  C   UNK N   1      26.233  22.999  -6.383  0.00  0.00     0.010 C 
BRANCH  14  15
HETATM   15  C   UNK N   1      25.294  22.012  -7.059  0.00  0.00     0.110 C 
BRANCH  15  16
HETATM   16  C   UNK N   1      25.028  22.367  -8.487  0.00  0.00     0.139 C 
HETATM   17  O   UNK N   1      25.236  21.534  -9.360  0.00  0.00    -0.650 OA
BRANCH  16  18
HETATM   18  O   UNK N   1      24.565  23.583  -8.829  0.00  0.00    -0.776 OA
HETATM   19  H   UNK N   1      24.456  24.244  -8.174  0.00  0.00     0.167 HD
ENDBRANCH  16  18
ENDBRANCH  15  16
ENDBRANCH  14  15
ENDBRANCH  13  14
ENDBRANCH  12  13
ENDBRANCH  11  12
ENDBRANCH   1  11
TORSDOF 14
ENDMDL
MODEL 3
REMARK VINA RESULT:      -4.3     10.897     14.300
REMARK  14 active torsions:
REMARK  status: ('A' for Active; 'I' for Inactive)
REMARK    1  A    between atoms: C_2  and  C_3 
REMARK    2  A    between atoms: C_3  and  C_4 
REMARK    3  A    between atoms: C_4  and  C_5 
REMARK    4  A    between atoms: C_5  and  C_6 
REMARK    5  A    between atoms: C_6  and  C_7 
REMARK    6  A    between atoms: C_8  and  C_9 
REMARK    7  A    between atoms: C_9  and  C_10 
REMARK    8  A    between atoms: C_10  and  C_11 
REMARK    9  A    between atoms: C_11  and  C_12 
REMARK   10  A    between atoms: C_12  and  C_13 
REMARK   11  A    between atoms: C_13  and  C_14 
REMARK   12  A    between atoms: C_14  and  C_15 
REMARK   13  A    between atoms: C_15  and  C_16 
REMARK   14  A    between atoms: C_16  and  O_17 
ROOT
HETATM    1  C   UNK N   1      28.579  18.554   8.279  0.00  0.00     0.004 C 
ENDROOT
BRANCH   1   2
HETATM    2  C   UNK N   1      29.975  18.411   8.826  0.00  0.00     0.027 C 
BRANCH   2   3
HETATM    3  C   UNK N   1      30.565  17.033   8.829  0.00  0.00    -0.031 C 
HETATM    4  C   UNK N   1      31.857  16.888   8.488  0.00  0.00    -0.031 C 
BRANCH   4   5
HETATM    5  C   UNK N   1      32.640  18.113   8.122  0.00  0.00     0.027 C 
BRANCH   5   6
HETATM    6  C   UNK N   1      34.069  17.911   7.690  0.00  0.00     0.004 C 
BRANCH   6   7
HETATM    7  C   UNK N   1      33.945  16.967   6.512  0.00  0.00     0.000 C 
BRANCH   7   8
HETATM    8  C   UNK N   1      33.311  17.590   5.292  0.00  0.00    -0.000 C 
BRANCH   8   9
HETATM    9  C   UNK N   1      32.522  16.497   4.598  0.00  0.00    -0.005 C 
HETATM   10  C   UNK N   1      31.759  17.063   3.421  0.00  0.00     0.005 C 
ENDBRANCH   8   9
ENDBRANCH   7   8
ENDBRANCH   6   7
ENDBRANCH   5   6
ENDBRANCH   4   5
ENDBRANCH   2   3
ENDBRANCH   1   2
BRANCH   1  11
HETATM   11  C   UNK N   1      28.522  17.502   7.191  0.00  0.00     0.000 C 
BRANCH  11  12
HETATM   12  C   UNK N   1      29.002  17.988   5.845  0.00  0.00     0.000 C 
BRANCH  12  13
HETATM   13  C   UNK N   1      27.758  18.273   5.030  0.00  0.00     0.001 C 
BRANCH  13  14
HETATM   14  C   UNK N   1      27.813  19.651   4.414  0.00  0.00     0.010 C 
BRANCH  14  15
HETATM   15  C   UNK N   1      26.602  20.438   4.889  0.00  0.00     0.110 C 
BRANCH  15  16
HETATM   16  C   UNK N   1      26.807  21.036   6.244  0.00  0.00     0.139 C 
HETATM   17  O   UNK N   1      27.706  21.851   6.409  0.00  0.00    -0.650 OA
BRANCH  16  18
HETATM   18  O   UNK N   1      26.022  20.696   7.282  0.00  0.00    -0.776 OA
HETATM   19  H   UNK N   1      26.090  19.840   7.659  0.00  0.00     0.167 HD
ENDBRANCH  16  18
ENDBRANCH  15  16
ENDBRANCH  14  15
ENDBRANCH  13  14
ENDBRANCH  12  13
ENDBRANCH  11  12
ENDBRANCH   1  11
TORSDOF 14
ENDMDL
MODEL 4
REMARK VINA RESULT:      -4.3      3.708      6.586
REMARK  14 active torsions:
REMARK  status: ('A' for Active; 'I' for Inactive)
REMARK    1  A    between atoms: C_2  and  C_3 
REMARK    2  A    between atoms: C_3  and  C_4 
REMARK    3  A    between atoms: C_4  and  C_5 
REMARK    4  A    between atoms: C_5  and  C_6 
REMARK    5  A    between atoms: C_6  and  C_7 
REMARK    6  A    between atoms: C_8  and  C_9 
REMARK    7  A    between atoms: C_9  and  C_10 
REMARK    8  A    between atoms: C_10  and  C_11 
REMARK    9  A    between atoms: C_11  and  C_12 
REMARK   10  A    between atoms: C_12  and  C_13 
REMARK   11  A    between atoms: C_13  and  C_14 
REMARK   12  A    between atoms: C_14  and  C_15 
REMARK   13  A    between atoms: C_15  and  C_16 
REMARK   14  A    between atoms: C_16  and  O_17 
ROOT
HETATM    1  C   UNK N   1      27.169  24.779  -6.554  0.00  0.00     0.004 C 
ENDROOT
BRANCH   1   2
HETATM    2  C   UNK N   1      26.867  23.749  -5.497  0.00  0.00     0.027 C 
BRANCH   2   3
HETATM    3  C   UNK N   1      26.325  24.254  -4.192  0.00  0.00    -0.031 C 
HETATM    4  C   UNK N   1      27.162  24.349  -3.145  0.00  0.00    -0.031 C 
BRANCH   4   5
HETATM    5  C   UNK N   1      28.592  23.945  -3.335  0.00  0.00     0.027 C 
BRANCH   5   6
HETATM    6  C   UNK N   1      29.191  23.028  -2.302  0.00  0.00     0.004 C 
BRANCH   6   7
HETATM    7  C   UNK N   1      30.377  22.419  -3.023  0.00  0.00     0.000 C 
BRANCH   7   8
HETATM    8  C   UNK N   1      30.147  22.198  -4.498  0.00  0.00    -0.000 C 
BRANCH   8   9
HETATM    9  C   UNK N   1      30.576  20.775  -4.803  0.00  0.00    -0.005 C 
HETATM   10  C   UNK N   1      30.478  20.501  -6.287  0.00  0.00     0.005 C 
ENDBRANCH   8   9
ENDBRANCH   7   8
ENDBRANCH   6   7
ENDBRANCH   5   6
ENDBRANCH   4   5
ENDBRANCH   2   3
ENDBRANCH   1   2
BRANCH   1  11
HETATM   11  C   UNK N   1      25.813  25.387  -6.845  0.00  0.00     0.000 C 
BRANCH  11  12
HETATM   12  C   UNK N   1      25.767  26.886  -6.680  0.00  0.00     0.000 C 
BRANCH  12  13
HETATM   13  C   UNK N   1      24.718  27.164  -5.623  0.00  0.00     0.001 C 
BRANCH  13  14
HETATM   14  C   UNK N   1      25.332  27.803  -4.400  0.00  0.00     0.010 C 
BRANCH  14  15
HETATM   15  C   UNK N   1      26.571  28.573  -4.830  0.00  0.00     0.110 C 
BRANCH  15  16
HETATM   16  C   UNK N   1      26.847  29.747  -3.947  0.00  0.00     0.139 C 
HETATM   17  O   UNK N   1      27.953  29.865  -3.435  0.00  0.00    -0.650 OA
BRANCH  16  18
HETATM   18  O   UNK N   1      25.903  30.675  -3.704  0.00  0.00    -0.776 OA
HETATM   19  H   UNK N   1      25.003  30.485  -3.884  0.00  0.00     0.167 HD
ENDBRANCH  16  18
ENDBRANCH  15  16
ENDBRANCH  14  15
ENDBRANCH  13  14
ENDBRANCH  12  13
ENDBRANCH  11  12
ENDBRANCH   1  11
TORSDOF 14
ENDMDL
MODEL 5
REMARK VINA RESULT:      -4.2     10.391     13.313
REMARK  14 active torsions:
REMARK  status: ('A' for Active; 'I' for Inactive)
REMARK    1  A    between atoms: C_2  and  C_3 
REMARK    2  A    between atoms: C_3  and  C_4 
REMARK    3  A    between atoms: C_4  and  C_5 
REMARK    4  A    between atoms: C_5  and  C_6 
REMARK    5  A    between atoms: C_6  and  C_7 
REMARK    6  A    between atoms: C_8  and  C_9 
REMARK    7  A    between atoms: C_9  and  C_10 
REMARK    8  A    between atoms: C_10  and  C_11 
REMARK    9  A    between atoms: C_11  and  C_12 
REMARK   10  A    between atoms: C_12  and  C_13 
REMARK   11  A    between atoms: C_13  and  C_14 
REMARK   12  A    between atoms: C_14  and  C_15 
REMARK   13  A    between atoms: C_15  and  C_16 
REMARK   14  A    between atoms: C_16  and  O_17 
ROOT
HETATM    1  C   UNK N   1      25.583  19.915   3.330  0.00  0.00     0.004 C 
ENDROOT
BRANCH   1   2
HETATM    2  C   UNK N   1      26.812  20.292   4.116  0.00  0.00     0.027 C 
BRANCH   2   3
HETATM    3  C   UNK N   1      26.594  20.842   5.494  0.00  0.00    -0.031 C 
HETATM    4  C   UNK N   1      27.244  20.270   6.522  0.00  0.00    -0.031 C 
BRANCH   4   5
HETATM    5  C   UNK N   1      28.153  19.113   6.237  0.00  0.00     0.027 C 
BRANCH   5   6
HETATM    6  C   UNK N   1      27.679  17.747   6.657  0.00  0.00     0.004 C 
BRANCH   6   7
HETATM    7  C   UNK N   1      28.671  17.351   7.733  0.00  0.00     0.000 C 
BRANCH   7   8
HETATM    8  C   UNK N   1      28.291  17.819   9.116  0.00  0.00    -0.000 C 
BRANCH   8   9
HETATM    9  C   UNK N   1      29.515  18.492   9.707  0.00  0.00    -0.005 C 
HETATM   10  C   UNK N   1      30.733  18.215   8.853  0.00  0.00     0.005 C 
ENDBRANCH   8   9
ENDBRANCH   7   8
ENDBRANCH   6   7
ENDBRANCH   5   6
ENDBRANCH   4   5
ENDBRANCH   2   3
ENDBRANCH   1   2
BRANCH   1  11
HETATM   11  C   UNK N   1      25.169  18.595   3.943  0.00  0.00     0.000 C 
BRANCH  11  12
HETATM   12  C   UNK N   1      23.769  18.594   4.507  0.00  0.00     0.000 C 
BRANCH  12  13
HETATM   13  C   UNK N   1      22.998  17.551   3.724  0.00  0.00     0.001 C 
BRANCH  13  14
HETATM   14  C   UNK N   1      21.545  17.938   3.584  0.00  0.00     0.010 C 
BRANCH  14  15
HETATM   15  C   UNK N   1      21.404  19.412   3.934  0.00  0.00     0.110 C 
BRANCH  15  16
HETATM   16  C   UNK N   1      21.368  20.284   2.720  0.00  0.00     0.139 C 
HETATM   17  O   UNK N   1      20.780  19.894   1.719  0.00  0.00    -0.650 OA
BRANCH  16  18
HETATM   18  O   UNK N   1      21.969  21.487   2.708  0.00  0.00    -0.776 OA
HETATM   19  H   UNK N   1      22.533  21.736   3.414  0.00  0.00     0.167 HD
ENDBRANCH  16  18
ENDBRANCH  15  16
ENDBRANCH  14  15
ENDBRANCH  13  14
ENDBRANCH  12  13
ENDBRANCH  11  12
ENDBRANCH   1  11
TORSDOF 14
ENDMDL
MODEL 6
REMARK VINA RESULT:      -4.2     19.494     23.657
REMARK  14 active torsions:
REMARK  status: ('A' for Active; 'I' for Inactive)
REMARK    1  A    between atoms: C_2  and  C_3 
REMARK    2  A    between atoms: C_3  and  C_4 
REMARK    3  A    between atoms: C_4  and  C_5 
REMARK    4  A    between atoms: C_5  and  C_6 
REMARK    5  A    between atoms: C_6  and  C_7 
REMARK    6  A    between atoms: C_8  and  C_9 
REMARK    7  A    between atoms: C_9  and  C_10 
REMARK    8  A    between atoms: C_10  and  C_11 
REMARK    9  A    between atoms: C_11  and  C_12 
REMARK   10  A    between atoms: C_12  and  C_13 
REMARK   11  A    between atoms: C_13  and  C_14 
REMARK   12  A    between atoms: C_14  and  C_15 
REMARK   13  A    between atoms: C_15  and  C_16 
REMARK   14  A    between atoms: C_16  and  O_17 
ROOT
HETATM    1  C   UNK N   1      38.043  11.287  14.283  0.00  0.00     0.004 C 
ENDROOT
BRANCH   1   2
HETATM    2  C   UNK N   1      37.427  10.146  15.049  0.00  0.00     0.027 C 
BRANCH   2   3
HETATM    3  C   UNK N   1      36.777  10.480  16.358  0.00  0.00    -0.031 C 
HETATM    4  C   UNK N   1      35.443  10.362  16.460  0.00  0.00    -0.031 C 
BRANCH   4   5
HETATM    5  C   UNK N   1      34.673   9.902  15.258  0.00  0.00     0.027 C 
BRANCH   5   6
HETATM    6  C   UNK N   1      33.712  10.884  14.640  0.00  0.00     0.004 C 
BRANCH   6   7
HETATM    7  C   UNK N   1      33.718  10.498  13.175  0.00  0.00     0.000 C 
BRANCH   7   8
HETATM    8  C   UNK N   1      34.620   9.332  12.852  0.00  0.00    -0.000 C 
BRANCH   8   9
HETATM    9  C   UNK N   1      34.556   9.127  11.351  0.00  0.00    -0.005 C 
HETATM   10  C   UNK N   1      33.541  10.062  10.732  0.00  0.00     0.005 C 
ENDBRANCH   8   9
ENDBRANCH   7   8
ENDBRANCH   6   7
ENDBRANCH   5   6
ENDBRANCH   4   5
ENDBRANCH   2   3
ENDBRANCH   1   2
BRANCH   1  11
HETATM   11  C   UNK N   1      37.323  11.241  12.952  0.00  0.00     0.000 C 
BRANCH  11  12
HETATM   12  C   UNK N   1      37.449  12.509  12.144  0.00  0.00     0.000 C 
BRANCH  12  13
HETATM   13  C   UNK N   1      36.070  12.797  11.590  0.00  0.00     0.001 C 
BRANCH  13  14
HETATM   14  C   UNK N   1      35.438  13.979  12.287  0.00  0.00     0.010 C 
BRANCH  14  15
HETATM   15  C   UNK N   1      34.845  14.899  11.231  0.00  0.00     0.110 C 
BRANCH  15  16
HETATM   16  C   UNK N   1      35.699  16.098  10.976  0.00  0.00     0.139 C 
HETATM   17  O   UNK N   1      35.171  17.198  10.863  0.00  0.00    -0.650 OA
BRANCH  16  18
HETATM   18  O   UNK N   1      37.036  15.992  10.867  0.00  0.00    -0.776 OA
HETATM   19  H   UNK N   1      37.410  15.421  10.225  0.00  0.00     0.167 HD
ENDBRANCH  16  18
ENDBRANCH  15  16
ENDBRANCH  14  15
ENDBRANCH  13  14
ENDBRANCH  12  13
ENDBRANCH  11  12
ENDBRANCH   1  11
TORSDOF 14
ENDMDL
MODEL 7
REMARK VINA RESULT:      -4.2     20.818     24.602
REMARK  14 active torsions:
REMARK  status: ('A' for Active; 'I' for Inactive)
REMARK    1  A    between atoms: C_2  and  C_3 
REMARK    2  A    between atoms: C_3  and  C_4 
REMARK    3  A    between atoms: C_4  and  C_5 
REMARK    4  A    between atoms: C_5  and  C_6 
REMARK    5  A    between atoms: C_6  and  C_7 
REMARK    6  A    between atoms: C_8  and  C_9 
REMARK    7  A    between atoms: C_9  and  C_10 
REMARK    8  A    between atoms: C_10  and  C_11 
REMARK    9  A    between atoms: C_11  and  C_12 
REMARK   10  A    between atoms: C_12  and  C_13 
REMARK   11  A    between atoms: C_13  and  C_14 
REMARK   12  A    between atoms: C_14  and  C_15 
REMARK   13  A    between atoms: C_15  and  C_16 
REMARK   14  A    between atoms: C_16  and  O_17 
ROOT
HETATM    1  C   UNK N   1      35.901  10.937  16.444  0.00  0.00     0.004 C 
ENDROOT
BRANCH   1   2
HETATM    2  C   UNK N   1      34.764  10.052  16.005  0.00  0.00     0.027 C 
BRANCH   2   3
HETATM    3  C   UNK N   1      33.740  10.662  15.096  0.00  0.00    -0.031 C 
HETATM    4  C   UNK N   1      33.872  10.485  13.771  0.00  0.00    -0.031 C 
BRANCH   4   5
HETATM    5  C   UNK N   1      35.036   9.685  13.270  0.00  0.00     0.027 C 
BRANCH   5   6
HETATM    6  C   UNK N   1      35.876  10.300  12.182  0.00  0.00     0.004 C 
BRANCH   6   7
HETATM    7  C   UNK N   1      37.198  10.567  12.872  0.00  0.00     0.000 C 
BRANCH   7   8
HETATM    8  C   UNK N   1      37.764   9.368  13.593  0.00  0.00    -0.000 C 
BRANCH   8   9
HETATM    9  C   UNK N   1      38.777   9.892  14.594  0.00  0.00    -0.005 C 
HETATM   10  C   UNK N   1      39.916   8.910  14.755  0.00  0.00     0.005 C 
ENDBRANCH   8   9
ENDBRANCH   7   8
ENDBRANCH   6   7
ENDBRANCH   5   6
ENDBRANCH   4   5
ENDBRANCH   2   3
ENDBRANCH   1   2
BRANCH   1  11
HETATM   11  C   UNK N   1      35.201  12.080  17.147  0.00  0.00     0.000 C 
BRANCH  11  12
HETATM   12  C   UNK N   1      35.627  13.446  16.668  0.00  0.00     0.000 C 
BRANCH  12  13
HETATM   13  C   UNK N   1      36.372  13.226  15.368  0.00  0.00     0.001 C 
BRANCH  13  14
HETATM   14  C   UNK N   1      35.507  13.566  14.178  0.00  0.00     0.010 C 
BRANCH  14  15
HETATM   15  C   UNK N   1      36.358  14.312  13.162  0.00  0.00     0.110 C 
BRANCH  15  16
HETATM   16  C   UNK N   1      35.543  14.880  12.045  0.00  0.00     0.139 C 
HETATM   17  O   UNK N   1      36.006  15.789  11.367  0.00  0.00    -0.650 OA
BRANCH  16  18
HETATM   18  O   UNK N   1      34.313  14.410  11.769  0.00  0.00    -0.776 OA
HETATM   19  H   UNK N   1      34.207  13.542  11.433  0.00  0.00     0.167 HD
ENDBRANCH  16  18
ENDBRANCH  15  16
ENDBRANCH  14  15
ENDBRANCH  13  14
ENDBRANCH  12  13
ENDBRANCH  11  12
ENDBRANCH   1  11
TORSDOF 14
ENDMDL
MODEL 8
REMARK VINA RESULT:      -4.1      1.553      3.769
REMARK  14 active torsions:
REMARK  status: ('A' for Active; 'I' for Inactive)
REMARK    1  A    between atoms: C_2  and  C_3 
REMARK    2  A    between atoms: C_3  and  C_4 
REMARK    3  A    between atoms: C_4  and  C_5 
REMARK    4  A    between atoms: C_5  and  C_6 
REMARK    5  A    between atoms: C_6  and  C_7 
REMARK    6  A    between atoms: C_8  and  C_9 
REMARK    7  A    between atoms: C_9  and  C_10 
REMARK    8  A    between atoms: C_10  and  C_11 
REMARK    9  A    between atoms: C_11  and  C_12 
REMARK   10  A    between atoms: C_12  and  C_13 
REMARK   11  A    between atoms: C_13  and  C_14 
REMARK   12  A    between atoms: C_14  and  C_15 
REMARK   13  A    between atoms: C_15  and  C_16 
REMARK   14  A    between atoms: C_16  and  O_17 
ROOT
HETATM    1  C   UNK N   1      29.910  27.628  -3.731  0.00  0.00     0.004 C 
ENDROOT
BRANCH   1   2
HETATM    2  C   UNK N   1      29.400  29.046  -3.727  0.00  0.00     0.027 C 
BRANCH   2   3
HETATM    3  C   UNK N   1      28.699  29.512  -2.486  0.00  0.00    -0.031 C 
HETATM    4  C   UNK N   1      27.374  29.730  -2.543  0.00  0.00    -0.031 C 
BRANCH   4   5
HETATM    5  C   UNK N   1      26.667  29.495  -3.843  0.00  0.00     0.027 C 
BRANCH   5   6
HETATM    6  C   UNK N   1      25.741  28.310  -3.918  0.00  0.00     0.004 C 
BRANCH   6   7
HETATM    7  C   UNK N   1      26.059  27.705  -5.270  0.00  0.00     0.000 C 
BRANCH   7   8
HETATM    8  C   UNK N   1      25.110  26.609  -5.689  0.00  0.00    -0.000 C 
BRANCH   8   9
HETATM    9  C   UNK N   1      25.669  25.309  -5.142  0.00  0.00    -0.005 C 
HETATM   10  C   UNK N   1      26.133  24.417  -6.273  0.00  0.00     0.005 C 
ENDBRANCH   8   9
ENDBRANCH   7   8
ENDBRANCH   6   7
ENDBRANCH   5   6
ENDBRANCH   4   5
ENDBRANCH   2   3
ENDBRANCH   1   2
BRANCH   1  11
HETATM   11  C   UNK N   1      29.722  27.195  -5.169  0.00  0.00     0.000 C 
BRANCH  11  12
HETATM   12  C   UNK N   1      29.461  25.718  -5.334  0.00  0.00     0.000 C 
BRANCH  12  13
HETATM   13  C   UNK N   1      29.805  25.076  -4.007  0.00  0.00     0.001 C 
BRANCH  13  14
HETATM   14  C   UNK N   1      28.921  23.883  -3.732  0.00  0.00     0.010 C 
BRANCH  14  15
HETATM   15  C   UNK N   1      29.801  22.647  -3.622  0.00  0.00     0.110 C 
BRANCH  15  16
HETATM   16  C   UNK N   1      30.622  22.642  -2.373  0.00  0.00     0.139 C 
HETATM   17  O   UNK N   1      31.780  22.245  -2.419  0.00  0.00    -0.650 OA
BRANCH  16  18
HETATM   18  O   UNK N   1      30.114  23.066  -1.202  0.00  0.00    -0.776 OA
HETATM   19  H   UNK N   1      29.412  23.688  -1.193  0.00  0.00     0.167 HD
ENDBRANCH  16  18
ENDBRANCH  15  16
ENDBRANCH  14  15
ENDBRANCH  13  14
ENDBRANCH  12  13
ENDBRANCH  11  12
ENDBRANCH   1  11
TORSDOF 14
ENDMDL
MODEL 9
REMARK VINA RESULT:      -4.1     10.453     13.104
REMARK  14 active torsions:
REMARK  status: ('A' for Active; 'I' for Inactive)
REMARK    1  A    between atoms: C_2  and  C_3 
REMARK    2  A    between atoms: C_3  and  C_4 
REMARK    3  A    between atoms: C_4  and  C_5 
REMARK    4  A    between atoms: C_5  and  C_6 
REMARK    5  A    between atoms: C_6  and  C_7 
REMARK    6  A    between atoms: C_8  and  C_9 
REMARK    7  A    between atoms: C_9  and  C_10 
REMARK    8  A    between atoms: C_10  and  C_11 
REMARK    9  A    between atoms: C_11  and  C_12 
REMARK   10  A    between atoms: C_12  and  C_13 
REMARK   11  A    between atoms: C_13  and  C_14 
REMARK   12  A    between atoms: C_14  and  C_15 
REMARK   13  A    between atoms: C_15  and  C_16 
REMARK   14  A    between atoms: C_16  and  O_17 
ROOT
HETATM    1  C   UNK N   1      30.272  16.967   3.643  0.00  0.00     0.004 C 
ENDROOT
BRANCH   1   2
HETATM    2  C   UNK N   1      29.321  16.892   4.809  0.00  0.00     0.027 C 
BRANCH   2   3
HETATM    3  C   UNK N   1      29.929  16.752   6.173  0.00  0.00    -0.031 C 
HETATM    4  C   UNK N   1      29.298  17.314   7.217  0.00  0.00    -0.031 C 
BRANCH   4   5
HETATM    5  C   UNK N   1      28.018  18.053   6.963  0.00  0.00     0.027 C 
BRANCH   5   6
HETATM    6  C   UNK N   1      27.983  19.513   7.327  0.00  0.00     0.004 C 
BRANCH   6   7
HETATM    7  C   UNK N   1      27.618  20.188   6.020  0.00  0.00     0.000 C 
BRANCH   7   8
HETATM    8  C   UNK N   1      26.300  19.731   5.444  0.00  0.00    -0.000 C 
BRANCH   8   9
HETATM    9  C   UNK N   1      26.088  20.505   4.158  0.00  0.00    -0.005 C 
HETATM   10  C   UNK N   1      25.506  19.606   3.090  0.00  0.00     0.005 C 
ENDBRANCH   8   9
ENDBRANCH   7   8
ENDBRANCH   6   7
ENDBRANCH   5   6
ENDBRANCH   4   5
ENDBRANCH   2   3
ENDBRANCH   1   2
BRANCH   1  11
HETATM   11  C   UNK N   1      31.517  17.578   4.248  0.00  0.00     0.000 C 
BRANCH  11  12
HETATM   12  C   UNK N   1      32.804  17.050   3.664  0.00  0.00     0.000 C 
BRANCH  12  13
HETATM   13  C   UNK N   1      33.645  16.590   4.837  0.00  0.00     0.001 C 
BRANCH  13  14
HETATM   14  C   UNK N   1      33.507  17.532   6.009  0.00  0.00     0.010 C 
BRANCH  14  15
HETATM   15  C   UNK N   1      34.452  17.072   7.109  0.00  0.00     0.110 C 
BRANCH  15  16
HETATM   16  C   UNK N   1      34.393  17.953   8.316  0.00  0.00     0.139 C 
HETATM   17  O   UNK N   1      35.002  19.015   8.313  0.00  0.00    -0.650 OA
BRANCH  16  18
HETATM   18  O   UNK N   1      33.683  17.601   9.403  0.00  0.00    -0.776 OA
HETATM   19  H   UNK N   1      32.776  17.830   9.465  0.00  0.00     0.167 HD
ENDBRANCH  16  18
ENDBRANCH  15  16
ENDBRANCH  14  15
ENDBRANCH  13  14
ENDBRANCH  12  13
ENDBRANCH  11  12
ENDBRANCH   1  11
TORSDOF 14
ENDMDL
