MODEL 1
REMARK VINA RESULT:      -5.1      0.000      0.000
REMARK  3 active torsions:
REMARK  status: ('A' for Active; 'I' for Inactive)
REMARK    1  A    between atoms: N_1  and  O_2 
REMARK    2  A    between atoms: O_2  and  C_3 
REMARK       I    between atoms: C_3  and  N_5 
REMARK    3  A    between atoms: N_5  and  C_6 
ROOT
HETATM    1  C   UNK N   1      34.759  17.991   8.748  0.00  0.00     0.386 C 
HETATM    2  O   UNK N   1      34.819  19.103   8.239  0.00  0.00    -0.236 OA
HETATM    3  N   UNK N   1      34.006  17.005   8.185  0.00  0.00    -0.301 N 
HETATM    4  H   UNK N   1      34.028  16.120   8.617  0.00  0.00     0.171 HD
ENDROOT
BRANCH   3   5
HETATM    5  C   UNK N   1      33.191  17.148   7.025  0.00  0.00     0.036 A 
HETATM    6  C   UNK N   1      31.798  17.121   7.166  0.00  0.00     0.029 A 
HETATM    7  C   UNK N   1      30.972  17.245   6.044  0.00  0.00     0.002 A 
HETATM    8  C   UNK N   1      31.533  17.403   4.774  0.00  0.00     0.000 A 
HETATM    9  C   UNK N   1      32.921  17.443   4.625  0.00  0.00     0.002 A 
HETATM   10  C   UNK N   1      33.745  17.315   5.744  0.00  0.00     0.029 A 
ENDBRANCH   3   5
BRANCH   1  11
HETATM   11  O   UNK N   1      35.460  17.726   9.873  0.00  0.00    -0.188 OA
BRANCH  11  12
HETATM   12  N   UNK N   1      34.978  16.908  10.807  0.00  0.00    -0.301 N 
HETATM   13  H   UNK N   1      34.686  17.281  11.711  0.00  0.00     0.184 HD
HETATM   14  H   UNK N   1      34.899  15.909  10.619  0.00  0.00     0.184 HD
ENDBRANCH  11  12
ENDBRANCH   1  11
TORSDOF 3
ENDMDL
MODEL 2
REMARK VINA RESULT:      -5.0      1.637      2.080
REMARK  3 active torsions:
REMARK  status: ('A' for Active; 'I' for Inactive)
REMARK    1  A    between atoms: N_1  and  O_2 
REMARK    2  A    between atoms: O_2  and  C_3 
REMARK       I    between atoms: C_3  and  N_5 
REMARK    3  A    between atoms: N_5  and  C_6 
ROOT
HETATM    1  C   UNK N   1      34.155  17.793   8.732  0.00  0.00     0.386 C 
HETATM    2  O   UNK N   1      34.268  18.392   7.669  0.00  0.00    -0.236 OA
HETATM    3  N   UNK N   1      32.968  17.235   9.097  0.00  0.00    -0.301 N 
HETATM    4  H   UNK N   1      32.948  16.733   9.943  0.00  0.00     0.171 HD
ENDROOT
BRANCH   3   5
HETATM    5  C   UNK N   1      31.754  17.317   8.356  0.00  0.00     0.036 A 
HETATM    6  C   UNK N   1      30.735  18.162   8.812  0.00  0.00     0.029 A 
HETATM    7  C   UNK N   1      29.527  18.254   8.113  0.00  0.00     0.002 A 
HETATM    8  C   UNK N   1      29.331  17.505   6.949  0.00  0.00     0.000 A 
HETATM    9  C   UNK N   1      30.345  16.668   6.480  0.00  0.00     0.002 A 
HETATM   10  C   UNK N   1      31.549  16.574   7.180  0.00  0.00     0.029 A 
ENDBRANCH   3   5
BRANCH   1  11
HETATM   11  O   UNK N   1      35.224  17.668   9.550  0.00  0.00    -0.188 OA
BRANCH  11  12
HETATM   12  N   UNK N   1      35.121  17.047  10.724  0.00  0.00    -0.301 N 
HETATM   13  H   UNK N   1      34.282  16.511  10.947  0.00  0.00     0.184 HD
HETATM   14  H   UNK N   1      35.882  17.106  11.400  0.00  0.00     0.184 HD
ENDBRANCH  11  12
ENDBRANCH   1  11
TORSDOF 3
ENDMDL
MODEL 3
REMARK VINA RESULT:      -4.9      7.788      9.876
REMARK  3 active torsions:
REMARK  status: ('A' for Active; 'I' for Inactive)
REMARK    1  A    between atoms: N_1  and  O_2 
REMARK    2  A    between atoms: O_2  and  C_3 
REMARK       I    between atoms: C_3  and  N_5 
REMARK    3  A    between atoms: N_5  and  C_6 
ROOT
HETATM    1  C   UNK N   1      36.257  13.567  12.980  0.00  0.00     0.386 C 
HETATM    2  O   UNK N   1      35.134  14.055  13.018  0.00  0.00    -0.236 OA
HETATM    3  N   UNK N   1      37.013  13.465  14.107  0.00  0.00    -0.301 N 
HETATM    4  H   UNK N   1      37.892  13.028  14.022  0.00  0.00     0.171 HD
ENDROOT
BRANCH   3   5
HETATM    5  C   UNK N   1      36.640  13.937  15.399  0.00  0.00     0.036 A 
HETATM    6  C   UNK N   1      37.208  15.122  15.880  0.00  0.00     0.029 A 
HETATM    7  C   UNK N   1      36.871  15.603  17.150  0.00  0.00     0.002 A 
HETATM    8  C   UNK N   1      35.958  14.905  17.945  0.00  0.00     0.000 A 
HETATM    9  C   UNK N   1      35.377  13.728  17.469  0.00  0.00     0.002 A 
HETATM   10  C   UNK N   1      35.717  13.246  16.204  0.00  0.00     0.029 A 
ENDBRANCH   3   5
BRANCH   1  11
HETATM   11  O   UNK N   1      36.750  13.107  11.809  0.00  0.00    -0.188 OA
BRANCH  11  12
HETATM   12  N   UNK N   1      38.063  13.040  11.596  0.00  0.00    -0.301 N 
HETATM   13  H   UNK N   1      38.635  12.384  12.129  0.00  0.00     0.184 HD
HETATM   14  H   UNK N   1      38.499  13.644  10.899  0.00  0.00     0.184 HD
ENDBRANCH  11  12
ENDBRANCH   1  11
TORSDOF 3
ENDMDL
MODEL 4
REMARK VINA RESULT:      -4.8      9.271     11.345
REMARK  3 active torsions:
REMARK  status: ('A' for Active; 'I' for Inactive)
REMARK    1  A    between atoms: N_1  and  O_2 
REMARK    2  A    between atoms: O_2  and  C_3 
REMARK       I    between atoms: C_3  and  N_5 
REMARK    3  A    between atoms: N_5  and  C_6 
ROOT
HETATM    1  C   UNK N   1      35.987  13.596  14.825  0.00  0.00     0.386 C 
HETATM    2  O   UNK N   1      37.134  13.687  15.246  0.00  0.00    -0.236 OA
HETATM    3  N   UNK N   1      34.994  13.093  15.609  0.00  0.00    -0.301 N 
HETATM    4  H   UNK N   1      34.085  13.081  15.231  0.00  0.00     0.171 HD
ENDROOT
BRANCH   3   5
HETATM    5  C   UNK N   1      35.160  12.584  16.929  0.00  0.00     0.036 A 
HETATM    6  C   UNK N   1      35.410  11.217  17.104  0.00  0.00     0.029 A 
HETATM    7  C   UNK N   1      35.565  10.686  18.389  0.00  0.00     0.002 A 
HETATM    8  C   UNK N   1      35.477  11.518  19.508  0.00  0.00     0.000 A 
HETATM    9  C   UNK N   1      35.240  12.884  19.343  0.00  0.00     0.002 A 
HETATM   10  C   UNK N   1      35.081  13.414  18.061  0.00  0.00     0.029 A 
ENDBRANCH   3   5
BRANCH   1  11
HETATM   11  O   UNK N   1      35.694  14.014  13.574  0.00  0.00    -0.188 OA
BRANCH  11  12
HETATM   12  N   UNK N   1      36.407  14.973  12.986  0.00  0.00    -0.301 N 
HETATM   13  H   UNK N   1      37.358  15.169  13.299  0.00  0.00     0.184 HD
HETATM   14  H   UNK N   1      36.002  15.513  12.221  0.00  0.00     0.184 HD
ENDBRANCH  11  12
ENDBRANCH   1  11
TORSDOF 3
ENDMDL
MODEL 5
REMARK VINA RESULT:      -4.7      8.251     10.318
REMARK  3 active torsions:
REMARK  status: ('A' for Active; 'I' for Inactive)
REMARK    1  A    between atoms: N_1  and  O_2 
REMARK    2  A    between atoms: O_2  and  C_3 
REMARK       I    between atoms: C_3  and  N_5 
REMARK    3  A    between atoms: N_5  and  C_6 
ROOT
HETATM    1  C   UNK N   1      36.013  13.578  13.279  0.00  0.00     0.386 C 
HETATM    2  O   UNK N   1      34.804  13.382  13.277  0.00  0.00    -0.236 OA
HETATM    3  N   UNK N   1      36.770  13.267  14.367  0.00  0.00    -0.301 N 
HETATM    4  H   UNK N   1      37.741  13.410  14.297  0.00  0.00     0.171 HD
ENDROOT
BRANCH   3   5
HETATM    5  C   UNK N   1      36.273  12.752  15.600  0.00  0.00     0.036 A 
HETATM    6  C   UNK N   1      36.417  11.387  15.874  0.00  0.00     0.029 A 
HETATM    7  C   UNK N   1      35.928  10.851  17.070  0.00  0.00     0.002 A 
HETATM    8  C   UNK N   1      35.296  11.678  18.003  0.00  0.00     0.000 A 
HETATM    9  C   UNK N   1      35.158  13.043  17.744  0.00  0.00     0.002 A 
HETATM   10  C   UNK N   1      35.643  13.577  16.549  0.00  0.00     0.029 A 
ENDBRANCH   3   5
BRANCH   1  11
HETATM   11  O   UNK N   1      36.613  14.093  12.183  0.00  0.00    -0.188 OA
BRANCH  11  12
HETATM   12  N   UNK N   1      37.622  13.459  11.589  0.00  0.00    -0.301 N 
HETATM   13  H   UNK N   1      38.333  13.990  11.085  0.00  0.00     0.184 HD
HETATM   14  H   UNK N   1      37.685  12.443  11.638  0.00  0.00     0.184 HD
ENDBRANCH  11  12
ENDBRANCH   1  11
TORSDOF 3
ENDMDL
MODEL 6
REMARK VINA RESULT:      -4.5     11.971     12.742
REMARK  3 active torsions:
REMARK  status: ('A' for Active; 'I' for Inactive)
REMARK    1  A    between atoms: N_1  and  O_2 
REMARK    2  A    between atoms: O_2  and  C_3 
REMARK       I    between atoms: C_3  and  N_5 
REMARK    3  A    between atoms: N_5  and  C_6 
ROOT
HETATM    1  C   UNK N   1      45.015  24.139   2.326  0.00  0.00     0.386 C 
HETATM    2  O   UNK N   1      45.155  23.533   1.271  0.00  0.00    -0.236 OA
HETATM    3  N   UNK N   1      44.047  23.782   3.214  0.00  0.00    -0.301 N 
HETATM    4  H   UNK N   1      44.007  24.281   4.062  0.00  0.00     0.171 HD
ENDROOT
BRANCH   3   5
HETATM    5  C   UNK N   1      43.087  22.747   3.018  0.00  0.00     0.036 A 
HETATM    6  C   UNK N   1      41.979  22.994   2.198  0.00  0.00     0.029 A 
HETATM    7  C   UNK N   1      41.013  22.002   1.998  0.00  0.00     0.002 A 
HETATM    8  C   UNK N   1      41.152  20.754   2.611  0.00  0.00     0.000 A 
HETATM    9  C   UNK N   1      42.259  20.495   3.422  0.00  0.00     0.002 A 
HETATM   10  C   UNK N   1      43.220  21.486   3.624  0.00  0.00     0.029 A 
ENDBRANCH   3   5
BRANCH   1  11
HETATM   11  O   UNK N   1      45.840  25.167   2.626  0.00  0.00    -0.188 OA
BRANCH  11  12
HETATM   12  N   UNK N   1      45.515  26.421   2.317  0.00  0.00    -0.301 N 
HETATM   13  H   UNK N   1      45.940  26.874   1.506  0.00  0.00     0.184 HD
HETATM   14  H   UNK N   1      44.843  26.930   2.889  0.00  0.00     0.184 HD
ENDBRANCH  11  12
ENDBRANCH   1  11
TORSDOF 3
ENDMDL
MODEL 7
REMARK VINA RESULT:      -4.4      5.026      7.011
REMARK  3 active torsions:
REMARK  status: ('A' for Active; 'I' for Inactive)
REMARK    1  A    between atoms: N_1  and  O_2 
REMARK    2  A    between atoms: O_2  and  C_3 
REMARK       I    between atoms: C_3  and  N_5 
REMARK    3  A    between atoms: N_5  and  C_6 
ROOT
HETATM    1  C   UNK N   1      35.634  16.361  10.851  0.00  0.00     0.386 C 
HETATM    2  O   UNK N   1      36.824  16.147  10.657  0.00  0.00    -0.236 OA
HETATM    3  N   UNK N   1      34.891  15.525  11.628  0.00  0.00    -0.301 N 
HETATM    4  H   UNK N   1      33.950  15.769  11.780  0.00  0.00     0.171 HD
ENDROOT
BRANCH   3   5
HETATM    5  C   UNK N   1      35.363  14.327  12.239  0.00  0.00     0.036 A 
HETATM    6  C   UNK N   1      36.080  14.412  13.439  0.00  0.00     0.029 A 
HETATM    7  C   UNK N   1      36.567  13.255  14.055  0.00  0.00     0.002 A 
HETATM    8  C   UNK N   1      36.335  12.003  13.478  0.00  0.00     0.000 A 
HETATM    9  C   UNK N   1      35.611  11.907  12.288  0.00  0.00     0.002 A 
HETATM   10  C   UNK N   1      35.129  13.062  11.672  0.00  0.00     0.029 A 
ENDBRANCH   3   5
BRANCH   1  11
HETATM   11  O   UNK N   1      35.047  17.448  10.303  0.00  0.00    -0.188 OA
BRANCH  11  12
HETATM   12  N   UNK N   1      34.030  17.326   9.453  0.00  0.00    -0.301 N 
HETATM   13  H   UNK N   1      34.201  17.337   8.447  0.00  0.00     0.184 HD
HETATM   14  H   UNK N   1      33.079  17.219   9.806  0.00  0.00     0.184 HD
ENDBRANCH  11  12
ENDBRANCH   1  11
TORSDOF 3
ENDMDL
MODEL 8
REMARK VINA RESULT:      -4.3      3.681      4.525
REMARK  3 active torsions:
REMARK  status: ('A' for Active; 'I' for Inactive)
REMARK    1  A    between atoms: N_1  and  O_2 
REMARK    2  A    between atoms: O_2  and  C_3 
REMARK       I    between atoms: C_3  and  N_5 
REMARK    3  A    between atoms: N_5  and  C_6 
ROOT
HETATM    1  C   UNK N   1      29.691  17.587   8.692  0.00  0.00     0.386 C 
HETATM    2  O   UNK N   1      29.541  17.560   7.477  0.00  0.00    -0.236 OA
HETATM    3  N   UNK N   1      30.916  17.385   9.249  0.00  0.00    -0.301 N 
HETATM    4  H   UNK N   1      30.983  17.457  10.229  0.00  0.00     0.171 HD
ENDROOT
BRANCH   3   5
HETATM    5  C   UNK N   1      32.109  17.077   8.533  0.00  0.00     0.036 A 
HETATM    6  C   UNK N   1      32.416  15.737   8.268  0.00  0.00     0.029 A 
HETATM    7  C   UNK N   1      33.586  15.403   7.578  0.00  0.00     0.002 A 
HETATM    8  C   UNK N   1      34.456  16.408   7.145  0.00  0.00     0.000 A 
HETATM    9  C   UNK N   1      34.153  17.747   7.395  0.00  0.00     0.002 A 
HETATM   10  C   UNK N   1      32.987  18.080   8.086  0.00  0.00     0.029 A 
ENDBRANCH   3   5
BRANCH   1  11
HETATM   11  O   UNK N   1      28.633  17.838   9.495  0.00  0.00    -0.188 OA
BRANCH  11  12
HETATM   12  N   UNK N   1      27.584  18.531   9.054  0.00  0.00    -0.301 N 
HETATM   13  H   UNK N   1      27.354  18.532   8.060  0.00  0.00     0.184 HD
HETATM   14  H   UNK N   1      27.010  19.060   9.710  0.00  0.00     0.184 HD
ENDBRANCH  11  12
ENDBRANCH   1  11
TORSDOF 3
ENDMDL
MODEL 9
REMARK VINA RESULT:      -4.3      9.855     11.517
REMARK  3 active torsions:
REMARK  status: ('A' for Active; 'I' for Inactive)
REMARK    1  A    between atoms: N_1  and  O_2 
REMARK    2  A    between atoms: O_2  and  C_3 
REMARK       I    between atoms: C_3  and  N_5 
REMARK    3  A    between atoms: N_5  and  C_6 
ROOT
HETATM    1  C   UNK N   1      34.399  10.780  14.362  0.00  0.00     0.386 C 
HETATM    2  O   UNK N   1      33.272  10.738  14.837  0.00  0.00    -0.236 OA
HETATM    3  N   UNK N   1      35.448  11.252  15.091  0.00  0.00    -0.301 N 
HETATM    4  H   UNK N   1      36.338  11.225  14.670  0.00  0.00     0.171 HD
ENDROOT
BRANCH   3   5
HETATM    5  C   UNK N   1      35.365  11.781  16.411  0.00  0.00     0.036 A 
HETATM    6  C   UNK N   1      35.171  13.157  16.581  0.00  0.00     0.029 A 
HETATM    7  C   UNK N   1      35.099  13.707  17.866  0.00  0.00     0.002 A 
HETATM    8  C   UNK N   1      35.215  12.884  18.989  0.00  0.00     0.000 A 
HETATM    9  C   UNK N   1      35.397  11.509  18.829  0.00  0.00     0.002 A 
HETATM   10  C   UNK N   1      35.473  10.961  17.548  0.00  0.00     0.029 A 
ENDBRANCH   3   5
BRANCH   1  11
HETATM   11  O   UNK N   1      34.615  10.338  13.103  0.00  0.00    -0.188 OA
BRANCH  11  12
HETATM   12  N   UNK N   1      33.777  10.644  12.114  0.00  0.00    -0.301 N 
HETATM   13  H   UNK N   1      33.096  11.395  12.235  0.00  0.00     0.184 HD
HETATM   14  H   UNK N   1      33.815  10.128  11.235  0.00  0.00     0.184 HD
ENDBRANCH  11  12
ENDBRANCH   1  11
TORSDOF 3
ENDMDL
