MODEL 1
REMARK VINA RESULT:      -6.1      0.000      0.000
REMARK  9 active torsions:
REMARK  status: ('A' for Active; 'I' for Inactive)
REMARK    1  A    between atoms: C_6  and  C_4 
REMARK    2  A    between atoms: O_19  and  C_4 
REMARK    3  A    between atoms: C_5  and  O_13 
REMARK    4  A    between atoms: C_7  and  O_14 
REMARK    5  A    between atoms: C_8  and  N_12 
REMARK    6  A    between atoms: O_15  and  C_9 
REMARK    7  A    between atoms: P_21  and  O_16 
REMARK    8  A    between atoms: P_21  and  O_17 
REMARK    9  A    between atoms: P_21  and  O_19 
ROOT
HETATM    1  C   UNK N   1      31.651  15.119   6.510  0.00  0.00     0.088 C 
HETATM    2  C   UNK N   1      33.001  14.911   5.909  0.00  0.00     0.153 C 
HETATM    3  C   UNK N   1      33.802  16.008   6.609  0.00  0.00     0.177 C 
HETATM    4  C   UNK N   1      31.628  16.637   6.450  0.00  0.00     0.233 C 
HETATM    5  O   UNK N   1      32.914  17.090   6.832  0.00  0.00    -0.356 OA
ENDROOT
BRANCH   4   6
HETATM    6  N   UNK N   1      30.533  17.203   7.235  0.00  0.00    -0.296 N 
HETATM    7  C   UNK N   1      29.284  17.380   6.579  0.00  0.00     0.097 A 
HETATM    8  C   UNK N   1      28.304  18.079   7.150  0.00  0.00     0.043 A 
HETATM    9  C   UNK N   1      28.473  18.697   8.509  0.00  0.00     0.246 A 
HETATM   10  N   UNK N   1      29.745  18.376   9.138  0.00  0.00    -0.326 N 
HETATM   11  C   UNK N   1      30.690  17.696   8.576  0.00  0.00     0.223 A 
ATOM     12  HN  UNK N   1      29.902  18.710  10.089  1.00  0.00     0.166 HD
BRANCH   9  13
HETATM   13  O   UNK N   1      27.434  18.264   9.331  0.00  0.00    -0.373 OA
HETATM   14  H   UNK N   1      26.788  17.555   9.477  0.00  0.00     0.212 HD
ENDBRANCH   9  13
BRANCH  11  15
HETATM   15  O   UNK N   1      31.823  17.468   9.267  0.00  0.00    -0.332 OA
HETATM   16  H   UNK N   1      32.375  18.175   9.538  0.00  0.00     0.220 HD
ENDBRANCH  11  15
ENDBRANCH   4   6
BRANCH   2  17
HETATM   17  O   UNK N   1      33.496  13.620   6.106  0.00  0.00    -0.393 OA
HETATM   18  H   UNK N   1      34.329  13.204   6.374  0.00  0.00     0.210 HD
ENDBRANCH   2  17
BRANCH   3  19
HETATM   19  C   UNK N   1      34.385  15.578   7.962  0.00  0.00     0.215 C 
BRANCH  19  20
HETATM   20  O   UNK N   1      34.563  16.679   8.817  0.00  0.00    -0.294 OA
BRANCH  20  21
HETATM   21  P   UNK N   1      35.125  16.026  10.333  0.00  0.00     0.390 P 
HETATM   22  O   UNK N   1      35.896  15.147   9.313  0.00  0.00    -0.632 OA
BRANCH  21  23
HETATM   23  O   UNK N   1      36.774  16.224  10.837  0.00  0.00    -0.307 OA
HETATM   24  H   UNK N   1      37.004  16.891  11.504  0.00  0.00     0.222 HD
ENDBRANCH  21  23
BRANCH  21  25
HETATM   25  O   UNK N   1      35.636  17.679  10.169  0.00  0.00    -0.307 OA
HETATM   26  H   UNK N   1      36.455  17.905   9.700  0.00  0.00     0.222 HD
ENDBRANCH  21  25
ENDBRANCH  20  21
ENDBRANCH  19  20
ENDBRANCH   3  19
TORSDOF 9
ENDMDL
MODEL 2
REMARK VINA RESULT:      -6.0     10.725     12.853
REMARK  9 active torsions:
REMARK  status: ('A' for Active; 'I' for Inactive)
REMARK    1  A    between atoms: C_6  and  C_4 
REMARK    2  A    between atoms: O_19  and  C_4 
REMARK    3  A    between atoms: C_5  and  O_13 
REMARK    4  A    between atoms: C_7  and  O_14 
REMARK    5  A    between atoms: C_8  and  N_12 
REMARK    6  A    between atoms: O_15  and  C_9 
REMARK    7  A    between atoms: P_21  and  O_16 
REMARK    8  A    between atoms: P_21  and  O_17 
REMARK    9  A    between atoms: P_21  and  O_19 
ROOT
HETATM    1  C   UNK N   1      22.779  14.328   7.654  0.00  0.00     0.088 C 
HETATM    2  C   UNK N   1      21.899  14.672   6.499  0.00  0.00     0.153 C 
HETATM    3  C   UNK N   1      20.528  14.685   7.175  0.00  0.00     0.177 C 
HETATM    4  C   UNK N   1      21.903  13.252   8.273  0.00  0.00     0.233 C 
HETATM    5  O   UNK N   1      20.567  13.715   8.207  0.00  0.00    -0.356 OA
ENDROOT
BRANCH   4   6
HETATM    6  N   UNK N   1      22.347  12.883   9.615  0.00  0.00    -0.296 N 
HETATM    7  C   UNK N   1      23.747  12.755   9.827  0.00  0.00     0.097 A 
HETATM    8  C   UNK N   1      24.223  12.220  10.950  0.00  0.00     0.043 A 
HETATM    9  C   UNK N   1      23.305  11.742  12.040  0.00  0.00     0.246 A 
HETATM   10  N   UNK N   1      21.900  12.008  11.772  0.00  0.00    -0.326 N 
HETATM   11  C   UNK N   1      21.447  12.528  10.678  0.00  0.00     0.223 A 
ATOM     12  HN  UNK N   1      21.224  11.767  12.498  1.00  0.00     0.166 HD
BRANCH   9  13
HETATM   13  O   UNK N   1      23.668  12.361  13.235  0.00  0.00    -0.373 OA
HETATM   14  H   UNK N   1      23.681  12.265  14.200  0.00  0.00     0.212 HD
ENDBRANCH   9  13
BRANCH  11  15
HETATM   15  O   UNK N   1      20.120  12.721  10.554  0.00  0.00    -0.332 OA
HETATM   16  H   UNK N   1      19.510  12.246  11.082  0.00  0.00     0.220 HD
ENDBRANCH  11  15
ENDBRANCH   4   6
BRANCH   2  17
HETATM   17  O   UNK N   1      22.250  15.873   5.881  0.00  0.00    -0.393 OA
HETATM   18  H   UNK N   1      22.456  16.783   6.145  0.00  0.00     0.210 HD
ENDBRANCH   2  17
BRANCH   3  19
HETATM   19  C   UNK N   1      20.164  16.039   7.802  0.00  0.00     0.215 C 
BRANCH  19  20
HETATM   20  O   UNK N   1      18.779  16.272   7.747  0.00  0.00    -0.294 OA
BRANCH  20  21
HETATM   21  P   UNK N   1      18.323  16.842   9.331  0.00  0.00     0.390 P 
HETATM   22  O   UNK N   1      19.300  17.957   8.870  0.00  0.00    -0.632 OA
BRANCH  21  23
HETATM   23  O   UNK N   1      17.371  18.281   9.525  0.00  0.00    -0.307 OA
HETATM   24  H   UNK N   1      17.783  19.098   9.849  0.00  0.00     0.222 HD
ENDBRANCH  21  23
BRANCH  21  25
HETATM   25  O   UNK N   1      16.938  16.823   8.282  0.00  0.00    -0.307 OA
HETATM   26  H   UNK N   1      16.038  16.853   8.641  0.00  0.00     0.222 HD
ENDBRANCH  21  25
ENDBRANCH  20  21
ENDBRANCH  19  20
ENDBRANCH   3  19
TORSDOF 9
ENDMDL
MODEL 3
REMARK VINA RESULT:      -6.0     10.677     12.697
REMARK  9 active torsions:
REMARK  status: ('A' for Active; 'I' for Inactive)
REMARK    1  A    between atoms: C_6  and  C_4 
REMARK    2  A    between atoms: O_19  and  C_4 
REMARK    3  A    between atoms: C_5  and  O_13 
REMARK    4  A    between atoms: C_7  and  O_14 
REMARK    5  A    between atoms: C_8  and  N_12 
REMARK    6  A    between atoms: O_15  and  C_9 
REMARK    7  A    between atoms: P_21  and  O_16 
REMARK    8  A    between atoms: P_21  and  O_17 
REMARK    9  A    between atoms: P_21  and  O_19 
ROOT
HETATM    1  C   UNK N   1      22.530  16.891   4.578  0.00  0.00     0.088 C 
HETATM    2  C   UNK N   1      22.580  16.427   5.996  0.00  0.00     0.153 C 
HETATM    3  C   UNK N   1      21.225  16.915   6.508  0.00  0.00     0.177 C 
HETATM    4  C   UNK N   1      21.935  18.266   4.829  0.00  0.00     0.233 C 
HETATM    5  O   UNK N   1      20.926  18.112   5.810  0.00  0.00    -0.356 OA
ENDROOT
BRANCH   4   6
HETATM    6  N   UNK N   1      21.482  18.904   3.595  0.00  0.00    -0.296 N 
HETATM    7  C   UNK N   1      22.299  19.934   3.055  0.00  0.00     0.097 A 
HETATM    8  C   UNK N   1      21.860  20.707   2.062  0.00  0.00     0.043 A 
HETATM    9  C   UNK N   1      20.494  20.515   1.466  0.00  0.00     0.246 A 
HETATM   10  N   UNK N   1      19.776  19.375   2.017  0.00  0.00    -0.326 N 
HETATM   11  C   UNK N   1      20.211  18.631   2.981  0.00  0.00     0.223 A 
ATOM     12  HN  UNK N   1      18.867  19.148   1.615  1.00  0.00     0.166 HD
BRANCH   9  13
HETATM   13  O   UNK N   1      20.624  20.351   0.089  0.00  0.00    -0.373 OA
HETATM   14  H   UNK N   1      21.204  20.018  -0.614  0.00  0.00     0.212 HD
ENDBRANCH   9  13
BRANCH  11  15
HETATM   15  O   UNK N   1      19.447  17.605   3.402  0.00  0.00    -0.332 OA
HETATM   16  H   UNK N   1      19.697  17.085   4.139  0.00  0.00     0.220 HD
ENDBRANCH  11  15
ENDBRANCH   4   6
BRANCH   2  17
HETATM   17  O   UNK N   1      22.781  15.051   6.117  0.00  0.00    -0.393 OA
HETATM   18  H   UNK N   1      22.657  14.363   6.788  0.00  0.00     0.210 HD
ENDBRANCH   2  17
BRANCH   3  19
HETATM   19  C   UNK N   1      20.081  15.920   6.268  0.00  0.00     0.215 C 
BRANCH  19  20
HETATM   20  O   UNK N   1      19.174  15.913   7.341  0.00  0.00    -0.294 OA
BRANCH  20  21
HETATM   21  P   UNK N   1      20.097  15.452   8.748  0.00  0.00     0.390 P 
HETATM   22  O   UNK N   1      18.682  15.647   9.356  0.00  0.00    -0.632 OA
BRANCH  21  23
HETATM   23  O   UNK N   1      19.817  13.936   9.545  0.00  0.00    -0.307 OA
HETATM   24  H   UNK N   1      20.181  13.776  10.430  0.00  0.00     0.222 HD
ENDBRANCH  21  23
BRANCH  21  25
HETATM   25  O   UNK N   1      20.056  14.143   7.606  0.00  0.00    -0.307 OA
HETATM   26  H   UNK N   1      20.503  14.213   6.748  0.00  0.00     0.222 HD
ENDBRANCH  21  25
ENDBRANCH  20  21
ENDBRANCH  19  20
ENDBRANCH   3  19
TORSDOF 9
ENDMDL
MODEL 4
REMARK VINA RESULT:      -5.9      2.603      5.709
REMARK  9 active torsions:
REMARK  status: ('A' for Active; 'I' for Inactive)
REMARK    1  A    between atoms: C_6  and  C_4 
REMARK    2  A    between atoms: O_19  and  C_4 
REMARK    3  A    between atoms: C_5  and  O_13 
REMARK    4  A    between atoms: C_7  and  O_14 
REMARK    5  A    between atoms: C_8  and  N_12 
REMARK    6  A    between atoms: O_15  and  C_9 
REMARK    7  A    between atoms: P_21  and  O_16 
REMARK    8  A    between atoms: P_21  and  O_17 
REMARK    9  A    between atoms: P_21  and  O_19 
ROOT
HETATM    1  C   UNK N   1      33.285  17.084   5.801  0.00  0.00     0.088 C 
HETATM    2  C   UNK N   1      32.128  16.821   4.896  0.00  0.00     0.153 C 
HETATM    3  C   UNK N   1      31.086  16.323   5.896  0.00  0.00     0.177 C 
HETATM    4  C   UNK N   1      33.167  15.836   6.660  0.00  0.00     0.233 C 
HETATM    5  O   UNK N   1      31.789  15.638   6.919  0.00  0.00    -0.356 OA
ENDROOT
BRANCH   4   6
HETATM    6  N   UNK N   1      34.000  15.909   7.857  0.00  0.00    -0.296 N 
HETATM    7  C   UNK N   1      35.164  15.095   7.893  0.00  0.00     0.097 A 
HETATM    8  C   UNK N   1      35.858  14.940   9.020  0.00  0.00     0.043 A 
HETATM    9  C   UNK N   1      35.447  15.626  10.292  0.00  0.00     0.246 A 
HETATM   10  N   UNK N   1      34.305  16.514  10.129  0.00  0.00    -0.326 N 
HETATM   11  C   UNK N   1      33.638  16.657   9.030  0.00  0.00     0.223 A 
ATOM     12  HN  UNK N   1      34.010  17.061  10.938  1.00  0.00     0.166 HD
BRANCH   9  13
HETATM   13  O   UNK N   1      36.529  16.358  10.777  0.00  0.00    -0.373 OA
HETATM   14  H   UNK N   1      37.488  16.485  10.710  0.00  0.00     0.212 HD
ENDBRANCH   9  13
BRANCH  11  15
HETATM   15  O   UNK N   1      32.597  17.511   9.011  0.00  0.00    -0.332 OA
HETATM   16  H   UNK N   1      32.623  18.295   8.499  0.00  0.00     0.220 HD
ENDBRANCH  11  15
ENDBRANCH   4   6
BRANCH   2  17
HETATM   17  O   UNK N   1      31.736  17.946   4.166  0.00  0.00    -0.393 OA
HETATM   18  H   UNK N   1      31.087  18.662   4.243  0.00  0.00     0.210 HD
ENDBRANCH   2  17
BRANCH   3  19
HETATM   19  C   UNK N   1      30.268  17.448   6.547  0.00  0.00     0.215 C 
BRANCH  19  20
HETATM   20  O   UNK N   1      30.038  17.192   7.909  0.00  0.00    -0.294 OA
BRANCH  20  21
HETATM   21  P   UNK N   1      28.846  18.356   8.423  0.00  0.00     0.390 P 
HETATM   22  O   UNK N   1      27.967  17.330   7.660  0.00  0.00    -0.632 OA
BRANCH  21  23
HETATM   23  O   UNK N   1      27.640  17.943   9.602  0.00  0.00    -0.307 OA
HETATM   24  H   UNK N   1      26.723  17.785   9.327  0.00  0.00     0.222 HD
ENDBRANCH  21  23
BRANCH  21  25
HETATM   25  O   UNK N   1      29.561  17.584   9.806  0.00  0.00    -0.307 OA
HETATM   26  H   UNK N   1      29.798  18.094  10.596  0.00  0.00     0.222 HD
ENDBRANCH  21  25
ENDBRANCH  20  21
ENDBRANCH  19  20
ENDBRANCH   3  19
TORSDOF 9
ENDMDL
MODEL 5
REMARK VINA RESULT:      -5.8     11.740     13.562
REMARK  9 active torsions:
REMARK  status: ('A' for Active; 'I' for Inactive)
REMARK    1  A    between atoms: C_6  and  C_4 
REMARK    2  A    between atoms: O_19  and  C_4 
REMARK    3  A    between atoms: C_5  and  O_13 
REMARK    4  A    between atoms: C_7  and  O_14 
REMARK    5  A    between atoms: C_8  and  N_12 
REMARK    6  A    between atoms: O_15  and  C_9 
REMARK    7  A    between atoms: P_21  and  O_16 
REMARK    8  A    between atoms: P_21  and  O_17 
REMARK    9  A    between atoms: P_21  and  O_19 
ROOT
HETATM    1  C   UNK N   1      20.511  16.784   5.779  0.00  0.00     0.088 C 
HETATM    2  C   UNK N   1      21.555  17.791   6.131  0.00  0.00     0.153 C 
HETATM    3  C   UNK N   1      22.119  18.118   4.748  0.00  0.00     0.177 C 
HETATM    4  C   UNK N   1      21.317  15.995   4.760  0.00  0.00     0.233 C 
HETATM    5  O   UNK N   1      22.028  16.934   3.975  0.00  0.00    -0.356 OA
ENDROOT
BRANCH   4   6
HETATM    6  N   UNK N   1      20.482  15.075   3.991  0.00  0.00    -0.296 N 
HETATM    7  C   UNK N   1      20.498  13.706   4.372  0.00  0.00     0.097 A 
HETATM    8  C   UNK N   1      19.940  12.774   3.601  0.00  0.00     0.043 A 
HETATM    9  C   UNK N   1      19.265  13.131   2.307  0.00  0.00     0.246 A 
HETATM   10  N   UNK N   1      19.214  14.563   2.055  0.00  0.00    -0.326 N 
HETATM   11  C   UNK N   1      19.758  15.460   2.810  0.00  0.00     0.223 A 
ATOM     12  HN  UNK N   1      18.713  14.882   1.225  1.00  0.00     0.166 HD
BRANCH   9  13
HETATM   13  O   UNK N   1      17.967  12.623   2.324  0.00  0.00    -0.373 OA
HETATM   14  H   UNK N   1      17.439  11.810   2.350  0.00  0.00     0.212 HD
ENDBRANCH   9  13
BRANCH  11  15
HETATM   15  O   UNK N   1      19.640  16.756   2.464  0.00  0.00    -0.332 OA
HETATM   16  H   UNK N   1      20.225  17.404   2.804  0.00  0.00     0.220 HD
ENDBRANCH  11  15
ENDBRANCH   4   6
BRANCH   2  17
HETATM   17  O   UNK N   1      21.044  18.893   6.820  0.00  0.00    -0.393 OA
HETATM   18  H   UNK N   1      21.272  19.420   7.601  0.00  0.00     0.210 HD
ENDBRANCH   2  17
BRANCH   3  19
HETATM   19  C   UNK N   1      21.352  19.229   4.017  0.00  0.00     0.215 C 
BRANCH  19  20
HETATM   20  O   UNK N   1      21.265  18.969   2.638  0.00  0.00    -0.294 OA
BRANCH  20  21
HETATM   21  P   UNK N   1      20.804  20.477   1.892  0.00  0.00     0.390 P 
HETATM   22  O   UNK N   1      22.332  20.679   2.079  0.00  0.00    -0.632 OA
BRANCH  21  23
HETATM   23  O   UNK N   1      21.330  20.880   0.288  0.00  0.00    -0.307 OA
HETATM   24  H   UNK N   1      22.130  21.414   0.156  0.00  0.00     0.222 HD
ENDBRANCH  21  23
BRANCH  21  25
HETATM   25  O   UNK N   1      20.530  19.159   0.794  0.00  0.00    -0.307 OA
HETATM   26  H   UNK N   1      20.958  18.299   0.927  0.00  0.00     0.222 HD
ENDBRANCH  21  25
ENDBRANCH  20  21
ENDBRANCH  19  20
ENDBRANCH   3  19
TORSDOF 9
ENDMDL
MODEL 6
REMARK VINA RESULT:      -5.8      1.547      1.970
REMARK  9 active torsions:
REMARK  status: ('A' for Active; 'I' for Inactive)
REMARK    1  A    between atoms: C_6  and  C_4 
REMARK    2  A    between atoms: O_19  and  C_4 
REMARK    3  A    between atoms: C_5  and  O_13 
REMARK    4  A    between atoms: C_7  and  O_14 
REMARK    5  A    between atoms: C_8  and  N_12 
REMARK    6  A    between atoms: O_15  and  C_9 
REMARK    7  A    between atoms: P_21  and  O_16 
REMARK    8  A    between atoms: P_21  and  O_17 
REMARK    9  A    between atoms: P_21  and  O_19 
ROOT
HETATM    1  C   UNK N   1      32.180  15.527   7.685  0.00  0.00     0.088 C 
HETATM    2  C   UNK N   1      33.632  15.472   7.348  0.00  0.00     0.153 C 
HETATM    3  C   UNK N   1      34.096  16.842   7.843  0.00  0.00     0.177 C 
HETATM    4  C   UNK N   1      31.913  16.953   7.233  0.00  0.00     0.233 C 
HETATM    5  O   UNK N   1      33.013  17.737   7.657  0.00  0.00    -0.356 OA
ENDROOT
BRANCH   4   6
HETATM    6  N   UNK N   1      30.614  17.442   7.688  0.00  0.00    -0.296 N 
HETATM    7  C   UNK N   1      30.589  18.217   8.879  0.00  0.00     0.097 A 
HETATM    8  C   UNK N   1      29.437  18.520   9.475  0.00  0.00     0.043 A 
HETATM    9  C   UNK N   1      28.121  18.067   8.910  0.00  0.00     0.246 A 
HETATM   10  N   UNK N   1      28.245  17.368   7.639  0.00  0.00    -0.326 N 
HETATM   11  C   UNK N   1      29.369  17.079   7.068  0.00  0.00     0.223 A 
ATOM     12  HN  UNK N   1      27.386  17.087   7.166  1.00  0.00     0.166 HD
BRANCH   9  13
HETATM   13  O   UNK N   1      27.298  19.179   8.741  0.00  0.00    -0.373 OA
HETATM   14  H   UNK N   1      27.088  19.922   8.154  0.00  0.00     0.212 HD
ENDBRANCH   9  13
BRANCH  11  15
HETATM   15  O   UNK N   1      29.347  16.426   5.891  0.00  0.00    -0.332 OA
HETATM   16  H   UNK N   1      29.020  16.836   5.115  0.00  0.00     0.220 HD
ENDBRANCH  11  15
ENDBRANCH   4   6
BRANCH   2  17
HETATM   17  O   UNK N   1      34.292  14.392   7.938  0.00  0.00    -0.393 OA
HETATM   18  H   UNK N   1      34.684  14.172   8.796  0.00  0.00     0.210 HD
ENDBRANCH   2  17
BRANCH   3  19
HETATM   19  C   UNK N   1      34.484  16.861   9.329  0.00  0.00     0.215 C 
BRANCH  19  20
HETATM   20  O   UNK N   1      35.625  16.077   9.570  0.00  0.00    -0.294 OA
BRANCH  20  21
HETATM   21  P   UNK N   1      35.565  15.645  11.258  0.00  0.00     0.390 P 
HETATM   22  O   UNK N   1      35.201  14.297  10.582  0.00  0.00    -0.632 OA
BRANCH  21  23
HETATM   23  O   UNK N   1      36.726  14.554  11.946  0.00  0.00    -0.307 OA
HETATM   24  H   UNK N   1      36.429  13.787  12.462  0.00  0.00     0.222 HD
ENDBRANCH  21  23
BRANCH  21  25
HETATM   25  O   UNK N   1      37.184  16.093  10.814  0.00  0.00    -0.307 OA
HETATM   26  H   UNK N   1      37.522  15.925   9.921  0.00  0.00     0.222 HD
ENDBRANCH  21  25
ENDBRANCH  20  21
ENDBRANCH  19  20
ENDBRANCH   3  19
TORSDOF 9
ENDMDL
MODEL 7
REMARK VINA RESULT:      -5.7      4.389      5.939
REMARK  9 active torsions:
REMARK  status: ('A' for Active; 'I' for Inactive)
REMARK    1  A    between atoms: C_6  and  C_4 
REMARK    2  A    between atoms: O_19  and  C_4 
REMARK    3  A    between atoms: C_5  and  O_13 
REMARK    4  A    between atoms: C_7  and  O_14 
REMARK    5  A    between atoms: C_8  and  N_12 
REMARK    6  A    between atoms: O_15  and  C_9 
REMARK    7  A    between atoms: P_21  and  O_16 
REMARK    8  A    between atoms: P_21  and  O_17 
REMARK    9  A    between atoms: P_21  and  O_19 
ROOT
HETATM    1  C   UNK N   1      34.907  13.101  10.950  0.00  0.00     0.088 C 
HETATM    2  C   UNK N   1      36.115  12.576  11.650  0.00  0.00     0.153 C 
HETATM    3  C   UNK N   1      36.600  13.832  12.372  0.00  0.00     0.177 C 
HETATM    4  C   UNK N   1      35.494  14.421  10.480  0.00  0.00     0.233 C 
HETATM    5  O   UNK N   1      36.267  14.937  11.549  0.00  0.00    -0.356 OA
ENDROOT
BRANCH   4   6
HETATM    6  N   UNK N   1      34.469  15.336   9.984  0.00  0.00    -0.296 N 
HETATM    7  C   UNK N   1      33.263  14.762   9.496  0.00  0.00     0.097 A 
HETATM    8  C   UNK N   1      32.372  15.500   8.835  0.00  0.00     0.043 A 
HETATM    9  C   UNK N   1      32.597  16.965   8.589  0.00  0.00     0.246 A 
HETATM   10  N   UNK N   1      33.808  17.478   9.212  0.00  0.00    -0.326 N 
HETATM   11  C   UNK N   1      34.667  16.754   9.852  0.00  0.00     0.223 A 
ATOM     12  HN  UNK N   1      33.992  18.479   9.139  1.00  0.00     0.166 HD
BRANCH   9  13
HETATM   13  O   UNK N   1      31.499  17.675   9.070  0.00  0.00    -0.373 OA
HETATM   14  H   UNK N   1      31.194  18.544   9.373  0.00  0.00     0.212 HD
ENDBRANCH   9  13
BRANCH  11  15
HETATM   15  O   UNK N   1      35.751  17.352  10.382  0.00  0.00    -0.332 OA
HETATM   16  H   UNK N   1      35.740  18.260  10.610  0.00  0.00     0.220 HD
ENDBRANCH  11  15
ENDBRANCH   4   6
BRANCH   2  17
HETATM   17  O   UNK N   1      35.836  11.497  12.492  0.00  0.00    -0.393 OA
HETATM   18  H   UNK N   1      35.243  10.731  12.504  0.00  0.00     0.210 HD
ENDBRANCH   2  17
BRANCH   3  19
HETATM   19  C   UNK N   1      35.948  14.044  13.746  0.00  0.00     0.215 C 
BRANCH  19  20
HETATM   20  O   UNK N   1      36.754  13.535  14.779  0.00  0.00    -0.294 OA
BRANCH  20  21
HETATM   21  P   UNK N   1      35.668  12.746  15.892  0.00  0.00     0.390 P 
HETATM   22  O   UNK N   1      34.687  13.217  14.786  0.00  0.00    -0.632 OA
BRANCH  21  23
HETATM   23  O   UNK N   1      34.854  11.275  15.459  0.00  0.00    -0.307 OA
HETATM   24  H   UNK N   1      33.976  11.079  15.823  0.00  0.00     0.222 HD
ENDBRANCH  21  23
BRANCH  21  25
HETATM   25  O   UNK N   1      36.778  11.590  15.221  0.00  0.00    -0.307 OA
HETATM   26  H   UNK N   1      37.535  11.267  15.734  0.00  0.00     0.222 HD
ENDBRANCH  21  25
ENDBRANCH  20  21
ENDBRANCH  19  20
ENDBRANCH   3  19
TORSDOF 9
ENDMDL
MODEL 8
REMARK VINA RESULT:      -5.6      3.048      4.919
REMARK  9 active torsions:
REMARK  status: ('A' for Active; 'I' for Inactive)
REMARK    1  A    between atoms: C_6  and  C_4 
REMARK    2  A    between atoms: O_19  and  C_4 
REMARK    3  A    between atoms: C_5  and  O_13 
REMARK    4  A    between atoms: C_7  and  O_14 
REMARK    5  A    between atoms: C_8  and  N_12 
REMARK    6  A    between atoms: O_15  and  C_9 
REMARK    7  A    between atoms: P_21  and  O_16 
REMARK    8  A    between atoms: P_21  and  O_17 
REMARK    9  A    between atoms: P_21  and  O_19 
ROOT
HETATM    1  C   UNK N   1      34.341  17.461   6.802  0.00  0.00     0.088 C 
HETATM    2  C   UNK N   1      33.909  17.815   8.186  0.00  0.00     0.153 C 
HETATM    3  C   UNK N   1      33.104  16.573   8.564  0.00  0.00     0.177 C 
HETATM    4  C   UNK N   1      33.027  16.874   6.316  0.00  0.00     0.233 C 
HETATM    5  O   UNK N   1      32.504  16.091   7.374  0.00  0.00    -0.356 OA
ENDROOT
BRANCH   4   6
HETATM    6  N   UNK N   1      33.177  16.156   5.053  0.00  0.00    -0.296 N 
HETATM    7  C   UNK N   1      33.905  14.935   5.079  0.00  0.00     0.097 A 
HETATM    8  C   UNK N   1      34.269  14.331   3.949  0.00  0.00     0.043 A 
HETATM    9  C   UNK N   1      33.918  14.906   2.606  0.00  0.00     0.246 A 
HETATM   10  N   UNK N   1      33.088  16.099   2.685  0.00  0.00    -0.326 N 
HETATM   11  C   UNK N   1      32.740  16.678   3.787  0.00  0.00     0.223 A 
ATOM     12  HN  UNK N   1      32.759  16.507   1.810  1.00  0.00     0.166 HD
BRANCH   9  13
HETATM   13  O   UNK N   1      33.250  13.934   1.863  0.00  0.00    -0.373 OA
HETATM   14  H   UNK N   1      33.364  13.220   1.217  0.00  0.00     0.212 HD
ENDBRANCH   9  13
BRANCH  11  15
HETATM   15  O   UNK N   1      31.970  17.781   3.724  0.00  0.00    -0.332 OA
HETATM   16  H   UNK N   1      32.126  18.445   3.083  0.00  0.00     0.220 HD
ENDBRANCH  11  15
ENDBRANCH   4   6
BRANCH   2  17
HETATM   17  O   UNK N   1      34.978  18.092   9.041  0.00  0.00    -0.393 OA
HETATM   18  H   UNK N   1      35.283  18.827   9.594  0.00  0.00     0.210 HD
ENDBRANCH   2  17
BRANCH   3  19
HETATM   19  C   UNK N   1      33.955  15.445   9.164  0.00  0.00     0.215 C 
BRANCH  19  20
HETATM   20  O   UNK N   1      33.891  15.446  10.568  0.00  0.00    -0.294 OA
BRANCH  20  21
HETATM   21  P   UNK N   1      35.523  15.181  11.124  0.00  0.00     0.390 P 
HETATM   22  O   UNK N   1      35.690  15.022   9.589  0.00  0.00    -0.632 OA
BRANCH  21  23
HETATM   23  O   UNK N   1      36.788  16.314  10.763  0.00  0.00    -0.307 OA
HETATM   24  H   UNK N   1      37.247  16.277   9.909  0.00  0.00     0.222 HD
ENDBRANCH  21  23
BRANCH  21  25
HETATM   25  O   UNK N   1      35.028  16.807  11.483  0.00  0.00    -0.307 OA
HETATM   26  H   UNK N   1      35.613  17.559  11.304  0.00  0.00     0.222 HD
ENDBRANCH  21  25
ENDBRANCH  20  21
ENDBRANCH  19  20
ENDBRANCH   3  19
TORSDOF 9
ENDMDL
MODEL 9
REMARK VINA RESULT:      -5.5      3.362      6.136
REMARK  9 active torsions:
REMARK  status: ('A' for Active; 'I' for Inactive)
REMARK    1  A    between atoms: C_6  and  C_4 
REMARK    2  A    between atoms: O_19  and  C_4 
REMARK    3  A    between atoms: C_5  and  O_13 
REMARK    4  A    between atoms: C_7  and  O_14 
REMARK    5  A    between atoms: C_8  and  N_12 
REMARK    6  A    between atoms: O_15  and  C_9 
REMARK    7  A    between atoms: P_21  and  O_16 
REMARK    8  A    between atoms: P_21  and  O_17 
REMARK    9  A    between atoms: P_21  and  O_19 
ROOT
HETATM    1  C   UNK N   1      34.996  16.466   7.947  0.00  0.00     0.088 C 
HETATM    2  C   UNK N   1      34.070  16.597   6.784  0.00  0.00     0.153 C 
HETATM    3  C   UNK N   1      32.782  16.024   7.373  0.00  0.00     0.177 C 
HETATM    4  C   UNK N   1      34.573  15.077   8.395  0.00  0.00     0.233 C 
HETATM    5  O   UNK N   1      33.162  15.019   8.298  0.00  0.00    -0.356 OA
ENDROOT
BRANCH   4   6
HETATM    6  N   UNK N   1      35.100  14.739   9.716  0.00  0.00    -0.296 N 
HETATM    7  C   UNK N   1      36.461  14.336   9.791  0.00  0.00     0.097 A 
HETATM    8  C   UNK N   1      36.958  13.811  10.910  0.00  0.00     0.043 A 
HETATM    9  C   UNK N   1      36.108  13.635  12.137  0.00  0.00     0.246 A 
HETATM   10  N   UNK N   1      34.762  14.168  11.991  0.00  0.00    -0.326 N 
HETATM   11  C   UNK N   1      34.289  14.676  10.901  0.00  0.00     0.223 A 
ATOM     12  HN  UNK N   1      34.149  14.140  12.806  1.00  0.00     0.166 HD
BRANCH   9  13
HETATM   13  O   UNK N   1      36.735  14.263  13.211  0.00  0.00    -0.373 OA
HETATM   14  H   UNK N   1      36.623  14.924  13.913  0.00  0.00     0.212 HD
ENDBRANCH   9  13
BRANCH  11  15
HETATM   15  O   UNK N   1      33.023  15.135  10.896  0.00  0.00    -0.332 OA
HETATM   16  H   UNK N   1      32.546  15.249  11.694  0.00  0.00     0.220 HD
ENDBRANCH  11  15
ENDBRANCH   4   6
BRANCH   2  17
HETATM   17  O   UNK N   1      33.958  17.908   6.317  0.00  0.00    -0.393 OA
HETATM   18  H   UNK N   1      34.507  18.552   5.844  0.00  0.00     0.210 HD
ENDBRANCH   2  17
BRANCH   3  19
HETATM   19  C   UNK N   1      31.928  17.061   8.115  0.00  0.00     0.215 C 
BRANCH  19  20
HETATM   20  O   UNK N   1      30.968  16.443   8.935  0.00  0.00    -0.294 OA
BRANCH  20  21
HETATM   21  P   UNK N   1      29.671  17.596   9.111  0.00  0.00     0.390 P 
HETATM   22  O   UNK N   1      29.515  16.755  10.406  0.00  0.00    -0.632 OA
BRANCH  21  23
HETATM   23  O   UNK N   1      29.712  18.807  10.353  0.00  0.00    -0.307 OA
HETATM   24  H   UNK N   1      28.994  18.863  11.004  0.00  0.00     0.222 HD
ENDBRANCH  21  23
BRANCH  21  25
HETATM   25  O   UNK N   1      31.204  18.414   9.138  0.00  0.00    -0.307 OA
HETATM   26  H   UNK N   1      31.892  18.166   9.775  0.00  0.00     0.222 HD
ENDBRANCH  21  25
ENDBRANCH  20  21
ENDBRANCH  19  20
ENDBRANCH   3  19
TORSDOF 9
ENDMDL
