MODEL 1
REMARK VINA RESULT:      -8.2      0.000      0.000
REMARK  25 active torsions:
REMARK  status: ('A' for Active; 'I' for Inactive)
REMARK    1  A    between atoms: C_10  and  C_7 
REMARK    2  A    between atoms: C_18  and  C_7 
REMARK    3  A    between atoms: C_9  and  C_8 
REMARK    4  A    between atoms: C_19  and  C_8 
REMARK    5  A    between atoms: C_21  and  C_9 
REMARK    6  A    between atoms: C_22  and  C_10 
REMARK    7  A    between atoms: C_15  and  C_11 
REMARK    8  A    between atoms: N_45  and  C_11 
REMARK    9  A    between atoms: C_20  and  C_12 
REMARK   10  A    between atoms: O_60  and  C_12 
REMARK   11  A    between atoms: C_28  and  C_14 
REMARK   12  A    between atoms: N_45  and  C_16 
REMARK   13  A    between atoms: C_31  and  C_18 
REMARK   14  A    between atoms: C_18  and  N_41 
REMARK       I    between atoms: N_45  and  C_21 
REMARK   15  A    between atoms: O_49  and  C_22 
REMARK   16  A    between atoms: C_27  and  C_24 
REMARK   17  A    between atoms: C_25  and  O_50 
REMARK   18  A    between atoms: C_26  and  O_51 
REMARK   19  A    between atoms: N_33  and  C_27 
REMARK   20  A    between atoms: O_52  and  C_27 
REMARK       I    between atoms: N_41  and  C_28 
REMARK   21  A    between atoms: O_54  and  C_29 
REMARK   22  A    between atoms: C_30  and  N_46 
REMARK   23  A    between atoms: O_56  and  C_31 
REMARK       I    between atoms: N_35  and  C_32 
REMARK   24  A    between atoms: P_62  and  O_58 
REMARK   25  A    between atoms: P_62  and  O_60 
ROOT
HETATM    1  O   UNK N   1      24.927  13.428  10.190  0.00  0.00    -0.307 OA
HETATM    2  O   UNK N   1      24.814  12.659   7.659  0.00  0.00    -0.632 OA
HETATM    3  P   UNK N   1      23.898  12.929   8.880  0.00  0.00     0.390 P 
HETATM    4  H   UNK N   1      25.575  13.755  10.833  0.00  0.00     0.222 HD
ENDROOT
BRANCH   3   5
HETATM    5  O   UNK N   1      23.131  11.419   9.271  0.00  0.00    -0.307 OA
HETATM    6  H   UNK N   1      22.178  11.243   9.308  0.00  0.00     0.222 HD
ENDBRANCH   3   5
BRANCH   3   7
HETATM    7  O   UNK N   1      22.718  14.146   8.418  0.00  0.00    -0.294 OA
BRANCH   7   8
HETATM    8  C   UNK N   1      23.150  14.675   7.193  0.00  0.00     0.215 C 
BRANCH   8   9
HETATM    9  C   UNK N   1      22.353  15.907   6.729  0.00  0.00     0.180 C 
HETATM   10  C   UNK N   1      21.035  16.115   7.478  0.00  0.00     0.182 C 
HETATM   11  C   UNK N   1      20.469  17.160   6.618  0.00  0.00     0.198 C 
HETATM   12  C   UNK N   1      20.770  16.554   5.240  0.00  0.00     0.261 C 
HETATM   13  O   UNK N   1      22.063  15.958   5.333  0.00  0.00    -0.353 OA
BRANCH  10  14
HETATM   14  O   UNK N   1      20.196  14.993   7.391  0.00  0.00    -0.390 OA
HETATM   15  H   UNK N   1      19.715  14.207   7.088  0.00  0.00     0.210 HD
ENDBRANCH  10  14
BRANCH  11  16
HETATM   16  O   UNK N   1      21.182  18.355   6.814  0.00  0.00    -0.388 OA
HETATM   17  H   UNK N   1      21.772  19.079   7.075  0.00  0.00     0.210 HD
ENDBRANCH  11  16
BRANCH  12  18
HETATM   18  N   UNK N   1      20.601  17.448   4.064  0.00  0.00    -0.311 N 
HETATM   19  C   UNK N   1      19.421  17.616   3.431  0.00  0.00     0.186 A 
HETATM   20  N   UNK N   1      19.433  18.704   2.632  0.00  0.00    -0.347 N 
HETATM   21  C   UNK N   1      20.641  19.277   2.801  0.00  0.00     0.111 A 
ATOM     22  HN  UNK N   1      18.681  19.028   2.023  1.00  0.00     0.167 HD
HETATM   23  C   UNK N   1      21.382  18.499   3.687  0.00  0.00     0.069 A 
BRANCH  21  24
HETATM   24  C   UNK N   1      21.015  20.524   2.111  0.00  0.00     0.163 C 
BRANCH  24  25
HETATM   25  N   UNK N   1      20.697  20.699   0.881  0.00  0.00    -0.378 N 
HETATM   26  H   UNK N   1      20.552  21.601   0.513  0.00  0.00     0.158 HD
ATOM     27  HN  UNK N   1      20.591  19.887   0.272  1.00  0.00     0.158 HD
ENDBRANCH  24  25
BRANCH  24  28
HETATM   28  O   UNK N   1      21.695  21.481   2.750  0.00  0.00    -0.345 OA
HETATM   29  H   UNK N   1      22.159  21.308   3.546  0.00  0.00     0.219 HD
ENDBRANCH  24  28
ENDBRANCH  21  24
BRANCH  23  30
HETATM   30  C   UNK N   1      22.744  18.703   4.249  0.00  0.00     0.038 C 
BRANCH  30  31
HETATM   31  C   UNK N   1      23.917  18.551   3.649  0.00  0.00     0.077 C 
BRANCH  31  32
HETATM   32  C   UNK N   1      25.182  18.887   4.415  0.00  0.00     0.248 C 
HETATM   33  N   UNK N   1      26.359  18.198   4.185  0.00  0.00    -0.309 N 
HETATM   34  O   UNK N   1      25.145  19.842   5.167  0.00  0.00    -0.268 OA
BRANCH  33  35
HETATM   35  C   UNK N   1      27.708  18.791   4.295  0.00  0.00     0.189 C 
BRANCH  35  36
HETATM   36  C   UNK N   1      28.678  18.222   5.311  0.00  0.00     0.028 A 
HETATM   37  C   UNK N   1      29.831  17.572   4.859  0.00  0.00     0.029 A 
HETATM   38  C   UNK N   1      30.686  16.958   5.781  0.00  0.00     0.034 A 
HETATM   39  C   UNK N   1      30.358  16.966   7.136  0.00  0.00     0.080 A 
HETATM   40  C   UNK N   1      29.210  17.651   7.560  0.00  0.00     0.112 A 
HETATM   41  N   UNK N   1      31.111  16.283   8.037  0.00  0.00    -0.190 N 
HETATM   42  C   UNK N   1      28.858  17.594   8.911  0.00  0.00     0.184 A 
HETATM   43  N   UNK N   1      28.432  18.299   6.651  0.00  0.00    -0.353 N 
HETATM   44  N   UNK N   1      29.632  16.885   9.776  0.00  0.00    -0.169 N 
HETATM   45  C   UNK N   1      30.751  16.239   9.348  0.00  0.00     0.678 A 
ATOM     46  HN  UNK N   1      29.371  16.837  10.762  1.00  0.00     0.186 HD
HETATM   47  N   UNK N   1      31.454  15.566  10.179  0.00  0.00    -0.234 N 
HETATM   48  H   UNK N   1      31.053  15.042  10.909  0.00  0.00     0.174 HD
ATOM     49  HN  UNK N   1      32.469  15.572  10.080  1.00  0.00     0.174 HD
ATOM     50  HN  UNK N   1      27.643  18.857   6.982  1.00  0.00     0.166 HD
HETATM   51  H   UNK N   1      31.924  15.815   7.739  0.00  0.00     0.184 HD
BRANCH  42  52
HETATM   52  O   UNK N   1      27.742  18.198   9.355  0.00  0.00    -0.344 OA
HETATM   53  H   UNK N   1      27.658  18.931   9.933  0.00  0.00     0.219 HD
ENDBRANCH  42  52
ENDBRANCH  35  36
ENDBRANCH  33  35
BRANCH  33  54
HETATM   54  C   UNK N   1      26.216  16.841   3.755  0.00  0.00     0.037 C 
HETATM   55  C   UNK N   1      25.781  15.909   4.708  0.00  0.00     0.031 C 
HETATM   56  C   UNK N   1      25.300  14.691   4.338  0.00  0.00     0.019 C 
HETATM   57  C   UNK N   1      25.285  14.327   3.005  0.00  0.00     0.032 C 
HETATM   58  C   UNK N   1      25.904  15.152   2.042  0.00  0.00     0.019 C 
HETATM   59  C   UNK N   1      26.386  16.424   2.424  0.00  0.00     0.031 C 
BRANCH  57  60
HETATM   60  C   UNK N   1      24.284  13.326   2.632  0.00  0.00     0.252 C 
HETATM   61  N   UNK N   1      23.592  13.388   1.470  0.00  0.00    -0.343 N 
HETATM   62  H   UNK N   1      23.888  14.013   0.769  0.00  0.00     0.163 HD
HETATM   63  O   UNK N   1      23.970  12.510   3.486  0.00  0.00    -0.268 OA
BRANCH  61  64
HETATM   64  C   UNK N   1      22.424  12.555   1.231  0.00  0.00     0.183 C 
BRANCH  64  65
HETATM   65  C   UNK N   1      21.251  13.444   0.793  0.00  0.00     0.046 C 
BRANCH  65  66
HETATM   66  C   UNK N   1      21.304  14.929   1.170  0.00  0.00     0.112 C 
BRANCH  66  67
HETATM   67  C   UNK N   1      20.153  15.747   0.682  0.00  0.00     0.139 C 
HETATM   68  O   UNK N   1      20.364  16.816   0.134  0.00  0.00    -0.650 OA
BRANCH  67  69
HETATM   69  O   UNK N   1      18.896  15.271   0.757  0.00  0.00    -0.776 OA
HETATM   70  H   UNK N   1      18.110  15.781   0.739  0.00  0.00     0.167 HD
ENDBRANCH  67  69
ENDBRANCH  66  67
ENDBRANCH  65  66
ENDBRANCH  64  65
BRANCH  64  71
HETATM   71  C   UNK N   1      22.662  11.351   0.312  0.00  0.00     0.163 C 
HETATM   72  O   UNK N   1      23.706  11.241  -0.308  0.00  0.00    -0.648 OA
BRANCH  71  73
HETATM   73  O   UNK N   1      21.694  10.437   0.103  0.00  0.00    -0.775 OA
HETATM   74  H   UNK N   1      20.813  10.466   0.422  0.00  0.00     0.167 HD
ENDBRANCH  71  73
ENDBRANCH  64  71
ENDBRANCH  61  64
ENDBRANCH  57  60
ENDBRANCH  33  54
ENDBRANCH  31  32
ENDBRANCH  30  31
ENDBRANCH  23  30
ENDBRANCH  12  18
ENDBRANCH   8   9
ENDBRANCH   7   8
ENDBRANCH   3   7
TORSDOF 25
ENDMDL
MODEL 2
REMARK VINA RESULT:      -8.1      3.009      6.627
REMARK  25 active torsions:
REMARK  status: ('A' for Active; 'I' for Inactive)
REMARK    1  A    between atoms: C_10  and  C_7 
REMARK    2  A    between atoms: C_18  and  C_7 
REMARK    3  A    between atoms: C_9  and  C_8 
REMARK    4  A    between atoms: C_19  and  C_8 
REMARK    5  A    between atoms: C_21  and  C_9 
REMARK    6  A    between atoms: C_22  and  C_10 
REMARK    7  A    between atoms: C_15  and  C_11 
REMARK    8  A    between atoms: N_45  and  C_11 
REMARK    9  A    between atoms: C_20  and  C_12 
REMARK   10  A    between atoms: O_60  and  C_12 
REMARK   11  A    between atoms: C_28  and  C_14 
REMARK   12  A    between atoms: N_45  and  C_16 
REMARK   13  A    between atoms: C_31  and  C_18 
REMARK   14  A    between atoms: C_18  and  N_41 
REMARK       I    between atoms: N_45  and  C_21 
REMARK   15  A    between atoms: O_49  and  C_22 
REMARK   16  A    between atoms: C_27  and  C_24 
REMARK   17  A    between atoms: C_25  and  O_50 
REMARK   18  A    between atoms: C_26  and  O_51 
REMARK   19  A    between atoms: N_33  and  C_27 
REMARK   20  A    between atoms: O_52  and  C_27 
REMARK       I    between atoms: N_41  and  C_28 
REMARK   21  A    between atoms: O_54  and  C_29 
REMARK   22  A    between atoms: C_30  and  N_46 
REMARK   23  A    between atoms: O_56  and  C_31 
REMARK       I    between atoms: N_35  and  C_32 
REMARK   24  A    between atoms: P_62  and  O_58 
REMARK   25  A    between atoms: P_62  and  O_60 
ROOT
HETATM    1  O   UNK N   1      20.176  21.305   3.751  0.00  0.00    -0.307 OA
HETATM    2  O   UNK N   1      20.652  21.544   1.158  0.00  0.00    -0.632 OA
HETATM    3  P   UNK N   1      21.076  20.704   2.390  0.00  0.00     0.390 P 
HETATM    4  H   UNK N   1      19.584  21.667   4.429  0.00  0.00     0.222 HD
ENDROOT
BRANCH   3   5
HETATM    5  O   UNK N   1      22.774  20.993   2.628  0.00  0.00    -0.307 OA
HETATM    6  H   UNK N   1      23.458  21.041   1.941  0.00  0.00     0.222 HD
ENDBRANCH   3   5
BRANCH   3   7
HETATM    7  O   UNK N   1      20.756  19.014   2.034  0.00  0.00    -0.294 OA
BRANCH   7   8
HETATM    8  C   UNK N   1      20.205  18.459   3.198  0.00  0.00     0.215 C 
BRANCH   8   9
HETATM    9  C   UNK N   1      21.063  17.345   3.825  0.00  0.00     0.180 C 
HETATM   10  C   UNK N   1      22.090  17.847   4.842  0.00  0.00     0.182 C 
HETATM   11  C   UNK N   1      22.852  16.604   5.000  0.00  0.00     0.198 C 
HETATM   12  C   UNK N   1      22.996  16.198   3.526  0.00  0.00     0.261 C 
HETATM   13  O   UNK N   1      21.755  16.511   2.896  0.00  0.00    -0.353 OA
BRANCH  10  14
HETATM   14  O   UNK N   1      22.953  18.807   4.292  0.00  0.00    -0.390 OA
HETATM   15  H   UNK N   1      23.731  19.330   4.040  0.00  0.00     0.210 HD
ENDBRANCH  10  14
BRANCH  11  16
HETATM   16  O   UNK N   1      22.073  15.671   5.709  0.00  0.00    -0.388 OA
HETATM   17  H   UNK N   1      21.653  14.901   6.120  0.00  0.00     0.210 HD
ENDBRANCH  11  16
BRANCH  12  18
HETATM   18  N   UNK N   1      23.479  14.818   3.256  0.00  0.00    -0.311 N 
HETATM   19  C   UNK N   1      22.651  13.759   3.133  0.00  0.00     0.186 A 
HETATM   20  N   UNK N   1      23.271  12.703   2.566  0.00  0.00    -0.347 N 
HETATM   21  C   UNK N   1      24.519  13.119   2.269  0.00  0.00     0.111 A 
ATOM     22  HN  UNK N   1      22.877  11.777   2.396  1.00  0.00     0.167 HD
HETATM   23  C   UNK N   1      24.663  14.435   2.701  0.00  0.00     0.069 A 
BRANCH  21  24
HETATM   24  C   UNK N   1      25.493  12.242   1.596  0.00  0.00     0.163 C 
BRANCH  24  25
HETATM   25  N   UNK N   1      25.097  11.395   0.719  0.00  0.00    -0.378 N 
HETATM   26  H   UNK N   1      24.145  11.314   0.480  0.00  0.00     0.158 HD
ATOM     27  HN  UNK N   1      25.780  10.792   0.261  1.00  0.00     0.158 HD
ENDBRANCH  24  25
BRANCH  24  28
HETATM   28  O   UNK N   1      26.793  12.309   1.897  0.00  0.00    -0.345 OA
HETATM   29  H   UNK N   1      27.141  11.919   2.674  0.00  0.00     0.219 HD
ENDBRANCH  24  28
ENDBRANCH  21  24
BRANCH  23  30
HETATM   30  C   UNK N   1      25.810  15.374   2.578  0.00  0.00     0.038 C 
BRANCH  30  31
HETATM   31  C   UNK N   1      26.192  16.327   3.417  0.00  0.00     0.077 C 
BRANCH  31  32
HETATM   32  C   UNK N   1      27.648  16.397   3.834  0.00  0.00     0.248 C 
HETATM   33  N   UNK N   1      28.232  15.374   4.559  0.00  0.00    -0.309 N 
HETATM   34  O   UNK N   1      28.303  17.338   3.428  0.00  0.00    -0.268 OA
BRANCH  33  35
HETATM   35  C   UNK N   1      29.650  14.976   4.444  0.00  0.00     0.189 C 
BRANCH  35  36
HETATM   36  C   UNK N   1      30.715  15.876   5.039  0.00  0.00     0.028 A 
HETATM   37  C   UNK N   1      31.738  16.355   4.214  0.00  0.00     0.029 A 
HETATM   38  C   UNK N   1      32.780  17.107   4.768  0.00  0.00     0.034 A 
HETATM   39  C   UNK N   1      32.808  17.336   6.142  0.00  0.00     0.080 A 
HETATM   40  C   UNK N   1      31.753  16.867   6.938  0.00  0.00     0.112 A 
HETATM   41  N   UNK N   1      33.864  17.966   6.720  0.00  0.00    -0.190 N 
HETATM   42  C   UNK N   1      31.828  17.046   8.322  0.00  0.00     0.184 A 
HETATM   43  N   UNK N   1      30.716  16.198   6.365  0.00  0.00    -0.353 N 
HETATM   44  N   UNK N   1      32.911  17.669   8.860  0.00  0.00    -0.169 N 
HETATM   45  C   UNK N   1      33.918  18.130   8.070  0.00  0.00     0.678 A 
ATOM     46  HN  UNK N   1      32.970  17.793   9.871  1.00  0.00     0.186 HD
HETATM   47  N   UNK N   1      34.935  18.699   8.601  0.00  0.00    -0.234 N 
HETATM   48  H   UNK N   1      35.322  18.400   9.455  0.00  0.00     0.174 HD
ATOM     49  HN  UNK N   1      35.360  19.492   8.120  1.00  0.00     0.174 HD
ATOM     50  HN  UNK N   1      29.919  15.929   6.943  1.00  0.00     0.166 HD
HETATM   51  H   UNK N   1      34.596  18.307   6.158  0.00  0.00     0.184 HD
BRANCH  42  52
HETATM   52  O   UNK N   1      30.862  16.573   9.128  0.00  0.00    -0.344 OA
HETATM   53  H   UNK N   1      30.227  17.048   9.629  0.00  0.00     0.219 HD
ENDBRANCH  42  52
ENDBRANCH  35  36
ENDBRANCH  33  35
BRANCH  33  54
HETATM   54  C   UNK N   1      27.358  14.639   5.420  0.00  0.00     0.037 C 
HETATM   55  C   UNK N   1      26.725  15.350   6.450  0.00  0.00     0.031 C 
HETATM   56  C   UNK N   1      25.644  14.840   7.101  0.00  0.00     0.019 C 
HETATM   57  C   UNK N   1      25.183  13.575   6.793  0.00  0.00     0.032 C 
HETATM   58  C   UNK N   1      25.916  12.751   5.913  0.00  0.00     0.019 C 
HETATM   59  C   UNK N   1      27.027  13.288   5.223  0.00  0.00     0.031 C 
BRANCH  57  60
HETATM   60  C   UNK N   1      23.768  13.329   7.076  0.00  0.00     0.252 C 
HETATM   61  N   UNK N   1      23.136  13.869   8.145  0.00  0.00    -0.343 N 
HETATM   62  H   UNK N   1      23.578  14.590   8.649  0.00  0.00     0.163 HD
HETATM   63  O   UNK N   1      23.206  12.480   6.400  0.00  0.00    -0.268 OA
BRANCH  61  64
HETATM   64  C   UNK N   1      21.821  13.411   8.566  0.00  0.00     0.183 C 
BRANCH  64  65
HETATM   65  C   UNK N   1      21.854  13.096  10.069  0.00  0.00     0.046 C 
BRANCH  65  66
HETATM   66  C   UNK N   1      22.682  11.888  10.525  0.00  0.00     0.112 C 
BRANCH  66  67
HETATM   67  C   UNK N   1      24.047  12.214  11.037  0.00  0.00     0.139 C 
HETATM   68  O   UNK N   1      24.858  12.742  10.294  0.00  0.00    -0.650 OA
BRANCH  67  69
HETATM   69  O   UNK N   1      24.356  12.019  12.332  0.00  0.00    -0.776 OA
HETATM   70  H   UNK N   1      25.219  11.965  12.692  0.00  0.00     0.167 HD
ENDBRANCH  67  69
ENDBRANCH  66  67
ENDBRANCH  65  66
ENDBRANCH  64  65
BRANCH  64  71
HETATM   71  C   UNK N   1      20.654  14.316   8.152  0.00  0.00     0.163 C 
HETATM   72  O   UNK N   1      20.188  14.251   7.028  0.00  0.00    -0.648 OA
BRANCH  71  73
HETATM   73  O   UNK N   1      20.179  15.260   8.989  0.00  0.00    -0.775 OA
HETATM   74  H   UNK N   1      19.651  16.000   8.762  0.00  0.00     0.167 HD
ENDBRANCH  71  73
ENDBRANCH  64  71
ENDBRANCH  61  64
ENDBRANCH  57  60
ENDBRANCH  33  54
ENDBRANCH  31  32
ENDBRANCH  30  31
ENDBRANCH  23  30
ENDBRANCH  12  18
ENDBRANCH   8   9
ENDBRANCH   7   8
ENDBRANCH   3   7
TORSDOF 25
ENDMDL
MODEL 3
REMARK VINA RESULT:      -7.8      2.880      6.811
REMARK  25 active torsions:
REMARK  status: ('A' for Active; 'I' for Inactive)
REMARK    1  A    between atoms: C_10  and  C_7 
REMARK    2  A    between atoms: C_18  and  C_7 
REMARK    3  A    between atoms: C_9  and  C_8 
REMARK    4  A    between atoms: C_19  and  C_8 
REMARK    5  A    between atoms: C_21  and  C_9 
REMARK    6  A    between atoms: C_22  and  C_10 
REMARK    7  A    between atoms: C_15  and  C_11 
REMARK    8  A    between atoms: N_45  and  C_11 
REMARK    9  A    between atoms: C_20  and  C_12 
REMARK   10  A    between atoms: O_60  and  C_12 
REMARK   11  A    between atoms: C_28  and  C_14 
REMARK   12  A    between atoms: N_45  and  C_16 
REMARK   13  A    between atoms: C_31  and  C_18 
REMARK   14  A    between atoms: C_18  and  N_41 
REMARK       I    between atoms: N_45  and  C_21 
REMARK   15  A    between atoms: O_49  and  C_22 
REMARK   16  A    between atoms: C_27  and  C_24 
REMARK   17  A    between atoms: C_25  and  O_50 
REMARK   18  A    between atoms: C_26  and  O_51 
REMARK   19  A    between atoms: N_33  and  C_27 
REMARK   20  A    between atoms: O_52  and  C_27 
REMARK       I    between atoms: N_41  and  C_28 
REMARK   21  A    between atoms: O_54  and  C_29 
REMARK   22  A    between atoms: C_30  and  N_46 
REMARK   23  A    between atoms: O_56  and  C_31 
REMARK       I    between atoms: N_35  and  C_32 
REMARK   24  A    between atoms: P_62  and  O_58 
REMARK   25  A    between atoms: P_62  and  O_60 
ROOT
HETATM    1  O   UNK N   1      20.682  21.666   2.966  0.00  0.00    -0.307 OA
HETATM    2  O   UNK N   1      21.068  20.968   0.443  0.00  0.00    -0.632 OA
HETATM    3  P   UNK N   1      21.402  20.510   1.885  0.00  0.00     0.390 P 
HETATM    4  H   UNK N   1      20.193  22.325   3.484  0.00  0.00     0.222 HD
ENDROOT
BRANCH   3   5
HETATM    5  O   UNK N   1      23.133  20.558   2.034  0.00  0.00    -0.307 OA
HETATM    6  H   UNK N   1      23.685  19.988   2.592  0.00  0.00     0.222 HD
ENDBRANCH   3   5
BRANCH   3   7
HETATM    7  O   UNK N   1      20.785  18.879   2.097  0.00  0.00    -0.294 OA
BRANCH   7   8
HETATM    8  C   UNK N   1      20.337  18.791   3.423  0.00  0.00     0.215 C 
BRANCH   8   9
HETATM    9  C   UNK N   1      20.986  17.651   4.227  0.00  0.00     0.180 C 
HETATM   10  C   UNK N   1      22.334  18.017   4.852  0.00  0.00     0.182 C 
HETATM   11  C   UNK N   1      22.741  16.673   5.275  0.00  0.00     0.198 C 
HETATM   12  C   UNK N   1      22.390  15.884   4.005  0.00  0.00     0.261 C 
HETATM   13  O   UNK N   1      21.165  16.427   3.515  0.00  0.00    -0.353 OA
BRANCH  10  14
HETATM   14  O   UNK N   1      23.259  18.458   3.893  0.00  0.00    -0.390 OA
HETATM   15  H   UNK N   1      24.067  18.728   3.428  0.00  0.00     0.210 HD
ENDBRANCH  10  14
BRANCH  11  16
HETATM   16  O   UNK N   1      21.942  16.268   6.359  0.00  0.00    -0.388 OA
HETATM   17  H   UNK N   1      21.376  16.175   7.141  0.00  0.00     0.210 HD
ENDBRANCH  11  16
BRANCH  12  18
HETATM   18  N   UNK N   1      22.392  14.401   4.116  0.00  0.00    -0.311 N 
HETATM   19  C   UNK N   1      21.439  13.711   4.778  0.00  0.00     0.186 A 
HETATM   20  N   UNK N   1      21.461  12.399   4.462  0.00  0.00    -0.347 N 
HETATM   21  C   UNK N   1      22.424  12.257   3.530  0.00  0.00     0.111 A 
ATOM     22  HN  UNK N   1      20.870  11.664   4.850  1.00  0.00     0.167 HD
HETATM   23  C   UNK N   1      23.017  13.498   3.310  0.00  0.00     0.069 A 
BRANCH  21  24
HETATM   24  C   UNK N   1      22.721  10.954   2.908  0.00  0.00     0.163 C 
BRANCH  24  25
HETATM   25  N   UNK N   1      23.452  10.100   3.524  0.00  0.00    -0.378 N 
HETATM   26  H   UNK N   1      24.432  10.102   3.428  0.00  0.00     0.158 HD
ATOM     27  HN  UNK N   1      23.010   9.404   4.125  1.00  0.00     0.158 HD
ENDBRANCH  24  25
BRANCH  24  28
HETATM   28  O   UNK N   1      22.243  10.651   1.698  0.00  0.00    -0.345 OA
HETATM   29  H   UNK N   1      22.465   9.850   1.267  0.00  0.00     0.219 HD
ENDBRANCH  24  28
ENDBRANCH  21  24
BRANCH  23  30
HETATM   30  C   UNK N   1      24.085  13.906   2.358  0.00  0.00     0.038 C 
BRANCH  30  31
HETATM   31  C   UNK N   1      25.343  13.492   2.301  0.00  0.00     0.077 C 
BRANCH  31  32
HETATM   32  C   UNK N   1      26.458  14.498   2.512  0.00  0.00     0.248 C 
HETATM   33  N   UNK N   1      27.238  14.469   3.654  0.00  0.00    -0.309 N 
HETATM   34  O   UNK N   1      26.698  15.268   1.602  0.00  0.00    -0.268 OA
BRANCH  33  35
HETATM   35  C   UNK N   1      28.662  14.859   3.701  0.00  0.00     0.189 C 
BRANCH  35  36
HETATM   36  C   UNK N   1      29.179  15.603   4.917  0.00  0.00     0.028 A 
HETATM   37  C   UNK N   1      30.288  15.096   5.602  0.00  0.00     0.029 A 
HETATM   38  C   UNK N   1      30.717  15.717   6.780  0.00  0.00     0.034 A 
HETATM   39  C   UNK N   1      30.008  16.808   7.281  0.00  0.00     0.080 A 
HETATM   40  C   UNK N   1      28.918  17.309   6.556  0.00  0.00     0.112 A 
HETATM   41  N   UNK N   1      30.335  17.359   8.479  0.00  0.00    -0.190 N 
HETATM   42  C   UNK N   1      28.177  18.360   7.102  0.00  0.00     0.184 A 
HETATM   43  N   UNK N   1      28.563  16.731   5.377  0.00  0.00    -0.353 N 
HETATM   44  N   UNK N   1      28.531  18.871   8.313  0.00  0.00    -0.169 N 
HETATM   45  C   UNK N   1      29.601  18.381   8.995  0.00  0.00     0.678 A 
ATOM     46  HN  UNK N   1      27.985  19.634   8.716  1.00  0.00     0.186 HD
HETATM   47  N   UNK N   1      29.904  18.868  10.139  0.00  0.00    -0.234 N 
HETATM   48  H   UNK N   1      29.223  19.150  10.791  0.00  0.00     0.174 HD
ATOM     49  HN  UNK N   1      30.889  18.967  10.385  1.00  0.00     0.174 HD
ATOM     50  HN  UNK N   1      27.817  17.152   4.822  1.00  0.00     0.166 HD
HETATM   51  H   UNK N   1      31.110  17.015   8.979  0.00  0.00     0.184 HD
BRANCH  42  52
HETATM   52  O   UNK N   1      27.097  18.843   6.464  0.00  0.00    -0.344 OA
HETATM   53  H   UNK N   1      26.421  19.406   6.790  0.00  0.00     0.219 HD
ENDBRANCH  42  52
ENDBRANCH  35  36
ENDBRANCH  33  35
BRANCH  33  54
HETATM   54  C   UNK N   1      26.603  13.965   4.833  0.00  0.00     0.037 C 
HETATM   55  C   UNK N   1      25.955  14.893   5.660  0.00  0.00     0.031 C 
HETATM   56  C   UNK N   1      25.056  14.496   6.602  0.00  0.00     0.019 C 
HETATM   57  C   UNK N   1      24.807  13.151   6.798  0.00  0.00     0.032 C 
HETATM   58  C   UNK N   1      25.589  12.184   6.131  0.00  0.00     0.019 C 
HETATM   59  C   UNK N   1      26.508  12.597   5.140  0.00  0.00     0.031 C 
BRANCH  57  60
HETATM   60  C   UNK N   1      23.496  12.825   7.362  0.00  0.00     0.252 C 
HETATM   61  N   UNK N   1      22.848  13.649   8.218  0.00  0.00    -0.343 N 
HETATM   62  H   UNK N   1      23.169  14.573   8.331  0.00  0.00     0.163 HD
HETATM   63  O   UNK N   1      23.071  11.696   7.161  0.00  0.00    -0.268 OA
BRANCH  61  64
HETATM   64  C   UNK N   1      21.688  13.204   8.976  0.00  0.00     0.183 C 
BRANCH  64  65
HETATM   65  C   UNK N   1      22.088  13.018  10.447  0.00  0.00     0.046 C 
BRANCH  65  66
HETATM   66  C   UNK N   1      22.879  11.758  10.816  0.00  0.00     0.112 C 
BRANCH  66  67
HETATM   67  C   UNK N   1      23.967  11.965  11.818  0.00  0.00     0.139 C 
HETATM   68  O   UNK N   1      25.132  11.927  11.457  0.00  0.00    -0.650 OA
BRANCH  67  69
HETATM   69  O   UNK N   1      23.672  12.286  13.091  0.00  0.00    -0.776 OA
HETATM   70  H   UNK N   1      23.594  13.153  13.438  0.00  0.00     0.167 HD
ENDBRANCH  67  69
ENDBRANCH  66  67
ENDBRANCH  65  66
ENDBRANCH  64  65
BRANCH  64  71
HETATM   71  C   UNK N   1      20.423  14.049   8.783  0.00  0.00     0.163 C 
HETATM   72  O   UNK N   1      20.249  14.678   7.753  0.00  0.00    -0.648 OA
BRANCH  71  73
HETATM   73  O   UNK N   1      19.522  14.185   9.776  0.00  0.00    -0.775 OA
HETATM   74  H   UNK N   1      19.681  14.512  10.640  0.00  0.00     0.167 HD
ENDBRANCH  71  73
ENDBRANCH  64  71
ENDBRANCH  61  64
ENDBRANCH  57  60
ENDBRANCH  33  54
ENDBRANCH  31  32
ENDBRANCH  30  31
ENDBRANCH  23  30
ENDBRANCH  12  18
ENDBRANCH   8   9
ENDBRANCH   7   8
ENDBRANCH   3   7
TORSDOF 25
ENDMDL
MODEL 4
REMARK VINA RESULT:      -7.7      1.577      2.225
REMARK  25 active torsions:
REMARK  status: ('A' for Active; 'I' for Inactive)
REMARK    1  A    between atoms: C_10  and  C_7 
REMARK    2  A    between atoms: C_18  and  C_7 
REMARK    3  A    between atoms: C_9  and  C_8 
REMARK    4  A    between atoms: C_19  and  C_8 
REMARK    5  A    between atoms: C_21  and  C_9 
REMARK    6  A    between atoms: C_22  and  C_10 
REMARK    7  A    between atoms: C_15  and  C_11 
REMARK    8  A    between atoms: N_45  and  C_11 
REMARK    9  A    between atoms: C_20  and  C_12 
REMARK   10  A    between atoms: O_60  and  C_12 
REMARK   11  A    between atoms: C_28  and  C_14 
REMARK   12  A    between atoms: N_45  and  C_16 
REMARK   13  A    between atoms: C_31  and  C_18 
REMARK   14  A    between atoms: C_18  and  N_41 
REMARK       I    between atoms: N_45  and  C_21 
REMARK   15  A    between atoms: O_49  and  C_22 
REMARK   16  A    between atoms: C_27  and  C_24 
REMARK   17  A    between atoms: C_25  and  O_50 
REMARK   18  A    between atoms: C_26  and  O_51 
REMARK   19  A    between atoms: N_33  and  C_27 
REMARK   20  A    between atoms: O_52  and  C_27 
REMARK       I    between atoms: N_41  and  C_28 
REMARK   21  A    between atoms: O_54  and  C_29 
REMARK   22  A    between atoms: C_30  and  N_46 
REMARK   23  A    between atoms: O_56  and  C_31 
REMARK       I    between atoms: N_35  and  C_32 
REMARK   24  A    between atoms: P_62  and  O_58 
REMARK   25  A    between atoms: P_62  and  O_60 
ROOT
HETATM    1  O   UNK N   1      22.873  11.220   9.329  0.00  0.00    -0.307 OA
HETATM    2  O   UNK N   1      21.043  12.046  11.054  0.00  0.00    -0.632 OA
HETATM    3  P   UNK N   1      22.381  12.489  10.411  0.00  0.00     0.390 P 
HETATM    4  H   UNK N   1      23.026  10.491   8.708  0.00  0.00     0.222 HD
ENDROOT
BRANCH   3   5
HETATM    5  O   UNK N   1      23.530  12.641  11.707  0.00  0.00    -0.307 OA
HETATM    6  H   UNK N   1      23.679  12.009  12.429  0.00  0.00     0.222 HD
ENDBRANCH   3   5
BRANCH   3   7
HETATM    7  O   UNK N   1      22.116  14.028   9.606  0.00  0.00    -0.294 OA
BRANCH   7   8
HETATM    8  C   UNK N   1      20.920  13.900   8.885  0.00  0.00     0.215 C 
BRANCH   8   9
HETATM    9  C   UNK N   1      21.076  14.136   7.372  0.00  0.00     0.180 C 
HETATM   10  C   UNK N   1      22.462  13.787   6.826  0.00  0.00     0.182 C 
HETATM   11  C   UNK N   1      22.313  14.373   5.489  0.00  0.00     0.198 C 
HETATM   12  C   UNK N   1      21.678  15.719   5.864  0.00  0.00     0.261 C 
HETATM   13  O   UNK N   1      20.760  15.454   6.924  0.00  0.00    -0.353 OA
BRANCH  10  14
HETATM   14  O   UNK N   1      23.482  14.491   7.486  0.00  0.00    -0.390 OA
HETATM   15  H   UNK N   1      23.982  15.108   8.043  0.00  0.00     0.210 HD
ENDBRANCH  10  14
BRANCH  11  16
HETATM   16  O   UNK N   1      21.425  13.585   4.736  0.00  0.00    -0.388 OA
HETATM   17  H   UNK N   1      20.687  13.179   4.256  0.00  0.00     0.210 HD
ENDBRANCH  11  16
BRANCH  12  18
HETATM   18  N   UNK N   1      21.101  16.520   4.752  0.00  0.00    -0.311 N 
HETATM   19  C   UNK N   1      19.823  16.390   4.337  0.00  0.00     0.186 A 
HETATM   20  N   UNK N   1      19.439  17.431   3.567  0.00  0.00    -0.347 N 
HETATM   21  C   UNK N   1      20.489  18.276   3.535  0.00  0.00     0.111 A 
ATOM     22  HN  UNK N   1      18.539  17.553   3.104  1.00  0.00     0.167 HD
HETATM   23  C   UNK N   1      21.534  17.716   4.264  0.00  0.00     0.069 A 
BRANCH  21  24
HETATM   24  C   UNK N   1      20.432  19.560   2.813  0.00  0.00     0.163 C 
BRANCH  24  25
HETATM   25  N   UNK N   1      20.235  19.576   1.545  0.00  0.00    -0.378 N 
HETATM   26  H   UNK N   1      20.312  18.756   1.006  0.00  0.00     0.158 HD
ATOM     27  HN  UNK N   1      19.997  20.456   1.088  1.00  0.00     0.158 HD
ENDBRANCH  24  25
BRANCH  24  28
HETATM   28  O   UNK N   1      20.594  20.716   3.462  0.00  0.00    -0.345 OA
HETATM   29  H   UNK N   1      21.188  20.799   4.181  0.00  0.00     0.219 HD
ENDBRANCH  24  28
ENDBRANCH  21  24
BRANCH  23  30
HETATM   30  C   UNK N   1      22.885  18.249   4.585  0.00  0.00     0.038 C 
BRANCH  30  31
HETATM   31  C   UNK N   1      24.015  18.098   3.907  0.00  0.00     0.077 C 
BRANCH  31  32
HETATM   32  C   UNK N   1      25.333  18.356   4.612  0.00  0.00     0.248 C 
HETATM   33  N   UNK N   1      26.475  17.655   4.268  0.00  0.00    -0.309 N 
HETATM   34  O   UNK N   1      25.368  19.264   5.420  0.00  0.00    -0.268 OA
BRANCH  33  35
HETATM   35  C   UNK N   1      27.843  18.209   4.329  0.00  0.00     0.189 C 
BRANCH  35  36
HETATM   36  C   UNK N   1      28.746  17.808   5.479  0.00  0.00     0.028 A 
HETATM   37  C   UNK N   1      28.222  17.780   6.776  0.00  0.00     0.029 A 
HETATM   38  C   UNK N   1      29.065  17.506   7.858  0.00  0.00     0.034 A 
HETATM   39  C   UNK N   1      30.426  17.304   7.635  0.00  0.00     0.080 A 
HETATM   40  C   UNK N   1      30.916  17.310   6.322  0.00  0.00     0.112 A 
HETATM   41  N   UNK N   1      31.285  17.147   8.677  0.00  0.00    -0.190 N 
HETATM   42  C   UNK N   1      32.291  17.172   6.119  0.00  0.00     0.184 A 
HETATM   43  N   UNK N   1      30.063  17.510   5.281  0.00  0.00    -0.353 N 
HETATM   44  N   UNK N   1      33.116  17.033   7.192  0.00  0.00    -0.169 N 
HETATM   45  C   UNK N   1      32.621  17.015   8.459  0.00  0.00     0.678 A 
ATOM     46  HN  UNK N   1      34.122  16.940   7.045  1.00  0.00     0.186 HD
HETATM   47  N   UNK N   1      33.419  16.899   9.453  0.00  0.00    -0.234 N 
HETATM   48  H   UNK N   1      34.306  17.325   9.472  0.00  0.00     0.174 HD
ATOM     49  HN  UNK N   1      33.125  16.344  10.256  1.00  0.00     0.174 HD
ATOM     50  HN  UNK N   1      30.418  17.436   4.327  1.00  0.00     0.166 HD
HETATM   51  H   UNK N   1      30.937  17.129   9.598  0.00  0.00     0.184 HD
BRANCH  42  52
HETATM   52  O   UNK N   1      32.810  17.217   4.880  0.00  0.00    -0.344 OA
HETATM   53  H   UNK N   1      33.063  16.509   4.320  0.00  0.00     0.219 HD
ENDBRANCH  42  52
ENDBRANCH  35  36
ENDBRANCH  33  35
BRANCH  33  54
HETATM   54  C   UNK N   1      26.269  16.331   3.768  0.00  0.00     0.037 C 
HETATM   55  C   UNK N   1      25.994  15.326   4.707  0.00  0.00     0.031 C 
HETATM   56  C   UNK N   1      25.463  14.131   4.329  0.00  0.00     0.019 C 
HETATM   57  C   UNK N   1      25.238  13.865   2.992  0.00  0.00     0.032 C 
HETATM   58  C   UNK N   1      25.693  14.766   2.007  0.00  0.00     0.019 C 
HETATM   59  C   UNK N   1      26.226  16.014   2.400  0.00  0.00     0.031 C 
BRANCH  57  60
HETATM   60  C   UNK N   1      24.193  12.879   2.710  0.00  0.00     0.252 C 
HETATM   61  N   UNK N   1      23.367  12.980   1.641  0.00  0.00    -0.343 N 
HETATM   62  H   UNK N   1      23.581  13.626   0.930  0.00  0.00     0.163 HD
HETATM   63  O   UNK N   1      23.978  12.037   3.569  0.00  0.00    -0.268 OA
BRANCH  61  64
HETATM   64  C   UNK N   1      22.173  12.158   1.518  0.00  0.00     0.183 C 
BRANCH  64  65
HETATM   65  C   UNK N   1      21.044  12.998   0.905  0.00  0.00     0.046 C 
BRANCH  65  66
HETATM   66  C   UNK N   1      21.222  14.521   0.880  0.00  0.00     0.112 C 
BRANCH  66  67
HETATM   67  C   UNK N   1      19.951  15.307   0.868  0.00  0.00     0.139 C 
HETATM   68  O   UNK N   1      19.978  16.488   0.566  0.00  0.00    -0.650 OA
BRANCH  67  69
HETATM   69  O   UNK N   1      18.771  14.700   1.093  0.00  0.00    -0.776 OA
HETATM   70  H   UNK N   1      18.603  14.041   1.738  0.00  0.00     0.167 HD
ENDBRANCH  67  69
ENDBRANCH  66  67
ENDBRANCH  65  66
ENDBRANCH  64  65
BRANCH  64  71
HETATM   71  C   UNK N   1      22.384  10.807   0.823  0.00  0.00     0.163 C 
HETATM   72  O   UNK N   1      21.525  10.345   0.092  0.00  0.00    -0.648 OA
BRANCH  71  73
HETATM   73  O   UNK N   1      23.481  10.065   1.071  0.00  0.00    -0.775 OA
HETATM   74  H   UNK N   1      23.689   9.615   1.867  0.00  0.00     0.167 HD
ENDBRANCH  71  73
ENDBRANCH  64  71
ENDBRANCH  61  64
ENDBRANCH  57  60
ENDBRANCH  33  54
ENDBRANCH  31  32
ENDBRANCH  30  31
ENDBRANCH  23  30
ENDBRANCH  12  18
ENDBRANCH   8   9
ENDBRANCH   7   8
ENDBRANCH   3   7
TORSDOF 25
ENDMDL
MODEL 5
REMARK VINA RESULT:      -7.6      1.604      2.033
REMARK  25 active torsions:
REMARK  status: ('A' for Active; 'I' for Inactive)
REMARK    1  A    between atoms: C_10  and  C_7 
REMARK    2  A    between atoms: C_18  and  C_7 
REMARK    3  A    between atoms: C_9  and  C_8 
REMARK    4  A    between atoms: C_19  and  C_8 
REMARK    5  A    between atoms: C_21  and  C_9 
REMARK    6  A    between atoms: C_22  and  C_10 
REMARK    7  A    between atoms: C_15  and  C_11 
REMARK    8  A    between atoms: N_45  and  C_11 
REMARK    9  A    between atoms: C_20  and  C_12 
REMARK   10  A    between atoms: O_60  and  C_12 
REMARK   11  A    between atoms: C_28  and  C_14 
REMARK   12  A    between atoms: N_45  and  C_16 
REMARK   13  A    between atoms: C_31  and  C_18 
REMARK   14  A    between atoms: C_18  and  N_41 
REMARK       I    between atoms: N_45  and  C_21 
REMARK   15  A    between atoms: O_49  and  C_22 
REMARK   16  A    between atoms: C_27  and  C_24 
REMARK   17  A    between atoms: C_25  and  O_50 
REMARK   18  A    between atoms: C_26  and  O_51 
REMARK   19  A    between atoms: N_33  and  C_27 
REMARK   20  A    between atoms: O_52  and  C_27 
REMARK       I    between atoms: N_41  and  C_28 
REMARK   21  A    between atoms: O_54  and  C_29 
REMARK   22  A    between atoms: C_30  and  N_46 
REMARK   23  A    between atoms: O_56  and  C_31 
REMARK       I    between atoms: N_35  and  C_32 
REMARK   24  A    between atoms: P_62  and  O_58 
REMARK   25  A    between atoms: P_62  and  O_60 
ROOT
HETATM    1  O   UNK N   1      24.385  13.069  10.566  0.00  0.00    -0.307 OA
HETATM    2  O   UNK N   1      25.191  13.067   8.044  0.00  0.00    -0.632 OA
HETATM    3  P   UNK N   1      23.921  12.847   8.904  0.00  0.00     0.390 P 
HETATM    4  H   UNK N   1      24.727  13.274  11.450  0.00  0.00     0.222 HD
ENDROOT
BRANCH   3   5
HETATM    5  O   UNK N   1      23.422  11.202   8.643  0.00  0.00    -0.307 OA
HETATM    6  H   UNK N   1      23.613  10.653   7.867  0.00  0.00     0.222 HD
ENDBRANCH   3   5
BRANCH   3   7
HETATM    7  O   UNK N   1      22.694  13.983   8.366  0.00  0.00    -0.294 OA
BRANCH   7   8
HETATM    8  C   UNK N   1      23.182  14.569   7.189  0.00  0.00     0.215 C 
BRANCH   8   9
HETATM    9  C   UNK N   1      22.369  15.786   6.714  0.00  0.00     0.180 C 
HETATM   10  C   UNK N   1      21.006  15.929   7.395  0.00  0.00     0.182 C 
HETATM   11  C   UNK N   1      20.451  16.978   6.532  0.00  0.00     0.198 C 
HETATM   12  C   UNK N   1      20.848  16.421   5.157  0.00  0.00     0.261 C 
HETATM   13  O   UNK N   1      22.153  15.865   5.305  0.00  0.00    -0.353 OA
BRANCH  10  14
HETATM   14  O   UNK N   1      20.212  14.783   7.233  0.00  0.00    -0.390 OA
HETATM   15  H   UNK N   1      19.738  14.018   6.870  0.00  0.00     0.210 HD
ENDBRANCH  10  14
BRANCH  11  16
HETATM   16  O   UNK N   1      21.111  18.191   6.797  0.00  0.00    -0.388 OA
HETATM   17  H   UNK N   1      21.395  19.104   6.956  0.00  0.00     0.210 HD
ENDBRANCH  11  16
BRANCH  12  18
HETATM   18  N   UNK N   1      20.711  17.341   3.997  0.00  0.00    -0.311 N 
HETATM   19  C   UNK N   1      19.555  17.505   3.319  0.00  0.00     0.186 A 
HETATM   20  N   UNK N   1      19.581  18.612   2.547  0.00  0.00    -0.347 N 
HETATM   21  C   UNK N   1      20.770  19.201   2.782  0.00  0.00     0.111 A 
ATOM     22  HN  UNK N   1      18.850  18.937   1.915  1.00  0.00     0.167 HD
HETATM   23  C   UNK N   1      21.488  18.414   3.679  0.00  0.00     0.069 A 
BRANCH  21  24
HETATM   24  C   UNK N   1      21.150  20.472   2.138  0.00  0.00     0.163 C 
BRANCH  24  25
HETATM   25  N   UNK N   1      20.786  20.716   0.933  0.00  0.00    -0.378 N 
HETATM   26  H   UNK N   1      19.841  20.658   0.663  0.00  0.00     0.158 HD
ATOM     27  HN  UNK N   1      21.489  20.974   0.241  1.00  0.00     0.158 HD
ENDBRANCH  24  25
BRANCH  24  28
HETATM   28  O   UNK N   1      21.883  21.376   2.794  0.00  0.00    -0.345 OA
HETATM   29  H   UNK N   1      22.262  22.113   2.357  0.00  0.00     0.219 HD
ENDBRANCH  24  28
ENDBRANCH  21  24
BRANCH  23  30
HETATM   30  C   UNK N   1      22.821  18.628   4.302  0.00  0.00     0.038 C 
BRANCH  30  31
HETATM   31  C   UNK N   1      24.020  18.543   3.741  0.00  0.00     0.077 C 
BRANCH  31  32
HETATM   32  C   UNK N   1      25.247  18.842   4.580  0.00  0.00     0.248 C 
HETATM   33  N   UNK N   1      26.428  18.150   4.388  0.00  0.00    -0.309 N 
HETATM   34  O   UNK N   1      25.178  19.774   5.360  0.00  0.00    -0.268 OA
BRANCH  33  35
HETATM   35  C   UNK N   1      27.774  18.727   4.586  0.00  0.00     0.189 C 
BRANCH  35  36
HETATM   36  C   UNK N   1      28.630  18.216   5.729  0.00  0.00     0.028 A 
HETATM   37  C   UNK N   1      28.264  18.528   7.042  0.00  0.00     0.029 A 
HETATM   38  C   UNK N   1      29.095  18.146   8.101  0.00  0.00     0.034 A 
HETATM   39  C   UNK N   1      30.299  17.497   7.832  0.00  0.00     0.080 A 
HETATM   40  C   UNK N   1      30.624  17.174   6.507  0.00  0.00     0.112 A 
HETATM   41  N   UNK N   1      31.175  17.216   8.831  0.00  0.00    -0.190 N 
HETATM   42  C   UNK N   1      31.863  16.584   6.246  0.00  0.00     0.184 A 
HETATM   43  N   UNK N   1      29.765  17.495   5.500  0.00  0.00    -0.353 N 
HETATM   44  N   UNK N   1      32.716  16.334   7.275  0.00  0.00    -0.169 N 
HETATM   45  C   UNK N   1      32.378  16.641   8.557  0.00  0.00     0.678 A 
ATOM     46  HN  UNK N   1      33.625  15.909   7.084  1.00  0.00     0.186 HD
HETATM   47  N   UNK N   1      33.204  16.411   9.506  0.00  0.00    -0.234 N 
HETATM   48  H   UNK N   1      34.176  16.534   9.403  0.00  0.00     0.174 HD
ATOM     49  HN  UNK N   1      32.844  16.088  10.404  1.00  0.00     0.174 HD
ATOM     50  HN  UNK N   1      29.977  17.187   4.551  1.00  0.00     0.166 HD
HETATM   51  H   UNK N   1      30.939  17.430   9.762  0.00  0.00     0.184 HD
BRANCH  42  52
HETATM   52  O   UNK N   1      32.235  16.298   4.986  0.00  0.00    -0.344 OA
HETATM   53  H   UNK N   1      32.921  16.678   4.473  0.00  0.00     0.219 HD
ENDBRANCH  42  52
ENDBRANCH  35  36
ENDBRANCH  33  35
BRANCH  33  54
HETATM   54  C   UNK N   1      26.297  16.808   3.909  0.00  0.00     0.037 C 
HETATM   55  C   UNK N   1      25.935  15.826   4.842  0.00  0.00     0.031 C 
HETATM   56  C   UNK N   1      25.465  14.612   4.445  0.00  0.00     0.019 C 
HETATM   57  C   UNK N   1      25.390  14.304   3.100  0.00  0.00     0.032 C 
HETATM   58  C   UNK N   1      25.937  15.184   2.143  0.00  0.00     0.019 C 
HETATM   59  C   UNK N   1      26.407  16.452   2.554  0.00  0.00     0.031 C 
BRANCH  57  60
HETATM   60  C   UNK N   1      24.396  13.293   2.736  0.00  0.00     0.252 C 
HETATM   61  N   UNK N   1      23.065  13.542   2.752  0.00  0.00    -0.343 N 
HETATM   62  H   UNK N   1      22.753  14.473   2.833  0.00  0.00     0.163 HD
HETATM   63  O   UNK N   1      24.801  12.151   2.571  0.00  0.00    -0.268 OA
BRANCH  61  64
HETATM   64  C   UNK N   1      22.086  12.471   2.654  0.00  0.00     0.183 C 
BRANCH  64  65
HETATM   65  C   UNK N   1      21.103  12.576   3.828  0.00  0.00     0.046 C 
BRANCH  65  66
HETATM   66  C   UNK N   1      19.754  11.862   3.694  0.00  0.00     0.112 C 
BRANCH  66  67
HETATM   67  C   UNK N   1      18.570  12.764   3.563  0.00  0.00     0.139 C 
HETATM   68  O   UNK N   1      17.538  12.491   4.154  0.00  0.00    -0.650 OA
BRANCH  67  69
HETATM   69  O   UNK N   1      18.664  13.920   2.880  0.00  0.00    -0.776 OA
HETATM   70  H   UNK N   1      18.672  14.781   3.250  0.00  0.00     0.167 HD
ENDBRANCH  67  69
ENDBRANCH  66  67
ENDBRANCH  65  66
ENDBRANCH  64  65
BRANCH  64  71
HETATM   71  C   UNK N   1      21.402  12.341   1.287  0.00  0.00     0.163 C 
HETATM   72  O   UNK N   1      21.478  11.303   0.652  0.00  0.00    -0.648 OA
BRANCH  71  73
HETATM   73  O   UNK N   1      20.779  13.394   0.721  0.00  0.00    -0.775 OA
HETATM   74  H   UNK N   1      20.283  13.394  -0.074  0.00  0.00     0.167 HD
ENDBRANCH  71  73
ENDBRANCH  64  71
ENDBRANCH  61  64
ENDBRANCH  57  60
ENDBRANCH  33  54
ENDBRANCH  31  32
ENDBRANCH  30  31
ENDBRANCH  23  30
ENDBRANCH  12  18
ENDBRANCH   8   9
ENDBRANCH   7   8
ENDBRANCH   3   7
TORSDOF 25
ENDMDL
MODEL 6
REMARK VINA RESULT:      -7.6      7.207     14.291
REMARK  25 active torsions:
REMARK  status: ('A' for Active; 'I' for Inactive)
REMARK    1  A    between atoms: C_10  and  C_7 
REMARK    2  A    between atoms: C_18  and  C_7 
REMARK    3  A    between atoms: C_9  and  C_8 
REMARK    4  A    between atoms: C_19  and  C_8 
REMARK    5  A    between atoms: C_21  and  C_9 
REMARK    6  A    between atoms: C_22  and  C_10 
REMARK    7  A    between atoms: C_15  and  C_11 
REMARK    8  A    between atoms: N_45  and  C_11 
REMARK    9  A    between atoms: C_20  and  C_12 
REMARK   10  A    between atoms: O_60  and  C_12 
REMARK   11  A    between atoms: C_28  and  C_14 
REMARK   12  A    between atoms: N_45  and  C_16 
REMARK   13  A    between atoms: C_31  and  C_18 
REMARK   14  A    between atoms: C_18  and  N_41 
REMARK       I    between atoms: N_45  and  C_21 
REMARK   15  A    between atoms: O_49  and  C_22 
REMARK   16  A    between atoms: C_27  and  C_24 
REMARK   17  A    between atoms: C_25  and  O_50 
REMARK   18  A    between atoms: C_26  and  O_51 
REMARK   19  A    between atoms: N_33  and  C_27 
REMARK   20  A    between atoms: O_52  and  C_27 
REMARK       I    between atoms: N_41  and  C_28 
REMARK   21  A    between atoms: O_54  and  C_29 
REMARK   22  A    between atoms: C_30  and  N_46 
REMARK   23  A    between atoms: O_56  and  C_31 
REMARK       I    between atoms: N_35  and  C_32 
REMARK   24  A    between atoms: P_62  and  O_58 
REMARK   25  A    between atoms: P_62  and  O_60 
ROOT
HETATM    1  O   UNK N   1      31.736  13.894   6.532  0.00  0.00    -0.307 OA
HETATM    2  O   UNK N   1      30.442  13.345   4.289  0.00  0.00    -0.632 OA
HETATM    3  P   UNK N   1      31.878  13.559   4.832  0.00  0.00     0.390 P 
HETATM    4  H   UNK N   1      31.557  14.008   7.479  0.00  0.00     0.222 HD
ENDROOT
BRANCH   3   5
HETATM    5  O   UNK N   1      32.521  14.947   4.005  0.00  0.00    -0.307 OA
HETATM    6  H   UNK N   1      32.620  15.843   4.364  0.00  0.00     0.222 HD
ENDBRANCH   3   5
BRANCH   3   7
HETATM    7  O   UNK N   1      32.815  12.114   4.482  0.00  0.00    -0.294 OA
BRANCH   7   8
HETATM    8  C   UNK N   1      32.298  11.097   5.298  0.00  0.00     0.215 C 
BRANCH   8   9
HETATM    9  C   UNK N   1      33.283  10.594   6.368  0.00  0.00     0.180 C 
HETATM   10  C   UNK N   1      32.786   9.375   7.149  0.00  0.00     0.182 C 
HETATM   11  C   UNK N   1      33.814   9.366   8.196  0.00  0.00     0.198 C 
HETATM   12  C   UNK N   1      33.839  10.860   8.550  0.00  0.00     0.261 C 
HETATM   13  O   UNK N   1      33.701  11.570   7.321  0.00  0.00    -0.353 OA
BRANCH  10  14
HETATM   14  O   UNK N   1      31.550   9.614   7.770  0.00  0.00    -0.390 OA
HETATM   15  H   UNK N   1      30.811  10.008   8.260  0.00  0.00     0.210 HD
ENDBRANCH  10  14
BRANCH  11  16
HETATM   16  O   UNK N   1      35.038   8.957   7.638  0.00  0.00    -0.388 OA
HETATM   17  H   UNK N   1      35.932   8.857   7.276  0.00  0.00     0.210 HD
ENDBRANCH  11  16
BRANCH  12  18
HETATM   18  N   UNK N   1      34.968  11.329   9.396  0.00  0.00    -0.311 N 
HETATM   19  C   UNK N   1      35.316  10.733  10.556  0.00  0.00     0.186 A 
HETATM   20  N   UNK N   1      36.548  11.110  10.962  0.00  0.00    -0.347 N 
HETATM   21  C   UNK N   1      37.020  11.931  10.003  0.00  0.00     0.111 A 
ATOM     22  HN  UNK N   1      37.024  10.831  11.819  1.00  0.00     0.167 HD
HETATM   23  C   UNK N   1      36.041  12.081   9.024  0.00  0.00     0.069 A 
BRANCH  21  24
HETATM   24  C   UNK N   1      38.368  12.521  10.078  0.00  0.00     0.163 C 
BRANCH  24  25
HETATM   25  N   UNK N   1      39.357  11.942   9.502  0.00  0.00    -0.378 N 
HETATM   26  H   UNK N   1      39.523  12.053   8.537  0.00  0.00     0.158 HD
ATOM     27  HN  UNK N   1      39.982  11.354  10.053  1.00  0.00     0.158 HD
ENDBRANCH  24  25
BRANCH  24  28
HETATM   28  O   UNK N   1      38.580  13.655  10.752  0.00  0.00    -0.345 OA
HETATM   29  H   UNK N   1      37.974  13.968  11.394  0.00  0.00     0.219 HD
ENDBRANCH  24  28
ENDBRANCH  21  24
BRANCH  23  30
HETATM   30  C   UNK N   1      36.064  12.831   7.739  0.00  0.00     0.038 C 
BRANCH  30  31
HETATM   31  C   UNK N   1      36.233  14.132   7.544  0.00  0.00     0.077 C 
BRANCH  31  32
HETATM   32  C   UNK N   1      35.067  14.954   7.029  0.00  0.00     0.248 C 
HETATM   33  N   UNK N   1      34.508  15.959   7.798  0.00  0.00    -0.309 N 
HETATM   34  O   UNK N   1      34.705  14.758   5.884  0.00  0.00    -0.268 OA
BRANCH  33  35
HETATM   35  C   UNK N   1      33.916  17.197   7.249  0.00  0.00     0.189 C 
BRANCH  35  36
HETATM   36  C   UNK N   1      32.408  17.352   7.254  0.00  0.00     0.028 A 
HETATM   37  C   UNK N   1      31.762  17.670   8.452  0.00  0.00     0.029 A 
HETATM   38  C   UNK N   1      30.364  17.722   8.493  0.00  0.00     0.034 A 
HETATM   39  C   UNK N   1      29.631  17.415   7.348  0.00  0.00     0.080 A 
HETATM   40  C   UNK N   1      30.308  17.127   6.155  0.00  0.00     0.112 A 
HETATM   41  N   UNK N   1      28.274  17.348   7.389  0.00  0.00    -0.190 N 
HETATM   42  C   UNK N   1      29.562  16.757   5.033  0.00  0.00     0.184 A 
HETATM   43  N   UNK N   1      31.669  17.152   6.124  0.00  0.00    -0.353 N 
HETATM   44  N   UNK N   1      28.206  16.688   5.123  0.00  0.00    -0.169 N 
HETATM   45  C   UNK N   1      27.565  16.985   6.286  0.00  0.00     0.678 A 
ATOM     46  HN  UNK N   1      27.661  16.410   4.306  1.00  0.00     0.186 HD
HETATM   47  N   UNK N   1      26.290  16.897   6.350  0.00  0.00    -0.234 N 
HETATM   48  H   UNK N   1      25.784  16.191   5.888  0.00  0.00     0.174 HD
ATOM     49  HN  UNK N   1      25.778  17.586   6.901  1.00  0.00     0.174 HD
ATOM     50  HN  UNK N   1      32.147  17.016   5.233  1.00  0.00     0.166 HD
HETATM   51  H   UNK N   1      27.800  17.565   8.224  0.00  0.00     0.184 HD
BRANCH  42  52
HETATM   52  O   UNK N   1      30.171  16.429   3.881  0.00  0.00    -0.344 OA
HETATM   53  H   UNK N   1      29.882  16.568   3.000  0.00  0.00     0.219 HD
ENDBRANCH  42  52
ENDBRANCH  35  36
ENDBRANCH  33  35
BRANCH  33  54
HETATM   54  C   UNK N   1      34.583  15.777   9.215  0.00  0.00     0.037 C 
HETATM   55  C   UNK N   1      33.764  14.790   9.780  0.00  0.00     0.031 C 
HETATM   56  C   UNK N   1      33.992  14.313  11.034  0.00  0.00     0.019 C 
HETATM   57  C   UNK N   1      35.012  14.842  11.801  0.00  0.00     0.032 C 
HETATM   58  C   UNK N   1      35.722  15.974  11.348  0.00  0.00     0.019 C 
HETATM   59  C   UNK N   1      35.498  16.456  10.038  0.00  0.00     0.031 C 
BRANCH  57  60
HETATM   60  C   UNK N   1      35.555  13.955  12.832  0.00  0.00     0.252 C 
HETATM   61  N   UNK N   1      34.764  13.231  13.659  0.00  0.00    -0.343 N 
HETATM   62  H   UNK N   1      33.804  13.150  13.454  0.00  0.00     0.163 HD
HETATM   63  O   UNK N   1      36.759  14.012  13.034  0.00  0.00    -0.268 OA
BRANCH  61  64
HETATM   64  C   UNK N   1      35.297  12.571  14.841  0.00  0.00     0.183 C 
BRANCH  64  65
HETATM   65  C   UNK N   1      34.497  13.021  16.072  0.00  0.00     0.046 C 
BRANCH  65  66
HETATM   66  C   UNK N   1      35.286  13.478  17.305  0.00  0.00     0.112 C 
BRANCH  66  67
HETATM   67  C   UNK N   1      35.221  12.552  18.476  0.00  0.00     0.139 C 
HETATM   68  O   UNK N   1      35.185  11.347  18.289  0.00  0.00    -0.650 OA
BRANCH  67  69
HETATM   69  O   UNK N   1      35.300  13.032  19.731  0.00  0.00    -0.776 OA
HETATM   70  H   UNK N   1      35.486  13.918  19.973  0.00  0.00     0.167 HD
ENDBRANCH  67  69
ENDBRANCH  66  67
ENDBRANCH  65  66
ENDBRANCH  64  65
BRANCH  64  71
HETATM   71  C   UNK N   1      35.445  11.049  14.723  0.00  0.00     0.163 C 
HETATM   72  O   UNK N   1      36.253  10.563  13.951  0.00  0.00    -0.648 OA
BRANCH  71  73
HETATM   73  O   UNK N   1      34.629  10.220  15.403  0.00  0.00    -0.775 OA
HETATM   74  H   UNK N   1      34.883   9.505  15.954  0.00  0.00     0.167 HD
ENDBRANCH  71  73
ENDBRANCH  64  71
ENDBRANCH  61  64
ENDBRANCH  57  60
ENDBRANCH  33  54
ENDBRANCH  31  32
ENDBRANCH  30  31
ENDBRANCH  23  30
ENDBRANCH  12  18
ENDBRANCH   8   9
ENDBRANCH   7   8
ENDBRANCH   3   7
TORSDOF 25
ENDMDL
MODEL 7
REMARK VINA RESULT:      -7.5      3.166      7.482
REMARK  25 active torsions:
REMARK  status: ('A' for Active; 'I' for Inactive)
REMARK    1  A    between atoms: C_10  and  C_7 
REMARK    2  A    between atoms: C_18  and  C_7 
REMARK    3  A    between atoms: C_9  and  C_8 
REMARK    4  A    between atoms: C_19  and  C_8 
REMARK    5  A    between atoms: C_21  and  C_9 
REMARK    6  A    between atoms: C_22  and  C_10 
REMARK    7  A    between atoms: C_15  and  C_11 
REMARK    8  A    between atoms: N_45  and  C_11 
REMARK    9  A    between atoms: C_20  and  C_12 
REMARK   10  A    between atoms: O_60  and  C_12 
REMARK   11  A    between atoms: C_28  and  C_14 
REMARK   12  A    between atoms: N_45  and  C_16 
REMARK   13  A    between atoms: C_31  and  C_18 
REMARK   14  A    between atoms: C_18  and  N_41 
REMARK       I    between atoms: N_45  and  C_21 
REMARK   15  A    between atoms: O_49  and  C_22 
REMARK   16  A    between atoms: C_27  and  C_24 
REMARK   17  A    between atoms: C_25  and  O_50 
REMARK   18  A    between atoms: C_26  and  O_51 
REMARK   19  A    between atoms: N_33  and  C_27 
REMARK   20  A    between atoms: O_52  and  C_27 
REMARK       I    between atoms: N_41  and  C_28 
REMARK   21  A    between atoms: O_54  and  C_29 
REMARK   22  A    between atoms: C_30  and  N_46 
REMARK   23  A    between atoms: O_56  and  C_31 
REMARK       I    between atoms: N_35  and  C_32 
REMARK   24  A    between atoms: P_62  and  O_58 
REMARK   25  A    between atoms: P_62  and  O_60 
ROOT
HETATM    1  O   UNK N   1      24.047  13.147  10.588  0.00  0.00    -0.307 OA
HETATM    2  O   UNK N   1      22.937  10.844   9.906  0.00  0.00    -0.632 OA
HETATM    3  P   UNK N   1      22.653  12.119  10.739  0.00  0.00     0.390 P 
HETATM    4  H   UNK N   1      24.839  13.672  10.391  0.00  0.00     0.222 HD
ENDROOT
BRANCH   3   5
HETATM    5  O   UNK N   1      22.471  11.606  12.390  0.00  0.00    -0.307 OA
HETATM    6  H   UNK N   1      22.115  12.129  13.126  0.00  0.00     0.222 HD
ENDBRANCH   3   5
BRANCH   3   7
HETATM    7  O   UNK N   1      21.177  12.852  10.129  0.00  0.00    -0.294 OA
BRANCH   7   8
HETATM    8  C   UNK N   1      21.550  14.070   9.542  0.00  0.00     0.215 C 
BRANCH   8   9
HETATM    9  C   UNK N   1      21.491  14.066   8.005  0.00  0.00     0.180 C 
HETATM   10  C   UNK N   1      22.732  13.472   7.334  0.00  0.00     0.182 C 
HETATM   11  C   UNK N   1      22.436  13.874   5.954  0.00  0.00     0.198 C 
HETATM   12  C   UNK N   1      22.008  15.329   6.194  0.00  0.00     0.261 C 
HETATM   13  O   UNK N   1      21.245  15.335   7.399  0.00  0.00    -0.353 OA
BRANCH  10  14
HETATM   14  O   UNK N   1      23.908  14.129   7.725  0.00  0.00    -0.390 OA
HETATM   15  H   UNK N   1      24.692  14.701   7.761  0.00  0.00     0.210 HD
ENDBRANCH  10  14
BRANCH  11  16
HETATM   16  O   UNK N   1      21.365  13.104   5.469  0.00  0.00    -0.388 OA
HETATM   17  H   UNK N   1      20.535  12.740   5.123  0.00  0.00     0.210 HD
ENDBRANCH  11  16
BRANCH  12  18
HETATM   18  N   UNK N   1      21.349  16.029   5.059  0.00  0.00    -0.311 N 
HETATM   19  C   UNK N   1      20.040  15.883   4.765  0.00  0.00     0.186 A 
HETATM   20  N   UNK N   1      19.605  16.851   3.930  0.00  0.00    -0.347 N 
HETATM   21  C   UNK N   1      20.658  17.669   3.728  0.00  0.00     0.111 A 
ATOM     22  HN  UNK N   1      18.671  16.945   3.532  1.00  0.00     0.167 HD
HETATM   23  C   UNK N   1      21.754  17.163   4.421  0.00  0.00     0.069 A 
BRANCH  21  24
HETATM   24  C   UNK N   1      20.556  18.876   2.889  0.00  0.00     0.163 C 
BRANCH  24  25
HETATM   25  N   UNK N   1      19.441  19.179   2.331  0.00  0.00    -0.378 N 
HETATM   26  H   UNK N   1      18.758  18.494   2.149  0.00  0.00     0.158 HD
ATOM     27  HN  UNK N   1      19.260  20.148   2.070  1.00  0.00     0.158 HD
ENDBRANCH  24  25
BRANCH  24  28
HETATM   28  O   UNK N   1      21.618  19.662   2.692  0.00  0.00    -0.345 OA
HETATM   29  H   UNK N   1      21.877  20.308   3.319  0.00  0.00     0.219 HD
ENDBRANCH  24  28
ENDBRANCH  21  24
BRANCH  23  30
HETATM   30  C   UNK N   1      23.133  17.698   4.575  0.00  0.00     0.038 C 
BRANCH  30  31
HETATM   31  C   UNK N   1      24.236  17.051   4.927  0.00  0.00     0.077 C 
BRANCH  31  32
HETATM   32  C   UNK N   1      25.091  16.415   3.848  0.00  0.00     0.248 C 
HETATM   33  N   UNK N   1      26.398  16.041   4.101  0.00  0.00    -0.309 N 
HETATM   34  O   UNK N   1      24.555  16.164   2.785  0.00  0.00    -0.268 OA
BRANCH  33  35
HETATM   35  C   UNK N   1      27.071  14.886   3.471  0.00  0.00     0.189 C 
BRANCH  35  36
HETATM   36  C   UNK N   1      28.535  14.637   3.774  0.00  0.00     0.028 A 
HETATM   37  C   UNK N   1      28.883  13.579   4.620  0.00  0.00     0.029 A 
HETATM   38  C   UNK N   1      30.221  13.396   4.986  0.00  0.00     0.034 A 
HETATM   39  C   UNK N   1      31.187  14.295   4.535  0.00  0.00     0.080 A 
HETATM   40  C   UNK N   1      30.811  15.328   3.666  0.00  0.00     0.112 A 
HETATM   41  N   UNK N   1      32.473  14.206   4.965  0.00  0.00    -0.190 N 
HETATM   42  C   UNK N   1      31.776  16.260   3.277  0.00  0.00     0.184 A 
HETATM   43  N   UNK N   1      29.514  15.443   3.270  0.00  0.00    -0.353 N 
HETATM   44  N   UNK N   1      33.049  16.142   3.743  0.00  0.00    -0.169 N 
HETATM   45  C   UNK N   1      33.398  15.123   4.575  0.00  0.00     0.678 A 
ATOM     46  HN  UNK N   1      33.753  16.826   3.465  1.00  0.00     0.186 HD
HETATM   47  N   UNK N   1      34.598  15.042   5.014  0.00  0.00    -0.234 N 
HETATM   48  H   UNK N   1      35.128  15.837   5.254  0.00  0.00     0.174 HD
ATOM     49  HN  UNK N   1      35.021  14.121   5.118  1.00  0.00     0.174 HD
ATOM     50  HN  UNK N   1      29.268  16.152   2.577  1.00  0.00     0.166 HD
HETATM   51  H   UNK N   1      32.737  13.471   5.564  0.00  0.00     0.184 HD
BRANCH  42  52
HETATM   52  O   UNK N   1      31.451  17.293   2.480  0.00  0.00    -0.344 OA
HETATM   53  H   UNK N   1      30.631  17.486   2.070  0.00  0.00     0.219 HD
ENDBRANCH  42  52
ENDBRANCH  35  36
ENDBRANCH  33  35
BRANCH  33  54
HETATM   54  C   UNK N   1      27.089  16.810   5.089  0.00  0.00     0.037 C 
HETATM   55  C   UNK N   1      27.170  16.272   6.381  0.00  0.00     0.031 C 
HETATM   56  C   UNK N   1      28.066  16.744   7.290  0.00  0.00     0.019 C 
HETATM   57  C   UNK N   1      28.881  17.811   6.968  0.00  0.00     0.032 C 
HETATM   58  C   UNK N   1      28.686  18.509   5.758  0.00  0.00     0.019 C 
HETATM   59  C   UNK N   1      27.769  18.007   4.807  0.00  0.00     0.031 C 
BRANCH  57  60
HETATM   60  C   UNK N   1      30.144  17.890   7.706  0.00  0.00     0.252 C 
HETATM   61  N   UNK N   1      31.321  17.478   7.180  0.00  0.00    -0.343 N 
HETATM   62  H   UNK N   1      31.374  17.290   6.215  0.00  0.00     0.163 HD
HETATM   63  O   UNK N   1      30.076  18.191   8.889  0.00  0.00    -0.268 OA
BRANCH  61  64
HETATM   64  C   UNK N   1      32.508  17.309   8.003  0.00  0.00     0.183 C 
BRANCH  64  65
HETATM   65  C   UNK N   1      32.717  15.814   8.285  0.00  0.00     0.046 C 
BRANCH  65  66
HETATM   66  C   UNK N   1      34.076  15.378   8.844  0.00  0.00     0.112 C 
BRANCH  66  67
HETATM   67  C   UNK N   1      34.259  15.602  10.310  0.00  0.00     0.139 C 
HETATM   68  O   UNK N   1      35.069  16.429  10.695  0.00  0.00    -0.650 OA
BRANCH  67  69
HETATM   69  O   UNK N   1      33.472  14.971  11.201  0.00  0.00    -0.776 OA
HETATM   70  H   UNK N   1      33.345  14.046  11.267  0.00  0.00     0.167 HD
ENDBRANCH  67  69
ENDBRANCH  66  67
ENDBRANCH  65  66
ENDBRANCH  64  65
BRANCH  64  71
HETATM   71  C   UNK N   1      33.765  18.020   7.484  0.00  0.00     0.163 C 
HETATM   72  O   UNK N   1      34.401  18.762   8.212  0.00  0.00    -0.648 OA
BRANCH  71  73
HETATM   73  O   UNK N   1      34.141  17.909   6.195  0.00  0.00    -0.775 OA
HETATM   74  H   UNK N   1      34.362  17.120   5.739  0.00  0.00     0.167 HD
ENDBRANCH  71  73
ENDBRANCH  64  71
ENDBRANCH  61  64
ENDBRANCH  57  60
ENDBRANCH  33  54
ENDBRANCH  31  32
ENDBRANCH  30  31
ENDBRANCH  23  30
ENDBRANCH  12  18
ENDBRANCH   8   9
ENDBRANCH   7   8
ENDBRANCH   3   7
TORSDOF 25
ENDMDL
MODEL 8
REMARK VINA RESULT:      -7.5      4.530      9.264
REMARK  25 active torsions:
REMARK  status: ('A' for Active; 'I' for Inactive)
REMARK    1  A    between atoms: C_10  and  C_7 
REMARK    2  A    between atoms: C_18  and  C_7 
REMARK    3  A    between atoms: C_9  and  C_8 
REMARK    4  A    between atoms: C_19  and  C_8 
REMARK    5  A    between atoms: C_21  and  C_9 
REMARK    6  A    between atoms: C_22  and  C_10 
REMARK    7  A    between atoms: C_15  and  C_11 
REMARK    8  A    between atoms: N_45  and  C_11 
REMARK    9  A    between atoms: C_20  and  C_12 
REMARK   10  A    between atoms: O_60  and  C_12 
REMARK   11  A    between atoms: C_28  and  C_14 
REMARK   12  A    between atoms: N_45  and  C_16 
REMARK   13  A    between atoms: C_31  and  C_18 
REMARK   14  A    between atoms: C_18  and  N_41 
REMARK       I    between atoms: N_45  and  C_21 
REMARK   15  A    between atoms: O_49  and  C_22 
REMARK   16  A    between atoms: C_27  and  C_24 
REMARK   17  A    between atoms: C_25  and  O_50 
REMARK   18  A    between atoms: C_26  and  O_51 
REMARK   19  A    between atoms: N_33  and  C_27 
REMARK   20  A    between atoms: O_52  and  C_27 
REMARK       I    between atoms: N_41  and  C_28 
REMARK   21  A    between atoms: O_54  and  C_29 
REMARK   22  A    between atoms: C_30  and  N_46 
REMARK   23  A    between atoms: O_56  and  C_31 
REMARK       I    between atoms: N_35  and  C_32 
REMARK   24  A    between atoms: P_62  and  O_58 
REMARK   25  A    between atoms: P_62  and  O_60 
ROOT
HETATM    1  O   UNK N   1      32.250  10.493  -1.585  0.00  0.00    -0.307 OA
HETATM    2  O   UNK N   1      30.069  11.168  -2.924  0.00  0.00    -0.632 OA
HETATM    3  P   UNK N   1      30.557  10.878  -1.482  0.00  0.00     0.390 P 
HETATM    4  H   UNK N   1      33.198  10.355  -1.739  0.00  0.00     0.222 HD
ENDROOT
BRANCH   3   5
HETATM    5  O   UNK N   1      29.667   9.493  -0.924  0.00  0.00    -0.307 OA
HETATM    6  H   UNK N   1      28.756   9.483  -0.589  0.00  0.00     0.222 HD
ENDBRANCH   3   5
BRANCH   3   7
HETATM    7  O   UNK N   1      30.224  12.295  -0.498  0.00  0.00    -0.294 OA
BRANCH   7   8
HETATM    8  C   UNK N   1      29.230  11.919   0.418  0.00  0.00     0.215 C 
BRANCH   8   9
HETATM    9  C   UNK N   1      29.520  12.354   1.866  0.00  0.00     0.180 C 
HETATM   10  C   UNK N   1      28.643  13.508   2.357  0.00  0.00     0.182 C 
HETATM   11  C   UNK N   1      29.362  13.801   3.602  0.00  0.00     0.198 C 
HETATM   12  C   UNK N   1      30.806  13.772   3.081  0.00  0.00     0.261 C 
HETATM   13  O   UNK N   1      30.877  12.704   2.139  0.00  0.00    -0.353 OA
BRANCH  10  14
HETATM   14  O   UNK N   1      28.746  14.638   1.532  0.00  0.00    -0.390 OA
HETATM   15  H   UNK N   1      28.885  15.534   1.187  0.00  0.00     0.210 HD
ENDBRANCH  10  14
BRANCH  11  16
HETATM   16  O   UNK N   1      29.135  12.762   4.522  0.00  0.00    -0.388 OA
HETATM   17  H   UNK N   1      29.159  12.001   5.121  0.00  0.00     0.210 HD
ENDBRANCH  11  16
BRANCH  12  18
HETATM   18  N   UNK N   1      31.886  13.749   4.103  0.00  0.00    -0.311 N 
HETATM   19  C   UNK N   1      32.536  12.622   4.462  0.00  0.00     0.186 A 
HETATM   20  N   UNK N   1      33.674  12.894   5.135  0.00  0.00    -0.347 N 
HETATM   21  C   UNK N   1      33.780  14.237   5.159  0.00  0.00     0.111 A 
ATOM     22  HN  UNK N   1      34.323  12.220   5.542  1.00  0.00     0.167 HD
HETATM   23  C   UNK N   1      32.667  14.783   4.525  0.00  0.00     0.069 A 
BRANCH  21  24
HETATM   24  C   UNK N   1      34.929  14.917   5.784  0.00  0.00     0.163 C 
BRANCH  24  25
HETATM   25  N   UNK N   1      35.856  14.229   6.342  0.00  0.00    -0.378 N 
HETATM   26  H   UNK N   1      35.700  13.301   6.633  0.00  0.00     0.158 HD
ATOM     27  HN  UNK N   1      36.773  14.652   6.489  1.00  0.00     0.158 HD
ENDBRANCH  24  25
BRANCH  24  28
HETATM   28  O   UNK N   1      35.014  16.250   5.786  0.00  0.00    -0.345 OA
HETATM   29  H   UNK N   1      34.345  16.788   5.412  0.00  0.00     0.219 HD
ENDBRANCH  24  28
ENDBRANCH  21  24
BRANCH  23  30
HETATM   30  C   UNK N   1      32.314  16.199   4.235  0.00  0.00     0.038 C 
BRANCH  30  31
HETATM   31  C   UNK N   1      31.491  16.998   4.900  0.00  0.00     0.077 C 
BRANCH  31  32
HETATM   32  C   UNK N   1      31.769  17.287   6.363  0.00  0.00     0.248 C 
HETATM   33  N   UNK N   1      30.816  17.034   7.333  0.00  0.00    -0.309 N 
HETATM   34  O   UNK N   1      32.889  17.658   6.657  0.00  0.00    -0.268 OA
BRANCH  33  35
HETATM   35  C   UNK N   1      31.126  16.618   8.717  0.00  0.00     0.189 C 
BRANCH  35  36
HETATM   36  C   UNK N   1      32.394  15.829   8.978  0.00  0.00     0.028 A 
HETATM   37  C   UNK N   1      32.381  14.443   8.794  0.00  0.00     0.029 A 
HETATM   38  C   UNK N   1      33.514  13.690   9.123  0.00  0.00     0.034 A 
HETATM   39  C   UNK N   1      34.627  14.326   9.670  0.00  0.00     0.080 A 
HETATM   40  C   UNK N   1      34.620  15.720   9.816  0.00  0.00     0.112 A 
HETATM   41  N   UNK N   1      35.696  13.606  10.102  0.00  0.00    -0.190 N 
HETATM   42  C   UNK N   1      35.715  16.335  10.426  0.00  0.00     0.184 A 
HETATM   43  N   UNK N   1      33.532  16.437   9.423  0.00  0.00    -0.353 N 
HETATM   44  N   UNK N   1      36.757  15.574  10.858  0.00  0.00    -0.169 N 
HETATM   45  C   UNK N   1      36.753  14.223  10.694  0.00  0.00     0.678 A 
ATOM     46  HN  UNK N   1      37.554  16.023  11.310  1.00  0.00     0.186 HD
HETATM   47  N   UNK N   1      37.738  13.527  11.123  0.00  0.00    -0.234 N 
HETATM   48  H   UNK N   1      38.209  13.738  11.961  0.00  0.00     0.174 HD
ATOM     49  HN  UNK N   1      38.046  12.724  10.576  1.00  0.00     0.174 HD
ATOM     50  HN  UNK N   1      33.569  17.456   9.464  1.00  0.00     0.166 HD
HETATM   51  H   UNK N   1      35.705  12.628   9.985  0.00  0.00     0.184 HD
BRANCH  42  52
HETATM   52  O   UNK N   1      35.732  17.664  10.627  0.00  0.00    -0.344 OA
HETATM   53  H   UNK N   1      35.028  18.233  10.871  0.00  0.00     0.219 HD
ENDBRANCH  42  52
ENDBRANCH  35  36
ENDBRANCH  33  35
BRANCH  33  54
HETATM   54  C   UNK N   1      29.453  17.134   6.912  0.00  0.00     0.037 C 
HETATM   55  C   UNK N   1      28.860  18.404   6.955  0.00  0.00     0.031 C 
HETATM   56  C   UNK N   1      27.709  18.670   6.280  0.00  0.00     0.019 C 
HETATM   57  C   UNK N   1      27.068  17.667   5.580  0.00  0.00     0.032 C 
HETATM   58  C   UNK N   1      27.520  16.335   5.685  0.00  0.00     0.019 C 
HETATM   59  C   UNK N   1      28.726  16.062   6.369  0.00  0.00     0.031 C 
BRANCH  57  60
HETATM   60  C   UNK N   1      26.225  18.108   4.468  0.00  0.00     0.252 C 
HETATM   61  N   UNK N   1      25.143  18.902   4.645  0.00  0.00    -0.343 N 
HETATM   62  H   UNK N   1      25.014  19.350   5.513  0.00  0.00     0.163 HD
HETATM   63  O   UNK N   1      26.435  17.598   3.376  0.00  0.00    -0.268 OA
BRANCH  61  64
HETATM   64  C   UNK N   1      24.167  19.112   3.587  0.00  0.00     0.183 C 
BRANCH  64  65
HETATM   65  C   UNK N   1      22.778  18.693   4.092  0.00  0.00     0.046 C 
BRANCH  65  66
HETATM   66  C   UNK N   1      22.682  18.105   5.504  0.00  0.00     0.112 C 
BRANCH  66  67
HETATM   67  C   UNK N   1      21.300  18.036   6.068  0.00  0.00     0.139 C 
HETATM   68  O   UNK N   1      21.004  18.736   7.022  0.00  0.00    -0.650 OA
BRANCH  67  69
HETATM   69  O   UNK N   1      20.356  17.282   5.473  0.00  0.00    -0.776 OA
HETATM   70  H   UNK N   1      19.583  16.943   5.880  0.00  0.00     0.167 HD
ENDBRANCH  67  69
ENDBRANCH  66  67
ENDBRANCH  65  66
ENDBRANCH  64  65
BRANCH  64  71
HETATM   71  C   UNK N   1      24.196  20.504   2.944  0.00  0.00     0.163 C 
HETATM   72  O   UNK N   1      23.216  21.228   2.989  0.00  0.00    -0.648 OA
BRANCH  71  73
HETATM   73  O   UNK N   1      25.269  20.921   2.243  0.00  0.00    -0.775 OA
HETATM   74  H   UNK N   1      25.738  21.724   2.356  0.00  0.00     0.167 HD
ENDBRANCH  71  73
ENDBRANCH  64  71
ENDBRANCH  61  64
ENDBRANCH  57  60
ENDBRANCH  33  54
ENDBRANCH  31  32
ENDBRANCH  30  31
ENDBRANCH  23  30
ENDBRANCH  12  18
ENDBRANCH   8   9
ENDBRANCH   7   8
ENDBRANCH   3   7
TORSDOF 25
ENDMDL
MODEL 9
REMARK VINA RESULT:      -7.5      4.376      9.134
REMARK  25 active torsions:
REMARK  status: ('A' for Active; 'I' for Inactive)
REMARK    1  A    between atoms: C_10  and  C_7 
REMARK    2  A    between atoms: C_18  and  C_7 
REMARK    3  A    between atoms: C_9  and  C_8 
REMARK    4  A    between atoms: C_19  and  C_8 
REMARK    5  A    between atoms: C_21  and  C_9 
REMARK    6  A    between atoms: C_22  and  C_10 
REMARK    7  A    between atoms: C_15  and  C_11 
REMARK    8  A    between atoms: N_45  and  C_11 
REMARK    9  A    between atoms: C_20  and  C_12 
REMARK   10  A    between atoms: O_60  and  C_12 
REMARK   11  A    between atoms: C_28  and  C_14 
REMARK   12  A    between atoms: N_45  and  C_16 
REMARK   13  A    between atoms: C_31  and  C_18 
REMARK   14  A    between atoms: C_18  and  N_41 
REMARK       I    between atoms: N_45  and  C_21 
REMARK   15  A    between atoms: O_49  and  C_22 
REMARK   16  A    between atoms: C_27  and  C_24 
REMARK   17  A    between atoms: C_25  and  O_50 
REMARK   18  A    between atoms: C_26  and  O_51 
REMARK   19  A    between atoms: N_33  and  C_27 
REMARK   20  A    between atoms: O_52  and  C_27 
REMARK       I    between atoms: N_41  and  C_28 
REMARK   21  A    between atoms: O_54  and  C_29 
REMARK   22  A    between atoms: C_30  and  N_46 
REMARK   23  A    between atoms: O_56  and  C_31 
REMARK       I    between atoms: N_35  and  C_32 
REMARK   24  A    between atoms: P_62  and  O_58 
REMARK   25  A    between atoms: P_62  and  O_60 
ROOT
HETATM    1  O   UNK N   1      36.812  14.351  13.028  0.00  0.00    -0.307 OA
HETATM    2  O   UNK N   1      36.376  13.341  10.620  0.00  0.00    -0.632 OA
HETATM    3  P   UNK N   1      35.908  14.490  11.549  0.00  0.00     0.390 P 
HETATM    4  H   UNK N   1      37.408  14.228  13.783  0.00  0.00     0.222 HD
ENDROOT
BRANCH   3   5
HETATM    5  O   UNK N   1      34.219  14.221  11.861  0.00  0.00    -0.307 OA
HETATM    6  H   UNK N   1      33.569  13.838  11.250  0.00  0.00     0.222 HD
ENDBRANCH   3   5
BRANCH   3   7
HETATM    7  O   UNK N   1      36.171  16.011  10.711  0.00  0.00    -0.294 OA
BRANCH   7   8
HETATM    8  C   UNK N   1      34.902  16.512  10.385  0.00  0.00     0.215 C 
BRANCH   8   9
HETATM    9  C   UNK N   1      34.677  16.706   8.875  0.00  0.00     0.180 C 
HETATM   10  C   UNK N   1      33.484  17.600   8.532  0.00  0.00     0.182 C 
HETATM   11  C   UNK N   1      33.431  17.334   7.091  0.00  0.00     0.198 C 
HETATM   12  C   UNK N   1      33.586  15.807   7.102  0.00  0.00     0.261 C 
HETATM   13  O   UNK N   1      34.540  15.503   8.119  0.00  0.00    -0.353 OA
BRANCH  10  14
HETATM   14  O   UNK N   1      32.289  17.125   9.096  0.00  0.00    -0.390 OA
HETATM   15  H   UNK N   1      31.360  16.993   9.342  0.00  0.00     0.210 HD
ENDBRANCH  10  14
BRANCH  11  16
HETATM   16  O   UNK N   1      34.530  17.950   6.467  0.00  0.00    -0.388 OA
HETATM   17  H   UNK N   1      35.227  18.531   6.125  0.00  0.00     0.210 HD
ENDBRANCH  11  16
BRANCH  12  18
HETATM   18  N   UNK N   1      33.866  15.152   5.797  0.00  0.00    -0.311 N 
HETATM   19  C   UNK N   1      34.724  14.118   5.660  0.00  0.00     0.186 A 
HETATM   20  N   UNK N   1      34.560  13.487   4.478  0.00  0.00    -0.347 N 
HETATM   21  C   UNK N   1      33.531  14.105   3.865  0.00  0.00     0.111 A 
ATOM     22  HN  UNK N   1      35.105  12.702   4.121  1.00  0.00     0.167 HD
HETATM   23  C   UNK N   1      33.094  15.150   4.674  0.00  0.00     0.069 A 
BRANCH  21  24
HETATM   24  C   UNK N   1      33.030  13.664   2.551  0.00  0.00     0.163 C 
BRANCH  24  25
HETATM   25  N   UNK N   1      31.878  13.108   2.456  0.00  0.00    -0.378 N 
HETATM   26  H   UNK N   1      31.752  12.155   2.670  0.00  0.00     0.158 HD
ATOM     27  HN  UNK N   1      31.079  13.663   2.151  1.00  0.00     0.158 HD
ENDBRANCH  24  25
BRANCH  24  28
HETATM   28  O   UNK N   1      33.768  13.829   1.449  0.00  0.00    -0.345 OA
HETATM   29  H   UNK N   1      34.683  14.021   1.493  0.00  0.00     0.219 HD
ENDBRANCH  24  28
ENDBRANCH  21  24
BRANCH  23  30
HETATM   30  C   UNK N   1      31.969  16.106   4.497  0.00  0.00     0.038 C 
BRANCH  30  31
HETATM   31  C   UNK N   1      30.701  15.968   4.861  0.00  0.00     0.077 C 
BRANCH  31  32
HETATM   32  C   UNK N   1      29.803  17.190   4.873  0.00  0.00     0.248 C 
HETATM   33  N   UNK N   1      28.426  17.064   4.897  0.00  0.00    -0.309 N 
HETATM   34  O   UNK N   1      30.340  18.279   4.954  0.00  0.00    -0.268 OA
BRANCH  33  35
HETATM   35  C   UNK N   1      27.513  18.015   5.565  0.00  0.00     0.189 C 
BRANCH  35  36
HETATM   36  C   UNK N   1      26.277  18.487   4.824  0.00  0.00     0.028 A 
HETATM   37  C   UNK N   1      26.417  19.437   3.807  0.00  0.00     0.029 A 
HETATM   38  C   UNK N   1      25.277  19.953   3.181  0.00  0.00     0.034 A 
HETATM   39  C   UNK N   1      24.014  19.545   3.607  0.00  0.00     0.080 A 
HETATM   40  C   UNK N   1      23.908  18.571   4.609  0.00  0.00     0.112 A 
HETATM   41  N   UNK N   1      22.891  20.113   3.093  0.00  0.00    -0.190 N 
HETATM   42  C   UNK N   1      22.637  18.221   5.072  0.00  0.00     0.184 A 
HETATM   43  N   UNK N   1      25.033  18.033   5.154  0.00  0.00    -0.353 N 
HETATM   44  N   UNK N   1      21.540  18.826   4.540  0.00  0.00    -0.169 N 
HETATM   45  C   UNK N   1      21.662  19.759   3.558  0.00  0.00     0.678 A 
ATOM     46  HN  UNK N   1      20.612  18.576   4.883  1.00  0.00     0.186 HD
HETATM   47  N   UNK N   1      20.616  20.326   3.085  0.00  0.00    -0.234 N 
HETATM   48  H   UNK N   1      19.844  20.565   3.647  0.00  0.00     0.174 HD
ATOM     49  HN  UNK N   1      20.582  20.538   2.088  1.00  0.00     0.174 HD
ATOM     50  HN  UNK N   1      24.943  17.271   5.827  1.00  0.00     0.166 HD
HETATM   51  H   UNK N   1      22.967  20.786   2.380  0.00  0.00     0.184 HD
BRANCH  42  52
HETATM   52  O   UNK N   1      22.490  17.324   6.062  0.00  0.00    -0.344 OA
HETATM   53  H   UNK N   1      22.917  16.498   6.179  0.00  0.00     0.219 HD
ENDBRANCH  42  52
ENDBRANCH  35  36
ENDBRANCH  33  35
BRANCH  33  54
HETATM   54  C   UNK N   1      27.895  15.889   4.277  0.00  0.00     0.037 C 
HETATM   55  C   UNK N   1      27.324  14.922   5.116  0.00  0.00     0.031 C 
HETATM   56  C   UNK N   1      26.510  13.949   4.623  0.00  0.00     0.019 C 
HETATM   57  C   UNK N   1      26.275  13.865   3.265  0.00  0.00     0.032 C 
HETATM   58  C   UNK N   1      26.993  14.688   2.372  0.00  0.00     0.019 C 
HETATM   59  C   UNK N   1      27.824  15.710   2.885  0.00  0.00     0.031 C 
BRANCH  57  60
HETATM   60  C   UNK N   1      25.018  13.223   2.877  0.00  0.00     0.252 C 
HETATM   61  N   UNK N   1      23.985  13.913   2.337  0.00  0.00    -0.343 N 
HETATM   62  H   UNK N   1      24.136  14.835   2.024  0.00  0.00     0.163 HD
HETATM   63  O   UNK N   1      24.864  12.057   3.210  0.00  0.00    -0.268 OA
BRANCH  61  64
HETATM   64  C   UNK N   1      22.660  13.328   2.208  0.00  0.00     0.183 C 
BRANCH  64  65
HETATM   65  C   UNK N   1      21.657  14.167   3.014  0.00  0.00     0.046 C 
BRANCH  65  66
HETATM   66  C   UNK N   1      21.553  15.661   2.685  0.00  0.00     0.112 C 
BRANCH  66  67
HETATM   67  C   UNK N   1      20.198  16.121   2.256  0.00  0.00     0.139 C 
HETATM   68  O   UNK N   1      19.884  17.290   2.410  0.00  0.00    -0.650 OA
BRANCH  67  69
HETATM   69  O   UNK N   1      19.362  15.282   1.617  0.00  0.00    -0.776 OA
HETATM   70  H   UNK N   1      18.435  15.225   1.742  0.00  0.00     0.167 HD
ENDBRANCH  67  69
ENDBRANCH  66  67
ENDBRANCH  65  66
ENDBRANCH  64  65
BRANCH  64  71
HETATM   71  C   UNK N   1      22.212  13.047   0.768  0.00  0.00     0.163 C 
HETATM   72  O   UNK N   1      21.028  13.010   0.483  0.00  0.00    -0.648 OA
BRANCH  71  73
HETATM   73  O   UNK N   1      23.111  12.750  -0.191  0.00  0.00    -0.775 OA
HETATM   74  H   UNK N   1      23.457  11.904  -0.398  0.00  0.00     0.167 HD
ENDBRANCH  71  73
ENDBRANCH  64  71
ENDBRANCH  61  64
ENDBRANCH  57  60
ENDBRANCH  33  54
ENDBRANCH  31  32
ENDBRANCH  30  31
ENDBRANCH  23  30
ENDBRANCH  12  18
ENDBRANCH   8   9
ENDBRANCH   7   8
ENDBRANCH   3   7
TORSDOF 25
ENDMDL
