REMARK  11 active torsions:
REMARK  status: ('A' for Active; 'I' for Inactive)
REMARK    1  A    between atoms: C_8  and  C_5 
REMARK    2  A    between atoms: C_11  and  C_5 
REMARK    3  A    between atoms: C_12  and  C_6 
REMARK    4  A    between atoms: C_6  and  O_22 
REMARK    5  A    between atoms: O_23  and  C_7 
REMARK    6  A    between atoms: C_14  and  C_11 
REMARK    7  A    between atoms: C_11  and  N_18 
REMARK    8  A    between atoms: C_15  and  C_12 
REMARK    9  A    between atoms: C_12  and  N_20 
REMARK   10  A    between atoms: O_24  and  C_13 
REMARK   11  A    between atoms: C_14  and  O_25 
ROOT
HETATM    1  C   UNK N   1      -0.187   6.871   0.379  0.00  0.00     0.166 C 
HETATM    2  O   UNK N   1       0.611   7.532  -0.266  0.00  0.00    -0.648 OA
HETATM    3  O   UNK N   1      -0.183   6.953   1.724  0.00  0.00    -0.775 OA
HETATM    4  H   UNK N   1      -0.133   6.979   2.659  0.00  0.00     0.167 HD
ENDROOT
BRANCH   1   5
HETATM    5  C   UNK N   1      -1.160   5.960  -0.333  0.00  0.00     0.210 C 
BRANCH   5   6
HETATM    6  C   UNK N   1      -2.627   6.367  -0.092  0.00  0.00     0.147 C 
HETATM    7  C   UNK N   1      -3.029   6.266   1.373  0.00  0.00     0.042 C 
BRANCH   6   8
HETATM    8  O   UNK N   1      -2.848   7.669  -0.541  0.00  0.00    -0.393 OA
HETATM    9  H   UNK N   1      -2.141   8.255  -0.853  0.00  0.00     0.210 HD
ENDBRANCH   6   8
ENDBRANCH   5   6
BRANCH   5  10
HETATM   10  N   UNK N   1      -0.996   4.580   0.075  0.00  0.00    -0.356 N 
HETATM   11  C   UNK N   1       0.085   3.887  -0.073  0.00  0.00     0.135 C 
ATOM     12  HN  UNK N   1      -1.795   4.120   0.512  1.00  0.00     0.162 HD
BRANCH  11  13
HETATM   13  C   UNK N   1       0.046   2.426   0.285  0.00  0.00     0.162 C 
BRANCH  13  14
HETATM   14  C   UNK N   1       1.399   1.748  -0.007  0.00  0.00     0.072 C 
BRANCH  14  15
HETATM   15  C   UNK N   1       1.409   0.239  -0.030  0.00  0.00    -0.053 A 
HETATM   16  C   UNK N   1       2.543  -0.413  -0.523  0.00  0.00     0.028 A 
HETATM   17  C   UNK N   1       2.554  -1.804  -0.670  0.00  0.00     0.041 A 
HETATM   18  C   UNK N   1       1.418  -2.554  -0.329  0.00  0.00     0.098 A 
HETATM   19  I   UNK N   1       4.280  -2.736  -1.448  0.00  0.00    -0.042 I 
HETATM   20  C   UNK N   1       0.284  -1.907   0.179  0.00  0.00     0.041 A 
HETATM   21  C   UNK N   1       0.284  -0.520   0.326  0.00  0.00     0.028 A 
HETATM   22  I   UNK N   1      -1.461  -2.980   0.685  0.00  0.00    -0.042 I 
BRANCH  18  23
HETATM   23  O   UNK N   1       1.415  -3.889  -0.494  0.00  0.00    -0.358 OA
HETATM   24  H   UNK N   1       0.608  -4.352  -0.610  0.00  0.00     0.217 HD
ENDBRANCH  18  23
ENDBRANCH  14  15
ENDBRANCH  13  14
BRANCH  13  25
HETATM   25  N   UNK N   1      -0.992   1.820  -0.535  0.00  0.00    -0.362 N 
HETATM   26  C   UNK N   1      -2.210   1.610  -0.150  0.00  0.00     0.107 C 
HETATM   27  C   UNK N   1      -2.698   2.017   1.207  0.00  0.00     0.097 C 
ATOM     28  HN  UNK N   1      -0.742   1.541  -1.484  1.00  0.00     0.162 HD
BRANCH  26  29
HETATM   29  O   UNK N   1      -3.073   1.025  -0.999  0.00  0.00    -0.350 OA
HETATM   30  H   UNK N   1      -3.727   1.342  -1.590  0.00  0.00     0.219 HD
ENDBRANCH  26  29
ENDBRANCH  13  25
ENDBRANCH  11  13
BRANCH  11  31
HETATM   31  O   UNK N   1       1.196   4.443  -0.603  0.00  0.00    -0.348 OA
HETATM   32  H   UNK N   1       1.916   3.969  -0.970  0.00  0.00     0.219 HD
ENDBRANCH  11  31
ENDBRANCH   5  10
ENDBRANCH   1   5
TORSDOF 11
