MODEL 1
REMARK VINA RESULT:      -6.9      0.000      0.000
REMARK  24 active torsions:
REMARK  status: ('A' for Active; 'I' for Inactive)
REMARK    1  A    between atoms: C_18  and  C_3 
REMARK    2  A    between atoms: C_7  and  C_6 
REMARK    3  A    between atoms: C_17  and  C_6 
REMARK    4  A    between atoms: C_19  and  C_7 
REMARK    5  A    between atoms: N_35  and  C_17 
REMARK    6  A    between atoms: O_51  and  C_18 
REMARK    7  A    between atoms: O_50  and  C_19 
REMARK    8  A    between atoms: C_21  and  C_20 
REMARK    9  A    between atoms: C_24  and  C_20 
REMARK   10  A    between atoms: N_39  and  C_22 
REMARK   11  A    between atoms: C_31  and  C_23 
REMARK   12  A    between atoms: C_29  and  C_24 
REMARK   13  A    between atoms: C_24  and  N_37 
REMARK   14  A    between atoms: N_39  and  C_25 
REMARK   15  A    between atoms: O_40  and  C_26 
REMARK   16  A    between atoms: O_50  and  C_27 
REMARK   17  A    between atoms: C_33  and  C_28 
REMARK   18  A    between atoms: O_41  and  C_29 
REMARK   19  A    between atoms: C_32  and  C_30 
REMARK       I    between atoms: N_39  and  C_30 
REMARK   20  A    between atoms: O_44  and  C_31 
REMARK   21  A    between atoms: O_45  and  C_32 
REMARK   22  A    between atoms: O_49  and  C_33 
REMARK   23  A    between atoms: C_34  and  O_48 
REMARK   24  A    between atoms: O_51  and  C_34 
ROOT
HETATM    1  C   UNK N   1      22.408  13.136   7.272  0.00  0.00     0.164 C 
ENDROOT
BRANCH   1   2
HETATM    2  C   UNK N   1      23.695  13.676   7.929  0.00  0.00     0.072 C 
BRANCH   2   3
HETATM    3  C   UNK N   1      24.432  14.341   6.834  0.00  0.00    -0.056 A 
HETATM    4  C   UNK N   1      25.820  14.392   6.911  0.00  0.00     0.009 A 
HETATM    5  C   UNK N   1      26.508  15.336   6.169  0.00  0.00     0.030 A 
HETATM    6  C   UNK N   1      25.823  16.282   5.385  0.00  0.00     0.043 A 
HETATM    7  C   UNK N   1      24.427  16.226   5.313  0.00  0.00     0.030 A 
HETATM    8  C   UNK N   1      23.734  15.263   6.043  0.00  0.00     0.009 A 
BRANCH   6   9
HETATM    9  N   UNK N   1      26.598  17.237   4.659  0.00  0.00    -0.273 N 
HETATM   10  C   UNK N   1      27.414  16.730   3.660  0.00  0.00     0.326 C 
HETATM   11  O   UNK N   1      28.508  17.219   3.467  0.00  0.00    -0.260 OA
BRANCH   9  12
HETATM   12  C   UNK N   1      26.852  18.533   5.308  0.00  0.00     0.060 A 
HETATM   13  C   UNK N   1      26.146  19.662   4.816  0.00  0.00     0.031 A 
HETATM   14  C   UNK N   1      26.273  20.931   5.372  0.00  0.00     0.002 A 
HETATM   15  C   UNK N   1      27.102  21.125   6.462  0.00  0.00     0.001 A 
HETATM   16  C   UNK N   1      27.852  20.064   6.952  0.00  0.00     0.020 A 
HETATM   17  C   UNK N   1      27.785  18.775   6.388  0.00  0.00     0.065 A 
BRANCH  17  18
HETATM   18  C   UNK N   1      28.784  17.810   6.931  0.00  0.00     0.178 C 
HETATM   19  O   UNK N   1      28.741  17.492   8.110  0.00  0.00    -0.646 OA
BRANCH  18  20
HETATM   20  O   UNK N   1      29.818  17.382   6.181  0.00  0.00    -0.773 OA
HETATM   21  H   UNK N   1      30.206  17.770   5.420  0.00  0.00     0.167 HD
ENDBRANCH  18  20
ENDBRANCH  17  18
ENDBRANCH   9  12
BRANCH  10  22
HETATM   22  C   UNK N   1      27.064  15.512   2.854  0.00  0.00     0.237 C 
HETATM   23  O   UNK N   1      27.764  14.516   2.951  0.00  0.00    -0.643 OA
BRANCH  22  24
HETATM   24  O   UNK N   1      26.107  15.532   1.912  0.00  0.00    -0.769 OA
HETATM   25  H   UNK N   1      26.048  15.829   1.025  0.00  0.00     0.168 HD
ENDBRANCH  22  24
ENDBRANCH  10  22
ENDBRANCH   6   9
ENDBRANCH   2   3
ENDBRANCH   1   2
BRANCH   1  26
HETATM   26  C   UNK N   1      22.498  11.639   7.071  0.00  0.00     0.135 C 
HETATM   27  N   UNK N   1      22.110  11.022   6.006  0.00  0.00    -0.373 N 
ATOM     28  HN  UNK N   1      22.287  10.018   5.959  1.00  0.00     0.161 HD
BRANCH  27  29
HETATM   29  C   UNK N   1      21.450  11.626   4.878  0.00  0.00     0.121 C 
BRANCH  29  30
HETATM   30  C   UNK N   1      19.985  11.871   5.195  0.00  0.00     0.022 C 
BRANCH  30  31
HETATM   31  C   UNK N   1      19.327  12.727   4.129  0.00  0.00     0.028 C 
BRANCH  31  32
HETATM   32  C   UNK N   1      18.770  13.987   4.758  0.00  0.00     0.175 C 
BRANCH  32  33
HETATM   33  O   UNK N   1      19.728  14.575   5.555  0.00  0.00    -0.350 OA
BRANCH  33  34
HETATM   34  C   UNK N   1      20.201  15.825   5.335  0.00  0.00     0.087 A 
HETATM   35  C   UNK N   1      20.576  16.146   4.025  0.00  0.00     0.038 A 
HETATM   36  C   UNK N   1      21.155  17.375   3.726  0.00  0.00     0.005 A 
HETATM   37  C   UNK N   1      21.377  18.303   4.739  0.00  0.00     0.038 A 
HETATM   38  C   UNK N   1      20.997  18.023   6.053  0.00  0.00     0.084 A 
HETATM   39  C   UNK N   1      20.383  16.789   6.376  0.00  0.00     0.105 A 
BRANCH  38  40
HETATM   40  O   UNK N   1      21.192  18.963   6.995  0.00  0.00    -0.360 OA
HETATM   41  H   UNK N   1      21.729  19.708   6.808  0.00  0.00     0.217 HD
ENDBRANCH  38  40
BRANCH  39  42
HETATM   42  C   UNK N   1      19.925  16.543   7.780  0.00  0.00     0.298 C 
HETATM   43  O   UNK N   1      20.728  16.565   8.702  0.00  0.00    -0.259 OA
BRANCH  42  44
HETATM   44  O   UNK N   1      18.625  16.259   8.033  0.00  0.00    -0.322 OA
HETATM   45  C   UNK N   1      17.903  16.952   8.978  0.00  0.00     0.213 C 
ENDBRANCH  42  44
ENDBRANCH  39  42
ENDBRANCH  33  34
ENDBRANCH  32  33
ENDBRANCH  31  32
ENDBRANCH  30  31
ENDBRANCH  29  30
ENDBRANCH  27  29
BRANCH  26  46
HETATM   46  O   UNK N   1      23.149  10.928   8.011  0.00  0.00    -0.348 OA
HETATM   47  H   UNK N   1      22.943  10.744   8.907  0.00  0.00     0.219 HD
ENDBRANCH  26  46
ENDBRANCH   1  26
BRANCH   1  48
HETATM   48  N   UNK N   1      21.255  13.653   7.994  0.00  0.00    -0.338 N 
HETATM   49  C   UNK N   1      20.908  13.238   9.170  0.00  0.00     0.259 C 
ATOM     50  HN  UNK N   1      20.692  14.379   7.552  1.00  0.00     0.164 HD
BRANCH  49  51
HETATM   51  O   UNK N   1      19.784  13.721   9.736  0.00  0.00    -0.327 OA
HETATM   52  H   UNK N   1      19.496  14.271  10.438  0.00  0.00     0.221 HD
ENDBRANCH  49  51
BRANCH  49  53
HETATM   53  O   UNK N   1      21.693  12.362   9.851  0.00  0.00    -0.313 OA
BRANCH  53  54
HETATM   54  C   UNK N   1      21.666  12.221  11.224  0.00  0.00     0.206 C 
BRANCH  54  55
HETATM   55  C   UNK N   1      23.009  11.880  11.824  0.00  0.00    -0.011 C 
HETATM   56  C   UNK N   1      23.262  11.925  13.132  0.00  0.00     0.009 C 
ENDBRANCH  54  55
ENDBRANCH  53  54
ENDBRANCH  49  53
ENDBRANCH   1  48
TORSDOF 24
ENDMDL
MODEL 2
REMARK VINA RESULT:      -6.8      3.235      5.673
REMARK  24 active torsions:
REMARK  status: ('A' for Active; 'I' for Inactive)
REMARK    1  A    between atoms: C_18  and  C_3 
REMARK    2  A    between atoms: C_7  and  C_6 
REMARK    3  A    between atoms: C_17  and  C_6 
REMARK    4  A    between atoms: C_19  and  C_7 
REMARK    5  A    between atoms: N_35  and  C_17 
REMARK    6  A    between atoms: O_51  and  C_18 
REMARK    7  A    between atoms: O_50  and  C_19 
REMARK    8  A    between atoms: C_21  and  C_20 
REMARK    9  A    between atoms: C_24  and  C_20 
REMARK   10  A    between atoms: N_39  and  C_22 
REMARK   11  A    between atoms: C_31  and  C_23 
REMARK   12  A    between atoms: C_29  and  C_24 
REMARK   13  A    between atoms: C_24  and  N_37 
REMARK   14  A    between atoms: N_39  and  C_25 
REMARK   15  A    between atoms: O_40  and  C_26 
REMARK   16  A    between atoms: O_50  and  C_27 
REMARK   17  A    between atoms: C_33  and  C_28 
REMARK   18  A    between atoms: O_41  and  C_29 
REMARK   19  A    between atoms: C_32  and  C_30 
REMARK       I    between atoms: N_39  and  C_30 
REMARK   20  A    between atoms: O_44  and  C_31 
REMARK   21  A    between atoms: O_45  and  C_32 
REMARK   22  A    between atoms: O_49  and  C_33 
REMARK   23  A    between atoms: C_34  and  O_48 
REMARK   24  A    between atoms: O_51  and  C_34 
ROOT
HETATM    1  C   UNK N   1      24.128  16.633   4.091  0.00  0.00     0.164 C 
ENDROOT
BRANCH   1   2
HETATM    2  C   UNK N   1      25.468  17.177   3.554  0.00  0.00     0.072 C 
BRANCH   2   3
HETATM    3  C   UNK N   1      26.346  17.265   4.739  0.00  0.00    -0.056 A 
HETATM    4  C   UNK N   1      27.023  18.458   4.970  0.00  0.00     0.009 A 
HETATM    5  C   UNK N   1      28.142  18.459   5.783  0.00  0.00     0.030 A 
HETATM    6  C   UNK N   1      28.641  17.264   6.331  0.00  0.00     0.043 A 
HETATM    7  C   UNK N   1      27.956  16.067   6.094  0.00  0.00     0.030 A 
HETATM    8  C   UNK N   1      26.817  16.067   5.293  0.00  0.00     0.009 A 
BRANCH   6   9
HETATM    9  N   UNK N   1      29.811  17.339   7.146  0.00  0.00    -0.273 N 
HETATM   10  C   UNK N   1      29.664  17.972   8.370  0.00  0.00     0.326 C 
HETATM   11  O   UNK N   1      30.562  18.665   8.804  0.00  0.00    -0.260 OA
BRANCH   9  12
HETATM   12  C   UNK N   1      31.113  17.208   6.472  0.00  0.00     0.060 A 
HETATM   13  C   UNK N   1      31.183  17.577   5.104  0.00  0.00     0.031 A 
HETATM   14  C   UNK N   1      32.365  17.535   4.371  0.00  0.00     0.002 A 
HETATM   15  C   UNK N   1      33.539  17.134   4.984  0.00  0.00     0.001 A 
HETATM   16  C   UNK N   1      33.516  16.716   6.307  0.00  0.00     0.020 A 
HETATM   17  C   UNK N   1      32.331  16.703   7.068  0.00  0.00     0.065 A 
BRANCH  17  18
HETATM   18  C   UNK N   1      32.464  16.063   8.409  0.00  0.00     0.178 C 
HETATM   19  O   UNK N   1      32.021  14.938   8.590  0.00  0.00    -0.646 OA
BRANCH  18  20
HETATM   20  O   UNK N   1      32.942  16.749   9.464  0.00  0.00    -0.773 OA
HETATM   21  H   UNK N   1      32.602  17.516   9.884  0.00  0.00     0.167 HD
ENDBRANCH  18  20
ENDBRANCH  17  18
ENDBRANCH   9  12
BRANCH  10  22
HETATM   22  C   UNK N   1      28.388  17.942   9.161  0.00  0.00     0.237 C 
HETATM   23  O   UNK N   1      28.134  16.959   9.840  0.00  0.00    -0.643 OA
BRANCH  22  24
HETATM   24  O   UNK N   1      27.441  18.884   9.024  0.00  0.00    -0.769 OA
HETATM   25  H   UNK N   1      27.434  19.802   8.834  0.00  0.00     0.168 HD
ENDBRANCH  22  24
ENDBRANCH  10  22
ENDBRANCH   6   9
ENDBRANCH   2   3
ENDBRANCH   1   2
BRANCH   1  26
HETATM   26  C   UNK N   1      23.189  17.769   4.435  0.00  0.00     0.135 C 
HETATM   27  N   UNK N   1      22.408  17.784   5.462  0.00  0.00    -0.373 N 
ATOM     28  HN  UNK N   1      21.873  18.636   5.628  1.00  0.00     0.161 HD
BRANCH  27  29
HETATM   29  C   UNK N   1      22.228  16.702   6.396  0.00  0.00     0.121 C 
BRANCH  29  30
HETATM   30  C   UNK N   1      20.839  16.762   7.007  0.00  0.00     0.022 C 
BRANCH  30  31
HETATM   31  C   UNK N   1      20.017  15.545   6.623  0.00  0.00     0.028 C 
BRANCH  31  32
HETATM   32  C   UNK N   1      19.073  15.903   5.494  0.00  0.00     0.175 C 
BRANCH  32  33
HETATM   33  O   UNK N   1      19.745  16.631   4.536  0.00  0.00    -0.350 OA
BRANCH  33  34
HETATM   34  C   UNK N   1      19.807  16.253   3.236  0.00  0.00     0.087 A 
HETATM   35  C   UNK N   1      19.766  14.880   2.966  0.00  0.00     0.038 A 
HETATM   36  C   UNK N   1      19.916  14.401   1.668  0.00  0.00     0.005 A 
HETATM   37  C   UNK N   1      20.118  15.291   0.618  0.00  0.00     0.038 A 
HETATM   38  C   UNK N   1      20.143  16.668   0.849  0.00  0.00     0.084 A 
HETATM   39  C   UNK N   1      19.968  17.179   2.158  0.00  0.00     0.105 A 
BRANCH  38  40
HETATM   40  O   UNK N   1      20.300  17.495  -0.199  0.00  0.00    -0.360 OA
HETATM   41  H   UNK N   1      20.591  18.375  -0.062  0.00  0.00     0.217 HD
ENDBRANCH  38  40
BRANCH  39  42
HETATM   42  C   UNK N   1      19.933  18.661   2.367  0.00  0.00     0.298 C 
HETATM   43  O   UNK N   1      18.905  19.204   2.748  0.00  0.00    -0.259 OA
BRANCH  42  44
HETATM   44  O   UNK N   1      21.027  19.414   2.101  0.00  0.00    -0.322 OA
HETATM   45  C   UNK N   1      20.924  20.677   1.565  0.00  0.00     0.213 C 
ENDBRANCH  42  44
ENDBRANCH  39  42
ENDBRANCH  33  34
ENDBRANCH  32  33
ENDBRANCH  31  32
ENDBRANCH  30  31
ENDBRANCH  29  30
ENDBRANCH  27  29
BRANCH  26  46
HETATM   46  O   UNK N   1      23.278  18.890   3.693  0.00  0.00    -0.348 OA
HETATM   47  H   UNK N   1      22.646  19.551   3.486  0.00  0.00     0.219 HD
ENDBRANCH  26  46
ENDBRANCH   1  26
BRANCH   1  48
HETATM   48  N   UNK N   1      23.639  15.603   3.186  0.00  0.00    -0.338 N 
HETATM   49  C   UNK N   1      23.548  14.354   3.514  0.00  0.00     0.259 C 
ATOM     50  HN  UNK N   1      23.355  15.879   2.247  1.00  0.00     0.164 HD
BRANCH  49  51
HETATM   51  O   UNK N   1      23.151  13.456   2.590  0.00  0.00    -0.327 OA
HETATM   52  H   UNK N   1      23.339  12.591   2.282  0.00  0.00     0.221 HD
ENDBRANCH  49  51
BRANCH  49  53
HETATM   53  O   UNK N   1      23.799  13.956   4.790  0.00  0.00    -0.313 OA
BRANCH  53  54
HETATM   54  C   UNK N   1      24.827  13.102   5.134  0.00  0.00     0.206 C 
BRANCH  54  55
HETATM   55  C   UNK N   1      24.984  12.913   6.624  0.00  0.00    -0.011 C 
HETATM   56  C   UNK N   1      24.925  13.915   7.501  0.00  0.00     0.009 C 
ENDBRANCH  54  55
ENDBRANCH  53  54
ENDBRANCH  49  53
ENDBRANCH   1  48
TORSDOF 24
ENDMDL
MODEL 3
REMARK VINA RESULT:      -6.7      2.519      7.060
REMARK  24 active torsions:
REMARK  status: ('A' for Active; 'I' for Inactive)
REMARK    1  A    between atoms: C_18  and  C_3 
REMARK    2  A    between atoms: C_7  and  C_6 
REMARK    3  A    between atoms: C_17  and  C_6 
REMARK    4  A    between atoms: C_19  and  C_7 
REMARK    5  A    between atoms: N_35  and  C_17 
REMARK    6  A    between atoms: O_51  and  C_18 
REMARK    7  A    between atoms: O_50  and  C_19 
REMARK    8  A    between atoms: C_21  and  C_20 
REMARK    9  A    between atoms: C_24  and  C_20 
REMARK   10  A    between atoms: N_39  and  C_22 
REMARK   11  A    between atoms: C_31  and  C_23 
REMARK   12  A    between atoms: C_29  and  C_24 
REMARK   13  A    between atoms: C_24  and  N_37 
REMARK   14  A    between atoms: N_39  and  C_25 
REMARK   15  A    between atoms: O_40  and  C_26 
REMARK   16  A    between atoms: O_50  and  C_27 
REMARK   17  A    between atoms: C_33  and  C_28 
REMARK   18  A    between atoms: O_41  and  C_29 
REMARK   19  A    between atoms: C_32  and  C_30 
REMARK       I    between atoms: N_39  and  C_30 
REMARK   20  A    between atoms: O_44  and  C_31 
REMARK   21  A    between atoms: O_45  and  C_32 
REMARK   22  A    between atoms: O_49  and  C_33 
REMARK   23  A    between atoms: C_34  and  O_48 
REMARK   24  A    between atoms: O_51  and  C_34 
ROOT
HETATM    1  C   UNK N   1      20.045  17.055   3.239  0.00  0.00     0.164 C 
ENDROOT
BRANCH   1   2
HETATM    2  C   UNK N   1      20.269  16.170   1.995  0.00  0.00     0.072 C 
BRANCH   2   3
HETATM    3  C   UNK N   1      21.520  15.433   2.272  0.00  0.00    -0.056 A 
HETATM    4  C   UNK N   1      21.465  14.046   2.344  0.00  0.00     0.009 A 
HETATM    5  C   UNK N   1      22.471  13.358   2.999  0.00  0.00     0.030 A 
HETATM    6  C   UNK N   1      23.517  14.042   3.643  0.00  0.00     0.043 A 
HETATM    7  C   UNK N   1      23.566  15.439   3.567  0.00  0.00     0.030 A 
HETATM    8  C   UNK N   1      22.565  16.132   2.891  0.00  0.00     0.009 A 
BRANCH   6   9
HETATM    9  N   UNK N   1      24.512  13.268   4.313  0.00  0.00    -0.273 N 
HETATM   10  C   UNK N   1      25.233  12.385   3.525  0.00  0.00     0.326 C 
HETATM   11  O   UNK N   1      25.554  11.301   3.969  0.00  0.00    -0.260 OA
BRANCH   9  12
HETATM   12  C   UNK N   1      24.365  13.094   5.768  0.00  0.00     0.060 A 
HETATM   13  C   UNK N   1      23.331  12.237   6.225  0.00  0.00     0.031 A 
HETATM   14  C   UNK N   1      23.120  11.964   7.573  0.00  0.00     0.002 A 
HETATM   15  C   UNK N   1      23.948  12.528   8.527  0.00  0.00     0.001 A 
HETATM   16  C   UNK N   1      24.944  13.413   8.136  0.00  0.00     0.020 A 
HETATM   17  C   UNK N   1      25.161  13.747   6.785  0.00  0.00     0.065 A 
BRANCH  17  18
HETATM   18  C   UNK N   1      26.154  14.839   6.570  0.00  0.00     0.178 C 
HETATM   19  O   UNK N   1      27.133  14.638   5.868  0.00  0.00    -0.646 OA
BRANCH  18  20
HETATM   20  O   UNK N   1      26.067  16.002   7.243  0.00  0.00    -0.773 OA
HETATM   21  H   UNK N   1      26.741  16.508   7.655  0.00  0.00     0.167 HD
ENDBRANCH  18  20
ENDBRANCH  17  18
ENDBRANCH   9  12
BRANCH  10  22
HETATM   22  C   UNK N   1      25.558  12.650   2.083  0.00  0.00     0.237 C 
HETATM   23  O   UNK N   1      26.269  13.601   1.800  0.00  0.00    -0.643 OA
BRANCH  22  24
HETATM   24  O   UNK N   1      24.963  11.977   1.084  0.00  0.00    -0.769 OA
HETATM   25  H   UNK N   1      25.198  11.732   0.210  0.00  0.00     0.168 HD
ENDBRANCH  22  24
ENDBRANCH  10  22
ENDBRANCH   6   9
ENDBRANCH   2   3
ENDBRANCH   1   2
BRANCH   1  26
HETATM   26  C   UNK N   1      19.750  18.482   2.833  0.00  0.00     0.135 C 
HETATM   27  N   UNK N   1      20.546  19.478   3.036  0.00  0.00    -0.373 N 
ATOM     28  HN  UNK N   1      20.268  20.382   2.653  1.00  0.00     0.161 HD
BRANCH  27  29
HETATM   29  C   UNK N   1      21.793  19.423   3.753  0.00  0.00     0.121 C 
BRANCH  29  30
HETATM   30  C   UNK N   1      22.872  20.173   2.990  0.00  0.00     0.022 C 
BRANCH  30  31
HETATM   31  C   UNK N   1      24.258  19.727   3.417  0.00  0.00     0.028 C 
BRANCH  31  32
HETATM   32  C   UNK N   1      25.298  20.647   2.812  0.00  0.00     0.175 C 
BRANCH  32  33
HETATM   33  O   UNK N   1      26.561  20.184   3.110  0.00  0.00    -0.350 OA
BRANCH  33  34
HETATM   34  C   UNK N   1      26.965  19.915   4.375  0.00  0.00     0.087 A 
HETATM   35  C   UNK N   1      26.856  20.947   5.315  0.00  0.00     0.038 A 
HETATM   36  C   UNK N   1      27.332  20.786   6.613  0.00  0.00     0.005 A 
HETATM   37  C   UNK N   1      27.933  19.590   6.989  0.00  0.00     0.038 A 
HETATM   38  C   UNK N   1      28.039  18.533   6.083  0.00  0.00     0.084 A 
HETATM   39  C   UNK N   1      27.541  18.665   4.765  0.00  0.00     0.105 A 
BRANCH  38  40
HETATM   40  O   UNK N   1      28.591  17.380   6.499  0.00  0.00    -0.360 OA
HETATM   41  H   UNK N   1      28.075  16.756   6.971  0.00  0.00     0.217 HD
ENDBRANCH  38  40
BRANCH  39  42
HETATM   42  C   UNK N   1      27.608  17.494   3.835  0.00  0.00     0.298 C 
HETATM   43  O   UNK N   1      26.580  16.957   3.447  0.00  0.00    -0.259 OA
BRANCH  42  44
HETATM   44  O   UNK N   1      28.807  16.999   3.446  0.00  0.00    -0.322 OA
HETATM   45  C   UNK N   1      28.914  15.809   2.762  0.00  0.00     0.213 C 
ENDBRANCH  42  44
ENDBRANCH  39  42
ENDBRANCH  33  34
ENDBRANCH  32  33
ENDBRANCH  31  32
ENDBRANCH  30  31
ENDBRANCH  29  30
ENDBRANCH  27  29
BRANCH  26  46
HETATM   46  O   UNK N   1      18.645  18.698   2.092  0.00  0.00    -0.348 OA
HETATM   47  H   UNK N   1      18.082  19.444   2.016  0.00  0.00     0.219 HD
ENDBRANCH  26  46
ENDBRANCH   1  26
BRANCH   1  48
HETATM   48  N   UNK N   1      19.098  16.395   4.125  0.00  0.00    -0.338 N 
HETATM   49  C   UNK N   1      19.413  15.956   5.301  0.00  0.00     0.259 C 
ATOM     50  HN  UNK N   1      18.138  16.272   3.803  1.00  0.00     0.164 HD
BRANCH  49  51
HETATM   51  O   UNK N   1      18.490  15.293   6.027  0.00  0.00    -0.327 OA
HETATM   52  H   UNK N   1      18.200  15.175   6.911  0.00  0.00     0.221 HD
ENDBRANCH  49  51
BRANCH  49  53
HETATM   53  O   UNK N   1      20.644  16.203   5.824  0.00  0.00    -0.313 OA
BRANCH  53  54
HETATM   54  C   UNK N   1      20.867  16.458   7.161  0.00  0.00     0.206 C 
BRANCH  54  55
HETATM   55  C   UNK N   1      21.398  15.267   7.924  0.00  0.00    -0.011 C 
HETATM   56  C   UNK N   1      20.963  14.917   9.134  0.00  0.00     0.009 C 
ENDBRANCH  54  55
ENDBRANCH  53  54
ENDBRANCH  49  53
ENDBRANCH   1  48
TORSDOF 24
ENDMDL
MODEL 4
REMARK VINA RESULT:      -6.7      2.849      9.862
REMARK  24 active torsions:
REMARK  status: ('A' for Active; 'I' for Inactive)
REMARK    1  A    between atoms: C_18  and  C_3 
REMARK    2  A    between atoms: C_7  and  C_6 
REMARK    3  A    between atoms: C_17  and  C_6 
REMARK    4  A    between atoms: C_19  and  C_7 
REMARK    5  A    between atoms: N_35  and  C_17 
REMARK    6  A    between atoms: O_51  and  C_18 
REMARK    7  A    between atoms: O_50  and  C_19 
REMARK    8  A    between atoms: C_21  and  C_20 
REMARK    9  A    between atoms: C_24  and  C_20 
REMARK   10  A    between atoms: N_39  and  C_22 
REMARK   11  A    between atoms: C_31  and  C_23 
REMARK   12  A    between atoms: C_29  and  C_24 
REMARK   13  A    between atoms: C_24  and  N_37 
REMARK   14  A    between atoms: N_39  and  C_25 
REMARK   15  A    between atoms: O_40  and  C_26 
REMARK   16  A    between atoms: O_50  and  C_27 
REMARK   17  A    between atoms: C_33  and  C_28 
REMARK   18  A    between atoms: O_41  and  C_29 
REMARK   19  A    between atoms: C_32  and  C_30 
REMARK       I    between atoms: N_39  and  C_30 
REMARK   20  A    between atoms: O_44  and  C_31 
REMARK   21  A    between atoms: O_45  and  C_32 
REMARK   22  A    between atoms: O_49  and  C_33 
REMARK   23  A    between atoms: C_34  and  O_48 
REMARK   24  A    between atoms: O_51  and  C_34 
ROOT
HETATM    1  C   UNK N   1      26.113  18.868   4.829  0.00  0.00     0.164 C 
ENDROOT
BRANCH   1   2
HETATM    2  C   UNK N   1      24.849  18.655   3.971  0.00  0.00     0.072 C 
BRANCH   2   3
HETATM    3  C   UNK N   1      23.999  17.745   4.765  0.00  0.00    -0.056 A 
HETATM    4  C   UNK N   1      24.154  16.374   4.586  0.00  0.00     0.009 A 
HETATM    5  C   UNK N   1      23.135  15.518   4.964  0.00  0.00     0.030 A 
HETATM    6  C   UNK N   1      21.921  16.015   5.471  0.00  0.00     0.043 A 
HETATM    7  C   UNK N   1      21.770  17.395   5.648  0.00  0.00     0.030 A 
HETATM    8  C   UNK N   1      22.803  18.257   5.287  0.00  0.00     0.009 A 
BRANCH   6   9
HETATM    9  N   UNK N   1      20.908  15.074   5.824  0.00  0.00    -0.273 N 
HETATM   10  C   UNK N   1      19.738  15.128   5.083  0.00  0.00     0.326 C 
HETATM   11  O   UNK N   1      18.668  14.936   5.626  0.00  0.00    -0.260 OA
BRANCH   9  12
HETATM   12  C   UNK N   1      20.963  14.499   7.178  0.00  0.00     0.060 A 
HETATM   13  C   UNK N   1      21.477  13.182   7.311  0.00  0.00     0.031 A 
HETATM   14  C   UNK N   1      21.615  12.548   8.541  0.00  0.00     0.002 A 
HETATM   15  C   UNK N   1      21.258  13.212   9.701  0.00  0.00     0.001 A 
HETATM   16  C   UNK N   1      20.705  14.484   9.623  0.00  0.00     0.020 A 
HETATM   17  C   UNK N   1      20.509  15.140   8.393  0.00  0.00     0.065 A 
BRANCH  17  18
HETATM   18  C   UNK N   1      19.748  16.420   8.490  0.00  0.00     0.178 C 
HETATM   19  O   UNK N   1      20.304  17.426   8.903  0.00  0.00    -0.646 OA
BRANCH  18  20
HETATM   20  O   UNK N   1      18.422  16.460   8.260  0.00  0.00    -0.773 OA
HETATM   21  H   UNK N   1      17.760  16.991   8.660  0.00  0.00     0.167 HD
ENDBRANCH  18  20
ENDBRANCH  17  18
ENDBRANCH   9  12
BRANCH  10  22
HETATM   22  C   UNK N   1      19.701  15.526   3.636  0.00  0.00     0.237 C 
HETATM   23  O   UNK N   1      20.196  14.783   2.804  0.00  0.00    -0.643 OA
BRANCH  22  24
HETATM   24  O   UNK N   1      19.288  16.741   3.242  0.00  0.00    -0.769 OA
HETATM   25  H   UNK N   1      18.458  17.163   3.131  0.00  0.00     0.168 HD
ENDBRANCH  22  24
ENDBRANCH  10  22
ENDBRANCH   6   9
ENDBRANCH   2   3
ENDBRANCH   1   2
BRANCH   1  26
HETATM   26  C   UNK N   1      27.343  18.966   3.953  0.00  0.00     0.135 C 
HETATM   27  N   UNK N   1      28.031  17.952   3.546  0.00  0.00    -0.373 N 
ATOM     28  HN  UNK N   1      28.799  18.140   2.901  1.00  0.00     0.161 HD
BRANCH  27  29
HETATM   29  C   UNK N   1      27.807  16.580   3.920  0.00  0.00     0.121 C 
BRANCH  29  30
HETATM   30  C   UNK N   1      29.049  15.751   3.644  0.00  0.00     0.022 C 
BRANCH  30  31
HETATM   31  C   UNK N   1      30.099  15.957   4.719  0.00  0.00     0.028 C 
BRANCH  31  32
HETATM   32  C   UNK N   1      30.254  14.687   5.531  0.00  0.00     0.175 C 
BRANCH  32  33
HETATM   33  O   UNK N   1      31.498  14.660   6.123  0.00  0.00    -0.350 OA
BRANCH  33  34
HETATM   34  C   UNK N   1      31.993  15.697   6.840  0.00  0.00     0.087 A 
HETATM   35  C   UNK N   1      31.228  16.149   7.922  0.00  0.00     0.038 A 
HETATM   36  C   UNK N   1      31.616  17.266   8.656  0.00  0.00     0.005 A 
HETATM   37  C   UNK N   1      32.775  17.955   8.312  0.00  0.00     0.038 A 
HETATM   38  C   UNK N   1      33.571  17.519   7.252  0.00  0.00     0.084 A 
HETATM   39  C   UNK N   1      33.209  16.372   6.507  0.00  0.00     0.105 A 
BRANCH  38  40
HETATM   40  O   UNK N   1      34.704  18.190   6.978  0.00  0.00    -0.360 OA
HETATM   41  H   UNK N   1      34.796  18.641   6.162  0.00  0.00     0.217 HD
ENDBRANCH  38  40
BRANCH  39  42
HETATM   42  C   UNK N   1      34.116  15.888   5.418  0.00  0.00     0.298 C 
HETATM   43  O   UNK N   1      35.291  15.646   5.659  0.00  0.00    -0.259 OA
BRANCH  42  44
HETATM   44  O   UNK N   1      33.651  15.750   4.154  0.00  0.00    -0.322 OA
HETATM   45  C   UNK N   1      33.197  16.827   3.427  0.00  0.00     0.213 C 
ENDBRANCH  42  44
ENDBRANCH  39  42
ENDBRANCH  33  34
ENDBRANCH  32  33
ENDBRANCH  31  32
ENDBRANCH  30  31
ENDBRANCH  29  30
ENDBRANCH  27  29
BRANCH  26  46
HETATM   46  O   UNK N   1      27.656  20.180   3.461  0.00  0.00    -0.348 OA
HETATM   47  H   UNK N   1      28.311  20.454   2.848  0.00  0.00     0.219 HD
ENDBRANCH  26  46
ENDBRANCH   1  26
BRANCH   1  48
HETATM   48  N   UNK N   1      25.868  19.948   5.772  0.00  0.00    -0.338 N 
HETATM   49  C   UNK N   1      26.632  20.192   6.789  0.00  0.00     0.259 C 
ATOM     50  HN  UNK N   1      25.053  20.544   5.626  1.00  0.00     0.164 HD
BRANCH  49  51
HETATM   51  O   UNK N   1      26.290  21.169   7.652  0.00  0.00    -0.327 OA
HETATM   52  H   UNK N   1      25.538  21.593   8.018  0.00  0.00     0.221 HD
ENDBRANCH  49  51
BRANCH  49  53
HETATM   53  O   UNK N   1      27.794  19.506   6.958  0.00  0.00    -0.313 OA
BRANCH  53  54
HETATM   54  C   UNK N   1      28.023  18.642   8.010  0.00  0.00     0.206 C 
BRANCH  54  55
HETATM   55  C   UNK N   1      28.087  17.191   7.597  0.00  0.00    -0.011 C 
HETATM   56  C   UNK N   1      27.006  16.439   7.386  0.00  0.00     0.009 C 
ENDBRANCH  54  55
ENDBRANCH  53  54
ENDBRANCH  49  53
ENDBRANCH   1  48
TORSDOF 24
ENDMDL
MODEL 5
REMARK VINA RESULT:      -6.7      2.506      4.200
REMARK  24 active torsions:
REMARK  status: ('A' for Active; 'I' for Inactive)
REMARK    1  A    between atoms: C_18  and  C_3 
REMARK    2  A    between atoms: C_7  and  C_6 
REMARK    3  A    between atoms: C_17  and  C_6 
REMARK    4  A    between atoms: C_19  and  C_7 
REMARK    5  A    between atoms: N_35  and  C_17 
REMARK    6  A    between atoms: O_51  and  C_18 
REMARK    7  A    between atoms: O_50  and  C_19 
REMARK    8  A    between atoms: C_21  and  C_20 
REMARK    9  A    between atoms: C_24  and  C_20 
REMARK   10  A    between atoms: N_39  and  C_22 
REMARK   11  A    between atoms: C_31  and  C_23 
REMARK   12  A    between atoms: C_29  and  C_24 
REMARK   13  A    between atoms: C_24  and  N_37 
REMARK   14  A    between atoms: N_39  and  C_25 
REMARK   15  A    between atoms: O_40  and  C_26 
REMARK   16  A    between atoms: O_50  and  C_27 
REMARK   17  A    between atoms: C_33  and  C_28 
REMARK   18  A    between atoms: O_41  and  C_29 
REMARK   19  A    between atoms: C_32  and  C_30 
REMARK       I    between atoms: N_39  and  C_30 
REMARK   20  A    between atoms: O_44  and  C_31 
REMARK   21  A    between atoms: O_45  and  C_32 
REMARK   22  A    between atoms: O_49  and  C_33 
REMARK   23  A    between atoms: C_34  and  O_48 
REMARK   24  A    between atoms: O_51  and  C_34 
ROOT
HETATM    1  C   UNK N   1      24.115  12.699   5.604  0.00  0.00     0.164 C 
ENDROOT
BRANCH   1   2
HETATM    2  C   UNK N   1      25.434  12.508   4.827  0.00  0.00     0.072 C 
BRANCH   2   3
HETATM    3  C   UNK N   1      26.332  13.566   5.334  0.00  0.00    -0.056 A 
HETATM    4  C   UNK N   1      25.882  14.367   6.378  0.00  0.00     0.009 A 
HETATM    5  C   UNK N   1      26.476  15.597   6.597  0.00  0.00     0.030 A 
HETATM    6  C   UNK N   1      27.486  16.077   5.744  0.00  0.00     0.043 A 
HETATM    7  C   UNK N   1      27.934  15.266   4.695  0.00  0.00     0.030 A 
HETATM    8  C   UNK N   1      27.351  14.019   4.486  0.00  0.00     0.009 A 
BRANCH   6   9
HETATM    9  N   UNK N   1      28.042  17.363   6.021  0.00  0.00    -0.273 N 
HETATM   10  C   UNK N   1      27.609  18.402   5.213  0.00  0.00     0.326 C 
HETATM   11  O   UNK N   1      28.389  19.271   4.876  0.00  0.00    -0.260 OA
BRANCH   9  12
HETATM   12  C   UNK N   1      29.320  17.403   6.749  0.00  0.00     0.060 A 
HETATM   13  C   UNK N   1      30.504  17.140   6.011  0.00  0.00     0.031 A 
HETATM   14  C   UNK N   1      31.772  17.188   6.579  0.00  0.00     0.002 A 
HETATM   15  C   UNK N   1      31.916  17.517   7.915  0.00  0.00     0.001 A 
HETATM   16  C   UNK N   1      30.787  17.735   8.694  0.00  0.00     0.020 A 
HETATM   17  C   UNK N   1      29.485  17.653   8.165  0.00  0.00     0.065 A 
BRANCH  17  18
HETATM   18  C   UNK N   1      28.397  17.746   9.182  0.00  0.00     0.178 C 
HETATM   19  O   UNK N   1      28.297  16.885  10.043  0.00  0.00    -0.646 OA
BRANCH  18  20
HETATM   20  O   UNK N   1      27.438  18.687   9.092  0.00  0.00    -0.773 OA
HETATM   21  H   UNK N   1      26.837  18.865   8.394  0.00  0.00     0.167 HD
ENDBRANCH  18  20
ENDBRANCH  17  18
ENDBRANCH   9  12
BRANCH  10  22
HETATM   22  C   UNK N   1      26.229  18.465   4.625  0.00  0.00     0.237 C 
HETATM   23  O   UNK N   1      26.077  18.204   3.442  0.00  0.00    -0.643 OA
BRANCH  22  24
HETATM   24  O   UNK N   1      25.183  18.953   5.311  0.00  0.00    -0.769 OA
HETATM   25  H   UNK N   1      24.280  19.119   5.125  0.00  0.00     0.168 HD
ENDBRANCH  22  24
ENDBRANCH  10  22
ENDBRANCH   6   9
ENDBRANCH   2   3
ENDBRANCH   1   2
BRANCH   1  26
HETATM   26  C   UNK N   1      23.084  13.396   4.744  0.00  0.00     0.135 C 
HETATM   27  N   UNK N   1      22.116  14.116   5.204  0.00  0.00    -0.373 N 
ATOM     28  HN  UNK N   1      21.527  14.593   4.522  1.00  0.00     0.161 HD
BRANCH  27  29
HETATM   29  C   UNK N   1      21.798  14.305   6.595  0.00  0.00     0.121 C 
BRANCH  29  30
HETATM   30  C   UNK N   1      22.227  15.689   7.049  0.00  0.00     0.022 C 
BRANCH  30  31
HETATM   31  C   UNK N   1      22.657  16.545   5.873  0.00  0.00     0.028 C 
BRANCH  31  32
HETATM   32  C   UNK N   1      21.792  17.786   5.801  0.00  0.00     0.175 C 
BRANCH  32  33
HETATM   33  O   UNK N   1      20.816  17.620   4.842  0.00  0.00    -0.350 OA
BRANCH  33  34
HETATM   34  C   UNK N   1      20.783  18.341   3.695  0.00  0.00     0.087 A 
HETATM   35  C   UNK N   1      20.860  19.734   3.813  0.00  0.00     0.038 A 
HETATM   36  C   UNK N   1      20.741  20.554   2.695  0.00  0.00     0.005 A 
HETATM   37  C   UNK N   1      20.535  19.992   1.439  0.00  0.00     0.038 A 
HETATM   38  C   UNK N   1      20.474  18.606   1.284  0.00  0.00     0.084 A 
HETATM   39  C   UNK N   1      20.616  17.751   2.403  0.00  0.00     0.105 A 
BRANCH  38  40
HETATM   40  O   UNK N   1      20.314  18.102   0.047  0.00  0.00    -0.360 OA
HETATM   41  H   UNK N   1      20.603  18.590  -0.699  0.00  0.00     0.217 HD
ENDBRANCH  38  40
BRANCH  39  42
HETATM   42  C   UNK N   1      20.613  16.268   2.197  0.00  0.00     0.298 C 
HETATM   43  O   UNK N   1      21.575  15.597   2.545  0.00  0.00    -0.259 OA
BRANCH  42  44
HETATM   44  O   UNK N   1      19.562  15.665   1.593  0.00  0.00    -0.322 OA
HETATM   45  C   UNK N   1      19.714  14.513   0.855  0.00  0.00     0.213 C 
ENDBRANCH  42  44
ENDBRANCH  39  42
ENDBRANCH  33  34
ENDBRANCH  32  33
ENDBRANCH  31  32
ENDBRANCH  30  31
ENDBRANCH  29  30
ENDBRANCH  27  29
BRANCH  26  46
HETATM   46  O   UNK N   1      23.273  13.370   3.410  0.00  0.00    -0.348 OA
HETATM   47  H   UNK N   1      22.764  13.714   2.702  0.00  0.00     0.219 HD
ENDBRANCH  26  46
ENDBRANCH   1  26
BRANCH   1  48
HETATM   48  N   UNK N   1      23.740  11.434   6.218  0.00  0.00    -0.338 N 
HETATM   49  C   UNK N   1      23.924  11.170   7.472  0.00  0.00     0.259 C 
ATOM     50  HN  UNK N   1      23.310  10.720   5.631  1.00  0.00     0.164 HD
BRANCH  49  51
HETATM   51  O   UNK N   1      23.611   9.945   7.941  0.00  0.00    -0.327 OA
HETATM   52  H   UNK N   1      23.738   9.393   8.688  0.00  0.00     0.221 HD
ENDBRANCH  49  51
BRANCH  49  53
HETATM   53  O   UNK N   1      24.380  12.130   8.320  0.00  0.00    -0.313 OA
BRANCH  53  54
HETATM   54  C   UNK N   1      24.002  12.220   9.644  0.00  0.00     0.206 C 
BRANCH  54  55
HETATM   55  C   UNK N   1      22.723  12.994   9.857  0.00  0.00    -0.011 C 
HETATM   56  C   UNK N   1      21.751  12.595  10.678  0.00  0.00     0.009 C 
ENDBRANCH  54  55
ENDBRANCH  53  54
ENDBRANCH  49  53
ENDBRANCH   1  48
TORSDOF 24
ENDMDL
MODEL 6
REMARK VINA RESULT:      -6.7      2.453      7.387
REMARK  24 active torsions:
REMARK  status: ('A' for Active; 'I' for Inactive)
REMARK    1  A    between atoms: C_18  and  C_3 
REMARK    2  A    between atoms: C_7  and  C_6 
REMARK    3  A    between atoms: C_17  and  C_6 
REMARK    4  A    between atoms: C_19  and  C_7 
REMARK    5  A    between atoms: N_35  and  C_17 
REMARK    6  A    between atoms: O_51  and  C_18 
REMARK    7  A    between atoms: O_50  and  C_19 
REMARK    8  A    between atoms: C_21  and  C_20 
REMARK    9  A    between atoms: C_24  and  C_20 
REMARK   10  A    between atoms: N_39  and  C_22 
REMARK   11  A    between atoms: C_31  and  C_23 
REMARK   12  A    between atoms: C_29  and  C_24 
REMARK   13  A    between atoms: C_24  and  N_37 
REMARK   14  A    between atoms: N_39  and  C_25 
REMARK   15  A    between atoms: O_40  and  C_26 
REMARK   16  A    between atoms: O_50  and  C_27 
REMARK   17  A    between atoms: C_33  and  C_28 
REMARK   18  A    between atoms: O_41  and  C_29 
REMARK   19  A    between atoms: C_32  and  C_30 
REMARK       I    between atoms: N_39  and  C_30 
REMARK   20  A    between atoms: O_44  and  C_31 
REMARK   21  A    between atoms: O_45  and  C_32 
REMARK   22  A    between atoms: O_49  and  C_33 
REMARK   23  A    between atoms: C_34  and  O_48 
REMARK   24  A    between atoms: O_51  and  C_34 
ROOT
HETATM    1  C   UNK N   1      20.004  17.226   3.263  0.00  0.00     0.164 C 
ENDROOT
BRANCH   1   2
HETATM    2  C   UNK N   1      20.683  16.538   2.062  0.00  0.00     0.072 C 
BRANCH   2   3
HETATM    3  C   UNK N   1      21.745  15.699   2.654  0.00  0.00    -0.056 A 
HETATM    4  C   UNK N   1      21.575  14.318   2.648  0.00  0.00     0.009 A 
HETATM    5  C   UNK N   1      22.297  13.539   3.534  0.00  0.00     0.030 A 
HETATM    6  C   UNK N   1      23.156  14.124   4.481  0.00  0.00     0.043 A 
HETATM    7  C   UNK N   1      23.323  15.514   4.483  0.00  0.00     0.030 A 
HETATM    8  C   UNK N   1      22.612  16.298   3.578  0.00  0.00     0.009 A 
BRANCH   6   9
HETATM    9  N   UNK N   1      23.856  13.259   5.375  0.00  0.00    -0.273 N 
HETATM   10  C   UNK N   1      24.677  12.308   4.788  0.00  0.00     0.326 C 
HETATM   11  O   UNK N   1      24.763  11.199   5.276  0.00  0.00    -0.260 OA
BRANCH   9  12
HETATM   12  C   UNK N   1      23.309  13.105   6.732  0.00  0.00     0.060 A 
HETATM   13  C   UNK N   1      24.125  13.514   7.819  0.00  0.00     0.031 A 
HETATM   14  C   UNK N   1      23.703  13.453   9.143  0.00  0.00     0.002 A 
HETATM   15  C   UNK N   1      22.433  12.994   9.439  0.00  0.00     0.001 A 
HETATM   16  C   UNK N   1      21.612  12.535   8.417  0.00  0.00     0.020 A 
HETATM   17  C   UNK N   1      22.020  12.540   7.070  0.00  0.00     0.065 A 
BRANCH  17  18
HETATM   18  C   UNK N   1      21.080  11.853   6.137  0.00  0.00     0.178 C 
HETATM   19  O   UNK N   1      21.423  10.820   5.583  0.00  0.00    -0.646 OA
BRANCH  18  20
HETATM   20  O   UNK N   1      19.910  12.420   5.785  0.00  0.00    -0.773 OA
HETATM   21  H   UNK N   1      19.312  12.928   6.300  0.00  0.00     0.167 HD
ENDBRANCH  18  20
ENDBRANCH  17  18
ENDBRANCH   9  12
BRANCH  10  22
HETATM   22  C   UNK N   1      25.400  12.536   3.492  0.00  0.00     0.237 C 
HETATM   23  O   UNK N   1      25.261  11.730   2.586  0.00  0.00    -0.643 OA
BRANCH  22  24
HETATM   24  O   UNK N   1      26.320  13.505   3.350  0.00  0.00    -0.769 OA
HETATM   25  H   UNK N   1      26.451  14.221   2.760  0.00  0.00     0.168 HD
ENDBRANCH  22  24
ENDBRANCH  10  22
ENDBRANCH   6   9
ENDBRANCH   2   3
ENDBRANCH   1   2
BRANCH   1  26
HETATM   26  C   UNK N   1      19.496  18.598   2.876  0.00  0.00     0.135 C 
HETATM   27  N   UNK N   1      20.191  19.683   2.957  0.00  0.00    -0.373 N 
ATOM     28  HN  UNK N   1      19.763  20.537   2.599  1.00  0.00     0.161 HD
BRANCH  27  29
HETATM   29  C   UNK N   1      21.517  19.792   3.506  0.00  0.00     0.121 C 
BRANCH  29  30
HETATM   30  C   UNK N   1      22.467  20.374   2.474  0.00  0.00     0.022 C 
BRANCH  30  31
HETATM   31  C   UNK N   1      23.864  20.536   3.042  0.00  0.00     0.028 C 
BRANCH  31  32
HETATM   32  C   UNK N   1      24.294  19.250   3.716  0.00  0.00     0.175 C 
BRANCH  32  33
HETATM   33  O   UNK N   1      25.669  19.174   3.747  0.00  0.00    -0.350 OA
BRANCH  33  34
HETATM   34  C   UNK N   1      26.381  19.188   4.900  0.00  0.00     0.087 A 
HETATM   35  C   UNK N   1      26.510  20.417   5.557  0.00  0.00     0.038 A 
HETATM   36  C   UNK N   1      27.298  20.540   6.697  0.00  0.00     0.005 A 
HETATM   37  C   UNK N   1      27.979  19.432   7.194  0.00  0.00     0.038 A 
HETATM   38  C   UNK N   1      27.855  18.187   6.575  0.00  0.00     0.084 A 
HETATM   39  C   UNK N   1      27.040  18.034   5.428  0.00  0.00     0.105 A 
BRANCH  38  40
HETATM   40  O   UNK N   1      28.498  17.134   7.110  0.00  0.00    -0.360 OA
HETATM   41  H   UNK N   1      28.105  16.653   7.812  0.00  0.00     0.217 HD
ENDBRANCH  38  40
BRANCH  39  42
HETATM   42  C   UNK N   1      26.873  16.674   4.824  0.00  0.00     0.298 C 
HETATM   43  O   UNK N   1      26.436  15.751   5.498  0.00  0.00    -0.259 OA
BRANCH  42  44
HETATM   44  O   UNK N   1      27.238  16.448   3.540  0.00  0.00    -0.322 OA
HETATM   45  C   UNK N   1      28.556  16.479   3.144  0.00  0.00     0.213 C 
ENDBRANCH  42  44
ENDBRANCH  39  42
ENDBRANCH  33  34
ENDBRANCH  32  33
ENDBRANCH  31  32
ENDBRANCH  30  31
ENDBRANCH  29  30
ENDBRANCH  27  29
BRANCH  26  46
HETATM   46  O   UNK N   1      18.288  18.665   2.283  0.00  0.00    -0.348 OA
HETATM   47  H   UNK N   1      17.467  18.265   2.495  0.00  0.00     0.219 HD
ENDBRANCH  26  46
ENDBRANCH   1  26
BRANCH   1  48
HETATM   48  N   UNK N   1      19.057  16.300   3.866  0.00  0.00    -0.338 N 
HETATM   49  C   UNK N   1      19.085  15.968   5.116  0.00  0.00     0.259 C 
ATOM     50  HN  UNK N   1      18.334  15.893   3.272  1.00  0.00     0.164 HD
BRANCH  49  51
HETATM   51  O   UNK N   1      18.212  15.048   5.575  0.00  0.00    -0.327 OA
HETATM   52  H   UNK N   1      18.171  14.155   5.859  0.00  0.00     0.221 HD
ENDBRANCH  49  51
BRANCH  49  53
HETATM   53  O   UNK N   1      19.949  16.575   5.972  0.00  0.00    -0.313 OA
BRANCH  53  54
HETATM   54  C   UNK N   1      20.789  15.886   6.824  0.00  0.00     0.206 C 
BRANCH  54  55
HETATM   55  C   UNK N   1      20.589  16.233   8.280  0.00  0.00    -0.011 C 
HETATM   56  C   UNK N   1      19.662  15.664   9.050  0.00  0.00     0.009 C 
ENDBRANCH  54  55
ENDBRANCH  53  54
ENDBRANCH  49  53
ENDBRANCH   1  48
TORSDOF 24
ENDMDL
MODEL 7
REMARK VINA RESULT:      -6.6      2.558      5.787
REMARK  24 active torsions:
REMARK  status: ('A' for Active; 'I' for Inactive)
REMARK    1  A    between atoms: C_18  and  C_3 
REMARK    2  A    between atoms: C_7  and  C_6 
REMARK    3  A    between atoms: C_17  and  C_6 
REMARK    4  A    between atoms: C_19  and  C_7 
REMARK    5  A    between atoms: N_35  and  C_17 
REMARK    6  A    between atoms: O_51  and  C_18 
REMARK    7  A    between atoms: O_50  and  C_19 
REMARK    8  A    between atoms: C_21  and  C_20 
REMARK    9  A    between atoms: C_24  and  C_20 
REMARK   10  A    between atoms: N_39  and  C_22 
REMARK   11  A    between atoms: C_31  and  C_23 
REMARK   12  A    between atoms: C_29  and  C_24 
REMARK   13  A    between atoms: C_24  and  N_37 
REMARK   14  A    between atoms: N_39  and  C_25 
REMARK   15  A    between atoms: O_40  and  C_26 
REMARK   16  A    between atoms: O_50  and  C_27 
REMARK   17  A    between atoms: C_33  and  C_28 
REMARK   18  A    between atoms: O_41  and  C_29 
REMARK   19  A    between atoms: C_32  and  C_30 
REMARK       I    between atoms: N_39  and  C_30 
REMARK   20  A    between atoms: O_44  and  C_31 
REMARK   21  A    between atoms: O_45  and  C_32 
REMARK   22  A    between atoms: O_49  and  C_33 
REMARK   23  A    between atoms: C_34  and  O_48 
REMARK   24  A    between atoms: O_51  and  C_34 
ROOT
HETATM    1  C   UNK N   1      23.399  17.297   4.480  0.00  0.00     0.164 C 
ENDROOT
BRANCH   1   2
HETATM    2  C   UNK N   1      24.673  18.024   4.958  0.00  0.00     0.072 C 
BRANCH   2   3
HETATM    3  C   UNK N   1      25.763  17.044   4.770  0.00  0.00    -0.056 A 
HETATM    4  C   UNK N   1      26.227  16.353   5.884  0.00  0.00     0.009 A 
HETATM    5  C   UNK N   1      27.480  15.767   5.849  0.00  0.00     0.030 A 
HETATM    6  C   UNK N   1      28.316  15.910   4.726  0.00  0.00     0.043 A 
HETATM    7  C   UNK N   1      27.843  16.608   3.609  0.00  0.00     0.030 A 
HETATM    8  C   UNK N   1      26.574  17.180   3.635  0.00  0.00     0.009 A 
BRANCH   6   9
HETATM    9  N   UNK N   1      29.603  15.293   4.767  0.00  0.00    -0.273 N 
HETATM   10  C   UNK N   1      29.618  13.907   4.736  0.00  0.00     0.326 C 
HETATM   11  O   UNK N   1      30.435  13.296   5.394  0.00  0.00    -0.260 OA
BRANCH   9  12
HETATM   12  C   UNK N   1      30.714  16.086   5.317  0.00  0.00     0.060 A 
HETATM   13  C   UNK N   1      30.665  16.415   6.697  0.00  0.00     0.031 A 
HETATM   14  C   UNK N   1      31.674  17.126   7.338  0.00  0.00     0.002 A 
HETATM   15  C   UNK N   1      32.792  17.526   6.628  0.00  0.00     0.001 A 
HETATM   16  C   UNK N   1      32.867  17.272   5.264  0.00  0.00     0.020 A 
HETATM   17  C   UNK N   1      31.846  16.594   4.572  0.00  0.00     0.065 A 
BRANCH  17  18
HETATM   18  C   UNK N   1      32.018  16.564   3.090  0.00  0.00     0.178 C 
HETATM   19  O   UNK N   1      33.040  16.098   2.609  0.00  0.00    -0.646 OA
BRANCH  18  20
HETATM   20  O   UNK N   1      31.131  17.163   2.273  0.00  0.00    -0.773 OA
HETATM   21  H   UNK N   1      30.319  16.841   1.932  0.00  0.00     0.167 HD
ENDBRANCH  18  20
ENDBRANCH  17  18
ENDBRANCH   9  12
BRANCH  10  22
HETATM   22  C   UNK N   1      28.590  13.092   4.005  0.00  0.00     0.237 C 
HETATM   23  O   UNK N   1      27.829  12.385   4.646  0.00  0.00    -0.643 OA
BRANCH  22  24
HETATM   24  O   UNK N   1      28.583  12.989   2.666  0.00  0.00    -0.769 OA
HETATM   25  H   UNK N   1      28.244  12.375   2.044  0.00  0.00     0.168 HD
ENDBRANCH  22  24
ENDBRANCH  10  22
ENDBRANCH   6   9
ENDBRANCH   2   3
ENDBRANCH   1   2
BRANCH   1  26
HETATM   26  C   UNK N   1      22.797  16.479   5.602  0.00  0.00     0.135 C 
HETATM   27  N   UNK N   1      22.701  15.192   5.597  0.00  0.00    -0.373 N 
ATOM     28  HN  UNK N   1      22.341  14.749   6.442  1.00  0.00     0.161 HD
BRANCH  27  29
HETATM   29  C   UNK N   1      23.060  14.328   4.503  0.00  0.00     0.121 C 
BRANCH  29  30
HETATM   30  C   UNK N   1      24.190  13.400   4.915  0.00  0.00     0.022 C 
BRANCH  30  31
HETATM   31  C   UNK N   1      23.805  12.570   6.126  0.00  0.00     0.028 C 
BRANCH  31  32
HETATM   32  C   UNK N   1      24.685  12.945   7.301  0.00  0.00     0.175 C 
BRANCH  32  33
HETATM   33  O   UNK N   1      23.988  13.765   8.163  0.00  0.00    -0.350 OA
BRANCH  33  34
HETATM   34  C   UNK N   1      23.290  13.291   9.223  0.00  0.00     0.087 A 
HETATM   35  C   UNK N   1      24.011  12.613  10.213  0.00  0.00     0.038 A 
HETATM   36  C   UNK N   1      23.362  12.016  11.289  0.00  0.00     0.005 A 
HETATM   37  C   UNK N   1      21.975  12.082  11.388  0.00  0.00     0.038 A 
HETATM   38  C   UNK N   1      21.228  12.768  10.430  0.00  0.00     0.084 A 
HETATM   39  C   UNK N   1      21.868  13.403   9.339  0.00  0.00     0.105 A 
BRANCH  38  40
HETATM   40  O   UNK N   1      19.894  12.842  10.584  0.00  0.00    -0.360 OA
HETATM   41  H   UNK N   1      19.326  12.504   9.920  0.00  0.00     0.217 HD
ENDBRANCH  38  40
BRANCH  39  42
HETATM   42  C   UNK N   1      21.048  14.189   8.363  0.00  0.00     0.298 C 
HETATM   43  O   UNK N   1      20.434  13.615   7.474  0.00  0.00    -0.259 OA
BRANCH  42  44
HETATM   44  O   UNK N   1      21.011  15.540   8.436  0.00  0.00    -0.322 OA
HETATM   45  C   UNK N   1      19.873  16.214   8.820  0.00  0.00     0.213 C 
ENDBRANCH  42  44
ENDBRANCH  39  42
ENDBRANCH  33  34
ENDBRANCH  32  33
ENDBRANCH  31  32
ENDBRANCH  30  31
ENDBRANCH  29  30
ENDBRANCH  27  29
BRANCH  26  46
HETATM   46  O   UNK N   1      22.465  17.133   6.733  0.00  0.00    -0.348 OA
HETATM   47  H   UNK N   1      22.987  17.587   7.365  0.00  0.00     0.219 HD
ENDBRANCH  26  46
ENDBRANCH   1  26
BRANCH   1  48
HETATM   48  N   UNK N   1      22.536  18.252   3.801  0.00  0.00    -0.338 N 
HETATM   49  C   UNK N   1      21.588  17.903   2.991  0.00  0.00     0.259 C 
ATOM     50  HN  UNK N   1      22.685  19.246   3.972  1.00  0.00     0.164 HD
BRANCH  49  51
HETATM   51  O   UNK N   1      20.883  18.857   2.351  0.00  0.00    -0.327 OA
HETATM   52  H   UNK N   1      20.913  19.769   2.134  0.00  0.00     0.221 HD
ENDBRANCH  49  51
BRANCH  49  53
HETATM   53  O   UNK N   1      21.270  16.592   2.825  0.00  0.00    -0.313 OA
BRANCH  53  54
HETATM   54  C   UNK N   1      20.016  16.073   3.076  0.00  0.00     0.206 C 
BRANCH  54  55
HETATM   55  C   UNK N   1      19.430  16.519   4.395  0.00  0.00    -0.011 C 
HETATM   56  C   UNK N   1      18.769  15.705   5.218  0.00  0.00     0.009 C 
ENDBRANCH  54  55
ENDBRANCH  53  54
ENDBRANCH  49  53
ENDBRANCH   1  48
TORSDOF 24
ENDMDL
MODEL 8
REMARK VINA RESULT:      -6.6      2.571      6.195
REMARK  24 active torsions:
REMARK  status: ('A' for Active; 'I' for Inactive)
REMARK    1  A    between atoms: C_18  and  C_3 
REMARK    2  A    between atoms: C_7  and  C_6 
REMARK    3  A    between atoms: C_17  and  C_6 
REMARK    4  A    between atoms: C_19  and  C_7 
REMARK    5  A    between atoms: N_35  and  C_17 
REMARK    6  A    between atoms: O_51  and  C_18 
REMARK    7  A    between atoms: O_50  and  C_19 
REMARK    8  A    between atoms: C_21  and  C_20 
REMARK    9  A    between atoms: C_24  and  C_20 
REMARK   10  A    between atoms: N_39  and  C_22 
REMARK   11  A    between atoms: C_31  and  C_23 
REMARK   12  A    between atoms: C_29  and  C_24 
REMARK   13  A    between atoms: C_24  and  N_37 
REMARK   14  A    between atoms: N_39  and  C_25 
REMARK   15  A    between atoms: O_40  and  C_26 
REMARK   16  A    between atoms: O_50  and  C_27 
REMARK   17  A    between atoms: C_33  and  C_28 
REMARK   18  A    between atoms: O_41  and  C_29 
REMARK   19  A    between atoms: C_32  and  C_30 
REMARK       I    between atoms: N_39  and  C_30 
REMARK   20  A    between atoms: O_44  and  C_31 
REMARK   21  A    between atoms: O_45  and  C_32 
REMARK   22  A    between atoms: O_49  and  C_33 
REMARK   23  A    between atoms: C_34  and  O_48 
REMARK   24  A    between atoms: O_51  and  C_34 
ROOT
HETATM    1  C   UNK N   1      20.281  17.280   3.129  0.00  0.00     0.164 C 
ENDROOT
BRANCH   1   2
HETATM    2  C   UNK N   1      20.311  18.666   3.806  0.00  0.00     0.072 C 
BRANCH   2   3
HETATM    3  C   UNK N   1      21.712  18.847   4.240  0.00  0.00    -0.056 A 
HETATM    4  C   UNK N   1      22.650  19.243   3.292  0.00  0.00     0.009 A 
HETATM    5  C   UNK N   1      23.994  19.020   3.531  0.00  0.00     0.030 A 
HETATM    6  C   UNK N   1      24.424  18.346   4.688  0.00  0.00     0.043 A 
HETATM    7  C   UNK N   1      23.475  17.950   5.638  0.00  0.00     0.030 A 
HETATM    8  C   UNK N   1      22.123  18.192   5.409  0.00  0.00     0.009 A 
BRANCH   6   9
HETATM    9  N   UNK N   1      25.825  18.137   4.859  0.00  0.00    -0.273 N 
HETATM   10  C   UNK N   1      26.607  19.277   4.962  0.00  0.00     0.326 C 
HETATM   11  O   UNK N   1      27.711  19.301   4.456  0.00  0.00    -0.260 OA
BRANCH   9  12
HETATM   12  C   UNK N   1      26.371  16.838   4.432  0.00  0.00     0.060 A 
HETATM   13  C   UNK N   1      26.115  16.426   3.098  0.00  0.00     0.031 A 
HETATM   14  C   UNK N   1      26.609  15.239   2.568  0.00  0.00     0.002 A 
HETATM   15  C   UNK N   1      27.400  14.414   3.348  0.00  0.00     0.001 A 
HETATM   16  C   UNK N   1      27.640  14.746   4.675  0.00  0.00     0.020 A 
HETATM   17  C   UNK N   1      27.120  15.917   5.260  0.00  0.00     0.065 A 
BRANCH  17  18
HETATM   18  C   UNK N   1      27.335  16.021   6.732  0.00  0.00     0.178 C 
HETATM   19  O   UNK N   1      28.437  16.328   7.163  0.00  0.00    -0.646 OA
BRANCH  18  20
HETATM   20  O   UNK N   1      26.378  15.651   7.604  0.00  0.00    -0.773 OA
HETATM   21  H   UNK N   1      26.432  15.512   8.530  0.00  0.00     0.167 HD
ENDBRANCH  18  20
ENDBRANCH  17  18
ENDBRANCH   9  12
BRANCH  10  22
HETATM   22  C   UNK N   1      26.116  20.554   5.581  0.00  0.00     0.237 C 
HETATM   23  O   UNK N   1      26.009  21.549   4.881  0.00  0.00    -0.643 OA
BRANCH  22  24
HETATM   24  O   UNK N   1      25.948  20.684   6.907  0.00  0.00    -0.769 OA
HETATM   25  H   UNK N   1      25.660  21.367   7.481  0.00  0.00     0.168 HD
ENDBRANCH  22  24
ENDBRANCH  10  22
ENDBRANCH   6   9
ENDBRANCH   2   3
ENDBRANCH   1   2
BRANCH   1  26
HETATM   26  C   UNK N   1      19.852  16.214   4.113  0.00  0.00     0.135 C 
HETATM   27  N   UNK N   1      20.609  15.251   4.522  0.00  0.00    -0.373 N 
ATOM     28  HN  UNK N   1      20.230  14.635   5.241  1.00  0.00     0.161 HD
BRANCH  27  29
HETATM   29  C   UNK N   1      21.941  14.973   4.053  0.00  0.00     0.121 C 
BRANCH  29  30
HETATM   30  C   UNK N   1      22.486  13.725   4.725  0.00  0.00     0.022 C 
BRANCH  30  31
HETATM   31  C   UNK N   1      23.934  13.909   5.136  0.00  0.00     0.028 C 
BRANCH  31  32
HETATM   32  C   UNK N   1      24.195  13.170   6.433  0.00  0.00     0.175 C 
BRANCH  32  33
HETATM   33  O   UNK N   1      23.893  13.985   7.503  0.00  0.00    -0.350 OA
BRANCH  33  34
HETATM   34  C   UNK N   1      23.276  13.531   8.621  0.00  0.00     0.087 A 
HETATM   35  C   UNK N   1      24.067  12.858   9.559  0.00  0.00     0.038 A 
HETATM   36  C   UNK N   1      23.498  12.280  10.691  0.00  0.00     0.005 A 
HETATM   37  C   UNK N   1      22.125  12.360  10.896  0.00  0.00     0.038 A 
HETATM   38  C   UNK N   1      21.310  13.041   9.990  0.00  0.00     0.084 A 
HETATM   39  C   UNK N   1      21.869  13.658   8.845  0.00  0.00     0.105 A 
BRANCH  38  40
HETATM   40  O   UNK N   1      19.993  13.129  10.247  0.00  0.00    -0.360 OA
HETATM   41  H   UNK N   1      19.506  13.872   9.949  0.00  0.00     0.217 HD
ENDBRANCH  38  40
BRANCH  39  42
HETATM   42  C   UNK N   1      20.982  14.438   7.926  0.00  0.00     0.298 C 
HETATM   43  O   UNK N   1      20.099  13.872   7.296  0.00  0.00    -0.259 OA
BRANCH  42  44
HETATM   44  O   UNK N   1      21.174  15.768   7.759  0.00  0.00    -0.322 OA
HETATM   45  C   UNK N   1      20.249  16.694   8.187  0.00  0.00     0.213 C 
ENDBRANCH  42  44
ENDBRANCH  39  42
ENDBRANCH  33  34
ENDBRANCH  32  33
ENDBRANCH  31  32
ENDBRANCH  30  31
ENDBRANCH  29  30
ENDBRANCH  27  29
BRANCH  26  46
HETATM   46  O   UNK N   1      18.648  16.363   4.699  0.00  0.00    -0.348 OA
HETATM   47  H   UNK N   1      18.355  16.929   5.386  0.00  0.00     0.219 HD
ENDBRANCH  26  46
ENDBRANCH   1  26
BRANCH   1  48
HETATM   48  N   UNK N   1      19.545  17.381   1.878  0.00  0.00    -0.338 N 
HETATM   49  C   UNK N   1      19.855  16.712   0.814  0.00  0.00     0.259 C 
ATOM     50  HN  UNK N   1      18.743  18.010   1.837  1.00  0.00     0.164 HD
BRANCH  49  51
HETATM   51  O   UNK N   1      19.161  16.920  -0.323  0.00  0.00    -0.327 OA
HETATM   52  H   UNK N   1      18.304  17.149  -0.626  0.00  0.00     0.221 HD
ENDBRANCH  49  51
BRANCH  49  53
HETATM   53  O   UNK N   1      20.837  15.772   0.853  0.00  0.00    -0.313 OA
BRANCH  53  54
HETATM   54  C   UNK N   1      20.614  14.427   0.633  0.00  0.00     0.206 C 
BRANCH  54  55
HETATM   55  C   UNK N   1      19.246  13.962   1.068  0.00  0.00    -0.011 C 
HETATM   56  C   UNK N   1      19.030  13.244   2.171  0.00  0.00     0.009 C 
ENDBRANCH  54  55
ENDBRANCH  53  54
ENDBRANCH  49  53
ENDBRANCH   1  48
TORSDOF 24
ENDMDL
MODEL 9
REMARK VINA RESULT:      -6.6      4.872      8.827
REMARK  24 active torsions:
REMARK  status: ('A' for Active; 'I' for Inactive)
REMARK    1  A    between atoms: C_18  and  C_3 
REMARK    2  A    between atoms: C_7  and  C_6 
REMARK    3  A    between atoms: C_17  and  C_6 
REMARK    4  A    between atoms: C_19  and  C_7 
REMARK    5  A    between atoms: N_35  and  C_17 
REMARK    6  A    between atoms: O_51  and  C_18 
REMARK    7  A    between atoms: O_50  and  C_19 
REMARK    8  A    between atoms: C_21  and  C_20 
REMARK    9  A    between atoms: C_24  and  C_20 
REMARK   10  A    between atoms: N_39  and  C_22 
REMARK   11  A    between atoms: C_31  and  C_23 
REMARK   12  A    between atoms: C_29  and  C_24 
REMARK   13  A    between atoms: C_24  and  N_37 
REMARK   14  A    between atoms: N_39  and  C_25 
REMARK   15  A    between atoms: O_40  and  C_26 
REMARK   16  A    between atoms: O_50  and  C_27 
REMARK   17  A    between atoms: C_33  and  C_28 
REMARK   18  A    between atoms: O_41  and  C_29 
REMARK   19  A    between atoms: C_32  and  C_30 
REMARK       I    between atoms: N_39  and  C_30 
REMARK   20  A    between atoms: O_44  and  C_31 
REMARK   21  A    between atoms: O_45  and  C_32 
REMARK   22  A    between atoms: O_49  and  C_33 
REMARK   23  A    between atoms: C_34  and  O_48 
REMARK   24  A    between atoms: O_51  and  C_34 
ROOT
HETATM    1  C   UNK N   1      28.763  17.556   7.256  0.00  0.00     0.164 C 
ENDROOT
BRANCH   1   2
HETATM    2  C   UNK N   1      29.836  18.112   8.214  0.00  0.00     0.072 C 
BRANCH   2   3
HETATM    3  C   UNK N   1      31.059  17.343   7.904  0.00  0.00    -0.056 A 
HETATM    4  C   UNK N   1      30.948  15.966   7.743  0.00  0.00     0.009 A 
HETATM    5  C   UNK N   1      32.074  15.172   7.874  0.00  0.00     0.030 A 
HETATM    6  C   UNK N   1      33.316  15.728   8.225  0.00  0.00     0.043 A 
HETATM    7  C   UNK N   1      33.422  17.115   8.387  0.00  0.00     0.030 A 
HETATM    8  C   UNK N   1      32.294  17.918   8.235  0.00  0.00     0.009 A 
BRANCH   6   9
HETATM    9  N   UNK N   1      34.431  14.846   8.359  0.00  0.00    -0.273 N 
HETATM   10  C   UNK N   1      35.217  15.020   9.488  0.00  0.00     0.326 C 
HETATM   11  O   UNK N   1      36.421  14.880   9.414  0.00  0.00    -0.260 OA
BRANCH   9  12
HETATM   12  C   UNK N   1      34.934  14.203   7.134  0.00  0.00     0.060 A 
HETATM   13  C   UNK N   1      35.083  15.017   5.981  0.00  0.00     0.031 A 
HETATM   14  C   UNK N   1      35.585  14.532   4.777  0.00  0.00     0.002 A 
HETATM   15  C   UNK N   1      35.977  13.209   4.679  0.00  0.00     0.001 A 
HETATM   16  C   UNK N   1      35.806  12.359   5.763  0.00  0.00     0.020 A 
HETATM   17  C   UNK N   1      35.261  12.802   6.983  0.00  0.00     0.065 A 
BRANCH  17  18
HETATM   18  C   UNK N   1      34.993  11.716   7.971  0.00  0.00     0.178 C 
HETATM   19  O   UNK N   1      34.094  10.915   7.762  0.00  0.00    -0.646 OA
BRANCH  18  20
HETATM   20  O   UNK N   1      35.632  11.680   9.156  0.00  0.00    -0.773 OA
HETATM   21  H   UNK N   1      35.678  12.328   9.832  0.00  0.00     0.167 HD
ENDBRANCH  18  20
ENDBRANCH  17  18
ENDBRANCH   9  12
BRANCH  10  22
HETATM   22  C   UNK N   1      34.669  15.490  10.804  0.00  0.00     0.237 C 
HETATM   23  O   UNK N   1      35.222  16.414  11.381  0.00  0.00    -0.643 OA
BRANCH  22  24
HETATM   24  O   UNK N   1      33.694  14.828  11.447  0.00  0.00    -0.769 OA
HETATM   25  H   UNK N   1      33.370  14.802  12.327  0.00  0.00     0.168 HD
ENDBRANCH  22  24
ENDBRANCH  10  22
ENDBRANCH   6   9
ENDBRANCH   2   3
ENDBRANCH   1   2
BRANCH   1  26
HETATM   26  C   UNK N   1      27.572  17.036   8.031  0.00  0.00     0.135 C 
HETATM   27  N   UNK N   1      26.682  16.235   7.549  0.00  0.00    -0.373 N 
ATOM     28  HN  UNK N   1      25.964  15.897   8.191  1.00  0.00     0.161 HD
BRANCH  27  29
HETATM   29  C   UNK N   1      26.615  15.775   6.186  0.00  0.00     0.121 C 
BRANCH  29  30
HETATM   30  C   UNK N   1      26.449  14.266   6.149  0.00  0.00     0.022 C 
BRANCH  30  31
HETATM   31  C   UNK N   1      24.994  13.868   6.312  0.00  0.00     0.028 C 
BRANCH  31  32
HETATM   32  C   UNK N   1      24.798  13.194   7.655  0.00  0.00     0.175 C 
BRANCH  32  33
HETATM   33  O   UNK N   1      23.847  13.874   8.384  0.00  0.00    -0.350 OA
BRANCH  33  34
HETATM   34  C   UNK N   1      23.165  13.309   9.410  0.00  0.00     0.087 A 
HETATM   35  C   UNK N   1      23.891  12.500  10.292  0.00  0.00     0.038 A 
HETATM   36  C   UNK N   1      23.254  11.808  11.317  0.00  0.00     0.005 A 
HETATM   37  C   UNK N   1      21.875  11.910  11.473  0.00  0.00     0.038 A 
HETATM   38  C   UNK N   1      21.124  12.725  10.624  0.00  0.00     0.084 A 
HETATM   39  C   UNK N   1      21.753  13.456   9.588  0.00  0.00     0.105 A 
BRANCH  38  40
HETATM   40  O   UNK N   1      19.799  12.827  10.833  0.00  0.00    -0.360 OA
HETATM   41  H   UNK N   1      19.198  12.538  10.176  0.00  0.00     0.217 HD
ENDBRANCH  38  40
BRANCH  39  42
HETATM   42  C   UNK N   1      20.933  14.374   8.735  0.00  0.00     0.298 C 
HETATM   43  O   UNK N   1      20.216  13.918   7.855  0.00  0.00    -0.259 OA
BRANCH  42  44
HETATM   44  O   UNK N   1      21.007  15.715   8.909  0.00  0.00    -0.322 OA
HETATM   45  C   UNK N   1      19.990  16.554   8.515  0.00  0.00     0.213 C 
ENDBRANCH  42  44
ENDBRANCH  39  42
ENDBRANCH  33  34
ENDBRANCH  32  33
ENDBRANCH  31  32
ENDBRANCH  30  31
ENDBRANCH  29  30
ENDBRANCH  27  29
BRANCH  26  46
HETATM   46  O   UNK N   1      27.518  17.324   9.346  0.00  0.00    -0.348 OA
HETATM   47  H   UNK N   1      27.751  18.095   9.825  0.00  0.00     0.219 HD
ENDBRANCH  26  46
ENDBRANCH   1  26
BRANCH   1  48
HETATM   48  N   UNK N   1      28.513  18.534   6.208  0.00  0.00    -0.338 N 
HETATM   49  C   UNK N   1      28.831  18.345   4.967  0.00  0.00     0.259 C 
ATOM     50  HN  UNK N   1      28.063  19.414   6.463  1.00  0.00     0.164 HD
BRANCH  49  51
HETATM   51  O   UNK N   1      28.626  19.335   4.075  0.00  0.00    -0.327 OA
HETATM   52  H   UNK N   1      28.945  19.659   3.255  0.00  0.00     0.221 HD
ENDBRANCH  49  51
BRANCH  49  53
HETATM   53  O   UNK N   1      29.318  17.144   4.556  0.00  0.00    -0.313 OA
BRANCH  53  54
HETATM   54  C   UNK N   1      30.465  17.005   3.801  0.00  0.00     0.206 C 
BRANCH  54  55
HETATM   55  C   UNK N   1      31.686  17.629   4.434  0.00  0.00    -0.011 C 
HETATM   56  C   UNK N   1      32.934  17.264   4.140  0.00  0.00     0.009 C 
ENDBRANCH  54  55
ENDBRANCH  53  54
ENDBRANCH  49  53
ENDBRANCH   1  48
TORSDOF 24
ENDMDL
