MODEL 1
REMARK VINA RESULT:      -7.4      0.000      0.000
REMARK  15 active torsions:
REMARK  status: ('A' for Active; 'I' for Inactive)
REMARK    1  A    between atoms: C_16  and  C_12 
REMARK    2  A    between atoms: N_27  and  C_12 
REMARK    3  A    between atoms: C_16  and  C_13 
REMARK    4  A    between atoms: N_28  and  C_13 
REMARK    5  A    between atoms: C_19  and  C_14 
REMARK    6  A    between atoms: O_30  and  C_14 
REMARK    7  A    between atoms: C_23  and  C_15 
REMARK    8  A    between atoms: N_25  and  C_16 
REMARK    9  A    between atoms: N_29  and  C_17 
REMARK   10  A    between atoms: O_39  and  C_18 
REMARK   11  A    between atoms: C_20  and  O_31 
REMARK   12  A    between atoms: C_21  and  O_32 
REMARK   13  A    between atoms: C_22  and  O_33 
REMARK   14  A    between atoms: O_34  and  C_23 
REMARK   15  A    between atoms: C_24  and  O_39 
ROOT
HETATM    1  C   UNK N   1      25.513  15.307   5.091  0.00  0.00     0.052 A 
HETATM    2  C   UNK N   1      25.345  17.304   3.729  0.00  0.00     0.052 A 
HETATM    3  C   UNK N   1      23.635  16.784   5.317  0.00  0.00     0.073 A 
HETATM    4  C   UNK N   1      26.012  16.123   4.037  0.00  0.00     0.019 A 
HETATM    5  C   UNK N   1      24.299  15.652   5.733  0.00  0.00     0.106 A 
HETATM    6  C   UNK N   1      24.176  17.643   4.370  0.00  0.00     0.075 A 
ENDROOT
BRANCH   4   7
HETATM    7  C   UNK N   1      27.278  15.884   3.290  0.00  0.00     0.146 C 
HETATM    8  N   UNK N   1      28.437  16.275   3.685  0.00  0.00    -0.362 N 
ATOM      9  HN  UNK N   1      29.217  16.167   3.036  1.00  0.00     0.162 HD
BRANCH   8  10
HETATM   10  C   UNK N   1      28.718  16.849   4.969  0.00  0.00     0.140 C 
BRANCH  10  11
HETATM   11  C   UNK N   1      29.868  16.083   5.664  0.00  0.00     0.299 C 
BRANCH  11  12
HETATM   12  N   UNK N   1      30.973  16.918   6.169  0.00  0.00     0.094 N 
HETATM   13  C   UNK N   1      32.238  16.617   5.472  0.00  0.00     0.298 C 
HETATM   14  C   UNK N   1      33.470  17.152   6.224  0.00  0.00     0.198 C 
HETATM   15  O   UNK N   1      33.098  17.973   7.299  0.00  0.00    -0.388 OA
HETATM   16  C   UNK N   1      32.427  17.129   8.190  0.00  0.00     0.198 C 
HETATM   17  C   UNK N   1      31.031  16.824   7.641  0.00  0.00     0.298 C 
ENDBRANCH  11  12
ENDBRANCH  10  11
BRANCH  10  18
HETATM   18  C   UNK N   1      29.004  18.335   4.866  0.00  0.00     0.299 C 
BRANCH  18  19
HETATM   19  N   UNK N   1      27.844  19.034   5.384  0.00  0.00     0.094 N 
HETATM   20  C   UNK N   1      27.508  20.121   4.478  0.00  0.00     0.298 C 
HETATM   21  C   UNK N   1      26.280  20.840   5.045  0.00  0.00     0.198 C 
HETATM   22  O   UNK N   1      26.611  21.420   6.279  0.00  0.00    -0.388 OA
HETATM   23  C   UNK N   1      26.891  20.363   7.167  0.00  0.00     0.198 C 
HETATM   24  C   UNK N   1      28.136  19.600   6.696  0.00  0.00     0.298 C 
ENDBRANCH  18  19
ENDBRANCH  10  18
ENDBRANCH   8  10
BRANCH   7  25
HETATM   25  O   UNK N   1      27.208  15.197   2.131  0.00  0.00    -0.346 OA
HETATM   26  H   UNK N   1      27.932  14.922   1.604  0.00  0.00     0.219 HD
ENDBRANCH   7  25
ENDBRANCH   4   7
BRANCH   5  27
HETATM   27  N   UNK N   1      23.811  15.002   6.904  0.00  0.00    -0.116 N 
HETATM   28  O   UNK N   1      24.465  14.154   7.426  0.00  0.00    -0.532 OA
HETATM   29  O   UNK N   1      22.651  15.067   7.164  0.00  0.00    -0.532 OA
ENDBRANCH   5  27
BRANCH   6  30
HETATM   30  O   UNK N   1      23.619  18.843   4.126  0.00  0.00    -0.318 OA
BRANCH  30  31
HETATM   31  C   UNK N   1      22.291  19.003   3.803  0.00  0.00     0.298 C 
HETATM   32  C   UNK N   1      22.008  20.042   2.667  0.00  0.00     0.205 C 
HETATM   33  C   UNK N   1      20.487  20.212   2.629  0.00  0.00     0.183 C 
HETATM   34  C   UNK N   1      19.850  18.835   2.386  0.00  0.00     0.180 C 
HETATM   35  C   UNK N   1      20.401  17.756   3.365  0.00  0.00     0.179 C 
HETATM   36  O   UNK N   1      21.811  17.755   3.364  0.00  0.00    -0.348 OA
BRANCH  32  37
HETATM   37  O   UNK N   1      22.585  21.299   2.850  0.00  0.00    -0.388 OA
HETATM   38  H   UNK N   1      23.548  21.408   2.831  0.00  0.00     0.210 HD
ENDBRANCH  32  37
BRANCH  33  39
HETATM   39  O   UNK N   1      20.043  20.754   3.843  0.00  0.00    -0.390 OA
HETATM   40  H   UNK N   1      20.084  21.404   4.563  0.00  0.00     0.210 HD
ENDBRANCH  33  39
BRANCH  34  41
HETATM   41  O   UNK N   1      18.461  18.934   2.495  0.00  0.00    -0.390 OA
HETATM   42  H   UNK N   1      17.780  18.636   1.872  0.00  0.00     0.210 HD
ENDBRANCH  34  41
BRANCH  35  43
HETATM   43  C   UNK N   1      19.977  16.359   2.929  0.00  0.00     0.198 C 
BRANCH  43  44
HETATM   44  O   UNK N   1      19.480  16.362   1.628  0.00  0.00    -0.398 OA
HETATM   45  H   UNK N   1      18.679  15.939   1.281  0.00  0.00     0.209 HD
ENDBRANCH  43  44
ENDBRANCH  35  43
ENDBRANCH  30  31
ENDBRANCH   6  30
TORSDOF 15
ENDMDL
MODEL 2
REMARK VINA RESULT:      -7.4      2.782      9.957
REMARK  15 active torsions:
REMARK  status: ('A' for Active; 'I' for Inactive)
REMARK    1  A    between atoms: C_16  and  C_12 
REMARK    2  A    between atoms: N_27  and  C_12 
REMARK    3  A    between atoms: C_16  and  C_13 
REMARK    4  A    between atoms: N_28  and  C_13 
REMARK    5  A    between atoms: C_19  and  C_14 
REMARK    6  A    between atoms: O_30  and  C_14 
REMARK    7  A    between atoms: C_23  and  C_15 
REMARK    8  A    between atoms: N_25  and  C_16 
REMARK    9  A    between atoms: N_29  and  C_17 
REMARK   10  A    between atoms: O_39  and  C_18 
REMARK   11  A    between atoms: C_20  and  O_31 
REMARK   12  A    between atoms: C_21  and  O_32 
REMARK   13  A    between atoms: C_22  and  O_33 
REMARK   14  A    between atoms: O_34  and  C_23 
REMARK   15  A    between atoms: C_24  and  O_39 
ROOT
HETATM    1  C   UNK N   1      28.219  18.585   6.907  0.00  0.00     0.052 A 
HETATM    2  C   UNK N   1      29.755  17.496   5.382  0.00  0.00     0.052 A 
HETATM    3  C   UNK N   1      30.122  17.385   7.742  0.00  0.00     0.073 A 
HETATM    4  C   UNK N   1      28.648  18.314   5.577  0.00  0.00     0.019 A 
HETATM    5  C   UNK N   1      28.981  18.110   8.002  0.00  0.00     0.106 A 
HETATM    6  C   UNK N   1      30.479  17.022   6.451  0.00  0.00     0.075 A 
ENDROOT
BRANCH   4   7
HETATM    7  C   UNK N   1      27.936  18.741   4.340  0.00  0.00     0.146 C 
HETATM    8  N   UNK N   1      27.048  18.035   3.736  0.00  0.00    -0.362 N 
ATOM      9  HN  UNK N   1      26.716  18.370   2.831  1.00  0.00     0.162 HD
BRANCH   8  10
HETATM   10  C   UNK N   1      26.486  16.814   4.237  0.00  0.00     0.140 C 
BRANCH  10  11
HETATM   11  C   UNK N   1      25.177  17.100   5.011  0.00  0.00     0.299 C 
BRANCH  11  12
HETATM   12  N   UNK N   1      23.965  17.232   4.181  0.00  0.00     0.094 N 
HETATM   13  C   UNK N   1      23.515  18.635   4.105  0.00  0.00     0.298 C 
HETATM   14  C   UNK N   1      22.065  18.766   3.607  0.00  0.00     0.198 C 
HETATM   15  O   UNK N   1      21.565  17.535   3.154  0.00  0.00    -0.388 OA
HETATM   16  C   UNK N   1      21.523  16.716   4.288  0.00  0.00     0.198 C 
HETATM   17  C   UNK N   1      22.944  16.272   4.642  0.00  0.00     0.298 C 
ENDBRANCH  11  12
ENDBRANCH  10  11
BRANCH  10  18
HETATM   18  C   UNK N   1      26.283  15.797   3.131  0.00  0.00     0.299 C 
BRANCH  18  19
HETATM   19  N   UNK N   1      27.353  14.824   3.240  0.00  0.00     0.094 N 
HETATM   20  C   UNK N   1      27.681  14.643   4.646  0.00  0.00     0.298 C 
HETATM   21  C   UNK N   1      28.809  13.610   4.733  0.00  0.00     0.198 C 
HETATM   22  O   UNK N   1      29.954  14.120   4.105  0.00  0.00    -0.388 OA
HETATM   23  C   UNK N   1      29.648  14.250   2.736  0.00  0.00     0.198 C 
HETATM   24  C   UNK N   1      28.544  15.298   2.545  0.00  0.00     0.298 C 
ENDBRANCH  18  19
ENDBRANCH  10  18
ENDBRANCH   8  10
BRANCH   7  25
HETATM   25  O   UNK N   1      28.228  19.954   3.829  0.00  0.00    -0.346 OA
HETATM   26  H   UNK N   1      28.647  20.661   4.279  0.00  0.00     0.219 HD
ENDBRANCH   7  25
ENDBRANCH   4   7
BRANCH   5  27
HETATM   27  N   UNK N   1      28.545  18.180   9.357  0.00  0.00    -0.116 N 
HETATM   28  O   UNK N   1      29.263  18.644  10.187  0.00  0.00    -0.532 OA
HETATM   29  O   UNK N   1      27.634  17.499   9.710  0.00  0.00    -0.532 OA
ENDBRANCH   5  27
BRANCH   6  30
HETATM   30  O   UNK N   1      31.476  16.145   6.231  0.00  0.00    -0.318 OA
BRANCH  30  31
HETATM   31  C   UNK N   1      32.166  15.522   7.244  0.00  0.00     0.298 C 
HETATM   32  C   UNK N   1      32.829  14.159   6.851  0.00  0.00     0.205 C 
HETATM   33  C   UNK N   1      33.344  13.555   8.161  0.00  0.00     0.183 C 
HETATM   34  C   UNK N   1      34.314  14.555   8.810  0.00  0.00     0.180 C 
HETATM   35  C   UNK N   1      33.703  15.985   8.901  0.00  0.00     0.179 C 
HETATM   36  O   UNK N   1      33.197  16.392   7.649  0.00  0.00    -0.348 OA
BRANCH  32  37
HETATM   37  O   UNK N   1      31.979  13.234   6.247  0.00  0.00    -0.388 OA
HETATM   38  H   UNK N   1      31.747  13.315   5.309  0.00  0.00     0.210 HD
ENDBRANCH  32  37
BRANCH  33  39
HETATM   39  O   UNK N   1      32.264  13.290   9.014  0.00  0.00    -0.390 OA
HETATM   40  H   UNK N   1      31.814  13.332   9.873  0.00  0.00     0.210 HD
ENDBRANCH  33  39
BRANCH  34  41
HETATM   41  O   UNK N   1      34.683  14.097  10.076  0.00  0.00    -0.390 OA
HETATM   42  H   UNK N   1      34.116  13.891  10.836  0.00  0.00     0.210 HD
ENDBRANCH  34  41
BRANCH  35  43
HETATM   43  C   UNK N   1      34.768  17.008   9.278  0.00  0.00     0.198 C 
BRANCH  43  44
HETATM   44  O   UNK N   1      34.910  17.107  10.660  0.00  0.00    -0.398 OA
HETATM   45  H   UNK N   1      35.439  17.736  11.174  0.00  0.00     0.209 HD
ENDBRANCH  43  44
ENDBRANCH  35  43
ENDBRANCH  30  31
ENDBRANCH   6  30
TORSDOF 15
ENDMDL
MODEL 3
REMARK VINA RESULT:      -7.4      4.136      8.369
REMARK  15 active torsions:
REMARK  status: ('A' for Active; 'I' for Inactive)
REMARK    1  A    between atoms: C_16  and  C_12 
REMARK    2  A    between atoms: N_27  and  C_12 
REMARK    3  A    between atoms: C_16  and  C_13 
REMARK    4  A    between atoms: N_28  and  C_13 
REMARK    5  A    between atoms: C_19  and  C_14 
REMARK    6  A    between atoms: O_30  and  C_14 
REMARK    7  A    between atoms: C_23  and  C_15 
REMARK    8  A    between atoms: N_25  and  C_16 
REMARK    9  A    between atoms: N_29  and  C_17 
REMARK   10  A    between atoms: O_39  and  C_18 
REMARK   11  A    between atoms: C_20  and  O_31 
REMARK   12  A    between atoms: C_21  and  O_32 
REMARK   13  A    between atoms: C_22  and  O_33 
REMARK   14  A    between atoms: O_34  and  C_23 
REMARK   15  A    between atoms: C_24  and  O_39 
ROOT
HETATM    1  C   UNK N   1      19.976  16.472   6.665  0.00  0.00     0.052 A 
HETATM    2  C   UNK N   1      20.193  14.148   7.315  0.00  0.00     0.052 A 
HETATM    3  C   UNK N   1      20.576  15.885   8.913  0.00  0.00     0.073 A 
HETATM    4  C   UNK N   1      19.984  15.091   6.316  0.00  0.00     0.019 A 
HETATM    5  C   UNK N   1      20.284  16.863   7.990  0.00  0.00     0.106 A 
HETATM    6  C   UNK N   1      20.473  14.535   8.605  0.00  0.00     0.075 A 
ENDROOT
BRANCH   4   7
HETATM    7  C   UNK N   1      19.667  14.544   4.968  0.00  0.00     0.146 C 
HETATM    8  N   UNK N   1      20.439  14.645   3.945  0.00  0.00    -0.362 N 
ATOM      9  HN  UNK N   1      20.068  14.343   3.044  1.00  0.00     0.162 HD
BRANCH   8  10
HETATM   10  C   UNK N   1      21.782  15.147   3.975  0.00  0.00     0.140 C 
BRANCH  10  11
HETATM   11  C   UNK N   1      22.795  13.990   3.810  0.00  0.00     0.299 C 
BRANCH  11  12
HETATM   12  N   UNK N   1      24.075  14.162   4.522  0.00  0.00     0.094 N 
HETATM   13  C   UNK N   1      23.980  15.210   5.556  0.00  0.00     0.298 C 
HETATM   14  C   UNK N   1      25.359  15.701   6.031  0.00  0.00     0.198 C 
HETATM   15  O   UNK N   1      26.392  14.903   5.517  0.00  0.00    -0.388 OA
HETATM   16  C   UNK N   1      26.356  15.104   4.132  0.00  0.00     0.198 C 
HETATM   17  C   UNK N   1      25.164  14.345   3.544  0.00  0.00     0.298 C 
ENDBRANCH  11  12
ENDBRANCH  10  11
BRANCH  10  18
HETATM   18  C   UNK N   1      21.992  16.239   2.944  0.00  0.00     0.299 C 
BRANCH  18  19
HETATM   19  N   UNK N   1      21.118  17.341   3.298  0.00  0.00     0.094 N 
HETATM   20  C   UNK N   1      20.232  17.616   2.178  0.00  0.00     0.298 C 
HETATM   21  C   UNK N   1      19.319  18.779   2.578  0.00  0.00     0.198 C 
HETATM   22  O   UNK N   1      20.095  19.929   2.782  0.00  0.00    -0.388 OA
HETATM   23  C   UNK N   1      20.919  19.676   3.897  0.00  0.00     0.198 C 
HETATM   24  C   UNK N   1      21.899  18.541   3.575  0.00  0.00     0.298 C 
ENDBRANCH  18  19
ENDBRANCH  10  18
ENDBRANCH   8  10
BRANCH   7  25
HETATM   25  O   UNK N   1      18.502  13.882   4.813  0.00  0.00    -0.346 OA
HETATM   26  H   UNK N   1      18.182  13.499   4.020  0.00  0.00     0.219 HD
ENDBRANCH   7  25
ENDBRANCH   4   7
BRANCH   5  27
HETATM   27  N   UNK N   1      20.133  18.195   8.476  0.00  0.00    -0.116 N 
HETATM   28  O   UNK N   1      19.294  18.439   9.287  0.00  0.00    -0.532 OA
HETATM   29  O   UNK N   1      20.604  19.096   7.856  0.00  0.00    -0.532 OA
ENDBRANCH   5  27
BRANCH   6  30
HETATM   30  O   UNK N   1      20.560  13.598   9.567  0.00  0.00    -0.318 OA
BRANCH  30  31
HETATM   31  C   UNK N   1      21.747  13.241  10.162  0.00  0.00     0.298 C 
HETATM   32  C   UNK N   1      21.735  11.849  10.879  0.00  0.00     0.205 C 
HETATM   33  C   UNK N   1      23.061  11.760  11.638  0.00  0.00     0.183 C 
HETATM   34  C   UNK N   1      24.211  11.933  10.632  0.00  0.00     0.180 C 
HETATM   35  C   UNK N   1      24.012  13.186   9.729  0.00  0.00     0.179 C 
HETATM   36  O   UNK N   1      22.726  13.187   9.151  0.00  0.00    -0.348 OA
BRANCH  32  37
HETATM   37  O   UNK N   1      20.696  11.655  11.788  0.00  0.00    -0.388 OA
HETATM   38  H   UNK N   1      20.014  12.333  11.912  0.00  0.00     0.210 HD
ENDBRANCH  32  37
BRANCH  33  39
HETATM   39  O   UNK N   1      23.110  12.761  12.619  0.00  0.00    -0.390 OA
HETATM   40  H   UNK N   1      22.788  13.193  13.426  0.00  0.00     0.210 HD
ENDBRANCH  33  39
BRANCH  34  41
HETATM   41  O   UNK N   1      25.426  12.006  11.316  0.00  0.00    -0.390 OA
HETATM   42  H   UNK N   1      26.005  12.774  11.443  0.00  0.00     0.210 HD
ENDBRANCH  34  41
BRANCH  35  43
HETATM   43  C   UNK N   1      24.997  13.180   8.566  0.00  0.00     0.198 C 
BRANCH  43  44
HETATM   44  O   UNK N   1      24.574  12.330   7.548  0.00  0.00    -0.398 OA
HETATM   45  H   UNK N   1      23.675  12.041   7.330  0.00  0.00     0.209 HD
ENDBRANCH  43  44
ENDBRANCH  35  43
ENDBRANCH  30  31
ENDBRANCH   6  30
TORSDOF 15
ENDMDL
MODEL 4
REMARK VINA RESULT:      -7.3      5.163      8.509
REMARK  15 active torsions:
REMARK  status: ('A' for Active; 'I' for Inactive)
REMARK    1  A    between atoms: C_16  and  C_12 
REMARK    2  A    between atoms: N_27  and  C_12 
REMARK    3  A    between atoms: C_16  and  C_13 
REMARK    4  A    between atoms: N_28  and  C_13 
REMARK    5  A    between atoms: C_19  and  C_14 
REMARK    6  A    between atoms: O_30  and  C_14 
REMARK    7  A    between atoms: C_23  and  C_15 
REMARK    8  A    between atoms: N_25  and  C_16 
REMARK    9  A    between atoms: N_29  and  C_17 
REMARK   10  A    between atoms: O_39  and  C_18 
REMARK   11  A    between atoms: C_20  and  O_31 
REMARK   12  A    between atoms: C_21  and  O_32 
REMARK   13  A    between atoms: C_22  and  O_33 
REMARK   14  A    between atoms: O_34  and  C_23 
REMARK   15  A    between atoms: C_24  and  O_39 
ROOT
HETATM    1  C   UNK N   1      19.420  16.415   6.210  0.00  0.00     0.052 A 
HETATM    2  C   UNK N   1      21.073  14.714   5.717  0.00  0.00     0.052 A 
HETATM    3  C   UNK N   1      21.477  16.319   7.443  0.00  0.00     0.073 A 
HETATM    4  C   UNK N   1      19.868  15.331   5.403  0.00  0.00     0.019 A 
HETATM    5  C   UNK N   1      20.251  16.913   7.243  0.00  0.00     0.106 A 
HETATM    6  C   UNK N   1      21.867  15.190   6.735  0.00  0.00     0.075 A 
ENDROOT
BRANCH   4   7
HETATM    7  C   UNK N   1      19.092  14.705   4.297  0.00  0.00     0.146 C 
HETATM    8  N   UNK N   1      19.242  14.994   3.053  0.00  0.00    -0.362 N 
ATOM      9  HN  UNK N   1      18.573  14.597   2.393  1.00  0.00     0.162 HD
BRANCH   8  10
HETATM   10  C   UNK N   1      20.279  15.831   2.522  0.00  0.00     0.140 C 
BRANCH  10  11
HETATM   11  C   UNK N   1      20.998  15.123   1.350  0.00  0.00     0.299 C 
BRANCH  11  12
HETATM   12  N   UNK N   1      22.077  14.195   1.736  0.00  0.00     0.094 N 
HETATM   13  C   UNK N   1      23.121  14.881   2.520  0.00  0.00     0.298 C 
HETATM   14  C   UNK N   1      24.432  14.078   2.592  0.00  0.00     0.198 C 
HETATM   15  O   UNK N   1      24.274  12.789   2.060  0.00  0.00    -0.388 OA
HETATM   16  C   UNK N   1      24.002  12.983   0.702  0.00  0.00     0.198 C 
HETATM   17  C   UNK N   1      22.563  13.477   0.541  0.00  0.00     0.298 C 
ENDBRANCH  11  12
ENDBRANCH  10  11
BRANCH  10  18
HETATM   18  C   UNK N   1      19.746  17.194   2.123  0.00  0.00     0.299 C 
BRANCH  18  19
HETATM   19  N   UNK N   1      20.846  18.134   2.230  0.00  0.00     0.094 N 
HETATM   20  C   UNK N   1      21.373  18.087   3.585  0.00  0.00     0.298 C 
HETATM   21  C   UNK N   1      22.533  19.084   3.671  0.00  0.00     0.198 C 
HETATM   22  O   UNK N   1      22.043  20.382   3.464  0.00  0.00    -0.388 OA
HETATM   23  C   UNK N   1      21.576  20.439   2.137  0.00  0.00     0.198 C 
HETATM   24  C   UNK N   1      20.382  19.491   1.963  0.00  0.00     0.298 C 
ENDBRANCH  18  19
ENDBRANCH  10  18
ENDBRANCH   8  10
BRANCH   7  25
HETATM   25  O   UNK N   1      18.185  13.760   4.617  0.00  0.00    -0.346 OA
HETATM   26  H   UNK N   1      17.771  13.164   4.024  0.00  0.00     0.219 HD
ENDBRANCH   7  25
ENDBRANCH   4   7
BRANCH   5  27
HETATM   27  N   UNK N   1      19.824  17.871   8.208  0.00  0.00    -0.116 N 
HETATM   28  O   UNK N   1      20.362  18.933   8.267  0.00  0.00    -0.532 OA
HETATM   29  O   UNK N   1      19.179  17.508   9.141  0.00  0.00    -0.532 OA
ENDBRANCH   5  27
BRANCH   6  30
HETATM   30  O   UNK N   1      22.970  14.504   7.082  0.00  0.00    -0.318 OA
BRANCH  30  31
HETATM   31  C   UNK N   1      22.977  13.538   8.062  0.00  0.00     0.298 C 
HETATM   32  C   UNK N   1      24.272  13.496   8.941  0.00  0.00     0.205 C 
HETATM   33  C   UNK N   1      24.151  12.234   9.799  0.00  0.00     0.183 C 
HETATM   34  C   UNK N   1      22.850  12.320  10.612  0.00  0.00     0.180 C 
HETATM   35  C   UNK N   1      21.624  12.666   9.715  0.00  0.00     0.179 C 
HETATM   36  O   UNK N   1      21.892  13.800   8.920  0.00  0.00    -0.348 OA
BRANCH  32  37
HETATM   37  O   UNK N   1      25.472  13.432   8.234  0.00  0.00    -0.388 OA
HETATM   38  H   UNK N   1      26.281  13.825   8.596  0.00  0.00     0.210 HD
ENDBRANCH  32  37
BRANCH  33  39
HETATM   39  O   UNK N   1      24.143  11.102   8.973  0.00  0.00    -0.390 OA
HETATM   40  H   UNK N   1      23.757  10.545   8.278  0.00  0.00     0.210 HD
ENDBRANCH  33  39
BRANCH  34  41
HETATM   41  O   UNK N   1      22.639  11.117  11.289  0.00  0.00    -0.390 OA
HETATM   42  H   UNK N   1      23.286  10.557  11.747  0.00  0.00     0.210 HD
ENDBRANCH  34  41
BRANCH  35  43
HETATM   43  C   UNK N   1      20.412  13.024  10.566  0.00  0.00     0.198 C 
BRANCH  43  44
HETATM   44  O   UNK N   1      19.586  13.937   9.914  0.00  0.00    -0.398 OA
HETATM   45  H   UNK N   1      19.377  14.003   8.970  0.00  0.00     0.209 HD
ENDBRANCH  43  44
ENDBRANCH  35  43
ENDBRANCH  30  31
ENDBRANCH   6  30
TORSDOF 15
ENDMDL
MODEL 5
REMARK VINA RESULT:      -7.2      5.452      9.944
REMARK  15 active torsions:
REMARK  status: ('A' for Active; 'I' for Inactive)
REMARK    1  A    between atoms: C_16  and  C_12 
REMARK    2  A    between atoms: N_27  and  C_12 
REMARK    3  A    between atoms: C_16  and  C_13 
REMARK    4  A    between atoms: N_28  and  C_13 
REMARK    5  A    between atoms: C_19  and  C_14 
REMARK    6  A    between atoms: O_30  and  C_14 
REMARK    7  A    between atoms: C_23  and  C_15 
REMARK    8  A    between atoms: N_25  and  C_16 
REMARK    9  A    between atoms: N_29  and  C_17 
REMARK   10  A    between atoms: O_39  and  C_18 
REMARK   11  A    between atoms: C_20  and  O_31 
REMARK   12  A    between atoms: C_21  and  O_32 
REMARK   13  A    between atoms: C_22  and  O_33 
REMARK   14  A    between atoms: O_34  and  C_23 
REMARK   15  A    between atoms: C_24  and  O_39 
ROOT
HETATM    1  C   UNK N   1      34.116  15.702   8.964  0.00  0.00     0.052 A 
HETATM    2  C   UNK N   1      32.428  15.002   7.373  0.00  0.00     0.052 A 
HETATM    3  C   UNK N   1      33.092  17.296   7.490  0.00  0.00     0.073 A 
HETATM    4  C   UNK N   1      33.269  14.688   8.434  0.00  0.00     0.019 A 
HETATM    5  C   UNK N   1      34.012  17.028   8.478  0.00  0.00     0.106 A 
HETATM    6  C   UNK N   1      32.348  16.289   6.892  0.00  0.00     0.075 A 
ENDROOT
BRANCH   4   7
HETATM    7  C   UNK N   1      33.283  13.256   8.844  0.00  0.00     0.146 C 
HETATM    8  N   UNK N   1      34.319  12.498   8.792  0.00  0.00    -0.362 N 
ATOM      9  HN  UNK N   1      34.185  11.504   8.979  1.00  0.00     0.162 HD
BRANCH   8  10
HETATM   10  C   UNK N   1      35.650  12.943   8.494  0.00  0.00     0.140 C 
BRANCH  10  11
HETATM   11  C   UNK N   1      36.542  12.859   9.755  0.00  0.00     0.299 C 
BRANCH  11  12
HETATM   12  N   UNK N   1      35.866  13.152  11.032  0.00  0.00     0.094 N 
HETATM   13  C   UNK N   1      36.369  14.401  11.633  0.00  0.00     0.298 C 
HETATM   14  C   UNK N   1      36.002  14.532  13.122  0.00  0.00     0.198 C 
HETATM   15  O   UNK N   1      35.107  13.527  13.520  0.00  0.00    -0.388 OA
HETATM   16  C   UNK N   1      35.818  12.329  13.391  0.00  0.00     0.198 C 
HETATM   17  C   UNK N   1      35.928  11.966  11.908  0.00  0.00     0.298 C 
ENDBRANCH  11  12
ENDBRANCH  10  11
BRANCH  10  18
HETATM   18  C   UNK N   1      36.244  12.182   7.324  0.00  0.00     0.299 C 
BRANCH  18  19
HETATM   19  N   UNK N   1      37.457  12.874   6.932  0.00  0.00     0.094 N 
HETATM   20  C   UNK N   1      37.151  13.764   5.823  0.00  0.00     0.298 C 
HETATM   21  C   UNK N   1      38.445  14.484   5.430  0.00  0.00     0.198 C 
HETATM   22  O   UNK N   1      39.374  13.543   4.960  0.00  0.00    -0.388 OA
HETATM   23  C   UNK N   1      39.703  12.712   6.048  0.00  0.00     0.198 C 
HETATM   24  C   UNK N   1      38.466  11.918   6.492  0.00  0.00     0.298 C 
ENDBRANCH  18  19
ENDBRANCH  10  18
ENDBRANCH   8  10
BRANCH   7  25
HETATM   25  O   UNK N   1      32.138  12.723   9.317  0.00  0.00    -0.346 OA
HETATM   26  H   UNK N   1      31.679  11.987   8.963  0.00  0.00     0.219 HD
ENDBRANCH   7  25
ENDBRANCH   4   7
BRANCH   5  27
HETATM   27  N   UNK N   1      34.927  18.068   8.818  0.00  0.00    -0.116 N 
HETATM   28  O   UNK N   1      35.555  17.998   9.828  0.00  0.00    -0.532 OA
HETATM   29  O   UNK N   1      34.828  19.127   8.282  0.00  0.00    -0.532 OA
ENDBRANCH   5  27
BRANCH   6  30
HETATM   30  O   UNK N   1      31.608  16.534   5.795  0.00  0.00    -0.318 OA
BRANCH  30  31
HETATM   31  C   UNK N   1      30.424  17.234   5.828  0.00  0.00     0.298 C 
HETATM   32  C   UNK N   1      29.452  16.944   4.635  0.00  0.00     0.205 C 
HETATM   33  C   UNK N   1      28.324  17.971   4.761  0.00  0.00     0.183 C 
HETATM   34  C   UNK N   1      27.674  17.814   6.145  0.00  0.00     0.180 C 
HETATM   35  C   UNK N   1      28.733  17.806   7.287  0.00  0.00     0.179 C 
HETATM   36  O   UNK N   1      29.756  16.875   7.014  0.00  0.00    -0.348 OA
BRANCH  32  37
HETATM   37  O   UNK N   1      30.014  17.064   3.365  0.00  0.00    -0.388 OA
HETATM   38  H   UNK N   1      30.665  17.757   3.176  0.00  0.00     0.210 HD
ENDBRANCH  32  37
BRANCH  33  39
HETATM   39  O   UNK N   1      28.843  19.263   4.602  0.00  0.00    -0.390 OA
HETATM   40  H   UNK N   1      28.981  20.178   4.895  0.00  0.00     0.210 HD
ENDBRANCH  33  39
BRANCH  34  41
HETATM   41  O   UNK N   1      26.742  18.835   6.345  0.00  0.00    -0.390 OA
HETATM   42  H   UNK N   1      25.806  18.762   6.587  0.00  0.00     0.210 HD
ENDBRANCH  34  41
BRANCH  35  43
HETATM   43  C   UNK N   1      28.106  17.369   8.606  0.00  0.00     0.198 C 
BRANCH  43  44
HETATM   44  O   UNK N   1      27.430  18.421   9.220  0.00  0.00    -0.398 OA
HETATM   45  H   UNK N   1      27.774  19.094   9.827  0.00  0.00     0.209 HD
ENDBRANCH  43  44
ENDBRANCH  35  43
ENDBRANCH  30  31
ENDBRANCH   6  30
TORSDOF 15
ENDMDL
MODEL 6
REMARK VINA RESULT:      -7.2      3.769      7.338
REMARK  15 active torsions:
REMARK  status: ('A' for Active; 'I' for Inactive)
REMARK    1  A    between atoms: C_16  and  C_12 
REMARK    2  A    between atoms: N_27  and  C_12 
REMARK    3  A    between atoms: C_16  and  C_13 
REMARK    4  A    between atoms: N_28  and  C_13 
REMARK    5  A    between atoms: C_19  and  C_14 
REMARK    6  A    between atoms: O_30  and  C_14 
REMARK    7  A    between atoms: C_23  and  C_15 
REMARK    8  A    between atoms: N_25  and  C_16 
REMARK    9  A    between atoms: N_29  and  C_17 
REMARK   10  A    between atoms: O_39  and  C_18 
REMARK   11  A    between atoms: C_20  and  O_31 
REMARK   12  A    between atoms: C_21  and  O_32 
REMARK   13  A    between atoms: C_22  and  O_33 
REMARK   14  A    between atoms: O_34  and  C_23 
REMARK   15  A    between atoms: C_24  and  O_39 
ROOT
HETATM    1  C   UNK N   1      31.469  17.370   8.433  0.00  0.00     0.052 A 
HETATM    2  C   UNK N   1      31.511  17.337   6.011  0.00  0.00     0.052 A 
HETATM    3  C   UNK N   1      29.433  17.553   7.174  0.00  0.00     0.073 A 
HETATM    4  C   UNK N   1      32.192  17.215   7.216  0.00  0.00     0.019 A 
HETATM    5  C   UNK N   1      30.063  17.536   8.398  0.00  0.00     0.106 A 
HETATM    6  C   UNK N   1      30.148  17.518   5.984  0.00  0.00     0.075 A 
ENDROOT
BRANCH   4   7
HETATM    7  C   UNK N   1      33.668  17.046   7.110  0.00  0.00     0.146 C 
HETATM    8  N   UNK N   1      34.272  15.912   7.147  0.00  0.00    -0.362 N 
ATOM      9  HN  UNK N   1      35.291  15.923   7.190  1.00  0.00     0.162 HD
BRANCH   8  10
HETATM   10  C   UNK N   1      33.622  14.634   7.131  0.00  0.00     0.140 C 
BRANCH  10  11
HETATM   11  C   UNK N   1      34.001  13.851   5.851  0.00  0.00     0.299 C 
BRANCH  11  12
HETATM   12  N   UNK N   1      32.942  13.753   4.831  0.00  0.00     0.094 N 
HETATM   13  C   UNK N   1      33.032  14.855   3.854  0.00  0.00     0.298 C 
HETATM   14  C   UNK N   1      31.741  15.027   3.035  0.00  0.00     0.198 C 
HETATM   15  O   UNK N   1      30.842  13.974   3.266  0.00  0.00    -0.388 OA
HETATM   16  C   UNK N   1      30.476  14.093   4.611  0.00  0.00     0.198 C 
HETATM   17  C   UNK N   1      31.630  13.608   5.492  0.00  0.00     0.298 C 
ENDBRANCH  11  12
ENDBRANCH  10  11
BRANCH  10  18
HETATM   18  C   UNK N   1      33.916  13.842   8.391  0.00  0.00     0.299 C 
BRANCH  18  19
HETATM   19  N   UNK N   1      34.817  14.640   9.200  0.00  0.00     0.094 N 
HETATM   20  C   UNK N   1      36.010  13.857   9.484  0.00  0.00     0.298 C 
HETATM   21  C   UNK N   1      36.945  14.722  10.336  0.00  0.00     0.198 C 
HETATM   22  O   UNK N   1      36.330  14.996  11.566  0.00  0.00    -0.388 OA
HETATM   23  C   UNK N   1      35.201  15.794  11.292  0.00  0.00     0.198 C 
HETATM   24  C   UNK N   1      34.185  14.993  10.466  0.00  0.00     0.298 C 
ENDBRANCH  18  19
ENDBRANCH  10  18
ENDBRANCH   8  10
BRANCH   7  25
HETATM   25  O   UNK N   1      34.421  18.153   6.944  0.00  0.00    -0.346 OA
HETATM   26  H   UNK N   1      35.306  18.183   6.639  0.00  0.00     0.219 HD
ENDBRANCH   7  25
ENDBRANCH   4   7
BRANCH   5  27
HETATM   27  N   UNK N   1      29.278  17.870   9.541  0.00  0.00    -0.116 N 
HETATM   28  O   UNK N   1      28.164  17.457   9.635  0.00  0.00    -0.532 OA
HETATM   29  O   UNK N   1      29.601  18.795  10.217  0.00  0.00    -0.532 OA
ENDBRANCH   5  27
BRANCH   6  30
HETATM   30  O   UNK N   1      29.539  17.742   4.806  0.00  0.00    -0.318 OA
BRANCH  30  31
HETATM   31  C   UNK N   1      28.236  17.379   4.552  0.00  0.00     0.298 C 
HETATM   32  C   UNK N   1      27.259  18.571   4.277  0.00  0.00     0.205 C 
HETATM   33  C   UNK N   1      25.857  17.958   4.238  0.00  0.00     0.183 C 
HETATM   34  C   UNK N   1      25.831  16.869   3.154  0.00  0.00     0.180 C 
HETATM   35  C   UNK N   1      27.018  15.872   3.301  0.00  0.00     0.179 C 
HETATM   36  O   UNK N   1      28.243  16.564   3.404  0.00  0.00    -0.348 OA
BRANCH  32  37
HETATM   37  O   UNK N   1      27.268  19.584   5.235  0.00  0.00    -0.388 OA
HETATM   38  H   UNK N   1      27.867  20.342   5.148  0.00  0.00     0.210 HD
ENDBRANCH  32  37
BRANCH  33  39
HETATM   39  O   UNK N   1      25.546  17.414   5.492  0.00  0.00    -0.390 OA
HETATM   40  H   UNK N   1      25.683  16.781   6.214  0.00  0.00     0.210 HD
ENDBRANCH  33  39
BRANCH  34  41
HETATM   41  O   UNK N   1      24.611  16.191   3.198  0.00  0.00    -0.390 OA
HETATM   42  H   UNK N   1      23.714  16.559   3.240  0.00  0.00     0.210 HD
ENDBRANCH  34  41
BRANCH  35  43
HETATM   43  C   UNK N   1      27.138  14.983   2.069  0.00  0.00     0.198 C 
BRANCH  43  44
HETATM   44  O   UNK N   1      28.470  14.781   1.716  0.00  0.00    -0.398 OA
HETATM   45  H   UNK N   1      29.019  13.991   1.836  0.00  0.00     0.209 HD
ENDBRANCH  43  44
ENDBRANCH  35  43
ENDBRANCH  30  31
ENDBRANCH   6  30
TORSDOF 15
ENDMDL
MODEL 7
REMARK VINA RESULT:      -7.2      5.265      8.986
REMARK  15 active torsions:
REMARK  status: ('A' for Active; 'I' for Inactive)
REMARK    1  A    between atoms: C_16  and  C_12 
REMARK    2  A    between atoms: N_27  and  C_12 
REMARK    3  A    between atoms: C_16  and  C_13 
REMARK    4  A    between atoms: N_28  and  C_13 
REMARK    5  A    between atoms: C_19  and  C_14 
REMARK    6  A    between atoms: O_30  and  C_14 
REMARK    7  A    between atoms: C_23  and  C_15 
REMARK    8  A    between atoms: N_25  and  C_16 
REMARK    9  A    between atoms: N_29  and  C_17 
REMARK   10  A    between atoms: O_39  and  C_18 
REMARK   11  A    between atoms: C_20  and  O_31 
REMARK   12  A    between atoms: C_21  and  O_32 
REMARK   13  A    between atoms: C_22  and  O_33 
REMARK   14  A    between atoms: O_34  and  C_23 
REMARK   15  A    between atoms: C_24  and  O_39 
ROOT
HETATM    1  C   UNK N   1      33.961  15.574   8.709  0.00  0.00     0.052 A 
HETATM    2  C   UNK N   1      32.288  15.093   7.024  0.00  0.00     0.052 A 
HETATM    3  C   UNK N   1      33.040  17.337   7.365  0.00  0.00     0.073 A 
HETATM    4  C   UNK N   1      33.088  14.648   8.071  0.00  0.00     0.019 A 
HETATM    5  C   UNK N   1      33.924  16.941   8.344  0.00  0.00     0.106 A 
HETATM    6  C   UNK N   1      32.271  16.420   6.662  0.00  0.00     0.075 A 
ENDROOT
BRANCH   4   7
HETATM    7  C   UNK N   1      33.033  13.186   8.348  0.00  0.00     0.146 C 
HETATM    8  N   UNK N   1      33.694  12.299   7.693  0.00  0.00    -0.362 N 
ATOM      9  HN  UNK N   1      33.486  11.320   7.886  1.00  0.00     0.162 HD
BRANCH   8  10
HETATM   10  C   UNK N   1      34.702  12.583   6.713  0.00  0.00     0.140 C 
BRANCH  10  11
HETATM   11  C   UNK N   1      36.087  12.103   7.208  0.00  0.00     0.299 C 
BRANCH  11  12
HETATM   12  N   UNK N   1      36.841  13.074   8.022  0.00  0.00     0.094 N 
HETATM   13  C   UNK N   1      38.209  13.263   7.504  0.00  0.00     0.298 C 
HETATM   14  C   UNK N   1      39.144  13.932   8.527  0.00  0.00     0.198 C 
HETATM   15  O   UNK N   1      38.433  14.388   9.648  0.00  0.00    -0.388 OA
HETATM   16  C   UNK N   1      37.937  13.233  10.262  0.00  0.00     0.198 C 
HETATM   17  C   UNK N   1      36.758  12.696   9.446  0.00  0.00     0.298 C 
ENDBRANCH  11  12
ENDBRANCH  10  11
BRANCH  10  18
HETATM   18  C   UNK N   1      34.346  11.996   5.360  0.00  0.00     0.299 C 
BRANCH  18  19
HETATM   19  N   UNK N   1      34.106  13.107   4.459  0.00  0.00     0.094 N 
HETATM   20  C   UNK N   1      32.705  13.097   4.067  0.00  0.00     0.298 C 
HETATM   21  C   UNK N   1      32.476  14.279   3.120  0.00  0.00     0.198 C 
HETATM   22  O   UNK N   1      33.232  14.091   1.953  0.00  0.00    -0.388 OA
HETATM   23  C   UNK N   1      34.588  14.148   2.329  0.00  0.00     0.198 C 
HETATM   24  C   UNK N   1      34.922  12.973   3.258  0.00  0.00     0.298 C 
ENDBRANCH  18  19
ENDBRANCH  10  18
ENDBRANCH   8  10
BRANCH   7  25
HETATM   25  O   UNK N   1      32.254  12.764   9.365  0.00  0.00    -0.346 OA
HETATM   26  H   UNK N   1      31.892  13.296  10.046  0.00  0.00     0.219 HD
ENDBRANCH   7  25
ENDBRANCH   4   7
BRANCH   5  27
HETATM   27  N   UNK N   1      34.871  17.906   8.797  0.00  0.00    -0.116 N 
HETATM   28  O   UNK N   1      35.380  17.780   9.867  0.00  0.00    -0.532 OA
HETATM   29  O   UNK N   1      34.907  18.975   8.273  0.00  0.00    -0.532 OA
ENDBRANCH   5  27
BRANCH   6  30
HETATM   30  O   UNK N   1      31.571  16.794   5.576  0.00  0.00    -0.318 OA
BRANCH  30  31
HETATM   31  C   UNK N   1      30.346  17.416   5.649  0.00  0.00     0.298 C 
HETATM   32  C   UNK N   1      29.347  17.048   4.501  0.00  0.00     0.205 C 
HETATM   33  C   UNK N   1      28.160  18.001   4.662  0.00  0.00     0.183 C 
HETATM   34  C   UNK N   1      27.579  17.822   6.073  0.00  0.00     0.180 C 
HETATM   35  C   UNK N   1      28.681  17.899   7.171  0.00  0.00     0.179 C 
HETATM   36  O   UNK N   1      29.751  17.032   6.867  0.00  0.00    -0.348 OA
BRANCH  32  37
HETATM   37  O   UNK N   1      29.848  17.186   3.208  0.00  0.00    -0.388 OA
HETATM   38  H   UNK N   1      30.316  16.454   2.777  0.00  0.00     0.210 HD
ENDBRANCH  32  37
BRANCH  33  39
HETATM   39  O   UNK N   1      28.587  19.322   4.468  0.00  0.00    -0.390 OA
HETATM   40  H   UNK N   1      29.144  20.087   4.680  0.00  0.00     0.210 HD
ENDBRANCH  33  39
BRANCH  34  41
HETATM   41  O   UNK N   1      26.591  18.783   6.300  0.00  0.00    -0.390 OA
HETATM   42  H   UNK N   1      25.940  19.142   5.677  0.00  0.00     0.210 HD
ENDBRANCH  34  41
BRANCH  35  43
HETATM   43  C   UNK N   1      28.138  17.440   8.520  0.00  0.00     0.198 C 
BRANCH  43  44
HETATM   44  O   UNK N   1      27.432  18.459   9.156  0.00  0.00    -0.398 OA
HETATM   45  H   UNK N   1      27.718  19.363   9.358  0.00  0.00     0.209 HD
ENDBRANCH  43  44
ENDBRANCH  35  43
ENDBRANCH  30  31
ENDBRANCH   6  30
TORSDOF 15
ENDMDL
MODEL 8
REMARK VINA RESULT:      -7.2      2.926      6.489
REMARK  15 active torsions:
REMARK  status: ('A' for Active; 'I' for Inactive)
REMARK    1  A    between atoms: C_16  and  C_12 
REMARK    2  A    between atoms: N_27  and  C_12 
REMARK    3  A    between atoms: C_16  and  C_13 
REMARK    4  A    between atoms: N_28  and  C_13 
REMARK    5  A    between atoms: C_19  and  C_14 
REMARK    6  A    between atoms: O_30  and  C_14 
REMARK    7  A    between atoms: C_23  and  C_15 
REMARK    8  A    between atoms: N_25  and  C_16 
REMARK    9  A    between atoms: N_29  and  C_17 
REMARK   10  A    between atoms: O_39  and  C_18 
REMARK   11  A    between atoms: C_20  and  O_31 
REMARK   12  A    between atoms: C_21  and  O_32 
REMARK   13  A    between atoms: C_22  and  O_33 
REMARK   14  A    between atoms: O_34  and  C_23 
REMARK   15  A    between atoms: C_24  and  O_39 
ROOT
HETATM    1  C   UNK N   1      21.706  19.529   3.290  0.00  0.00     0.052 A 
HETATM    2  C   UNK N   1      21.222  17.160   3.450  0.00  0.00     0.052 A 
HETATM    3  C   UNK N   1      20.303  18.458   1.664  0.00  0.00     0.073 A 
HETATM    4  C   UNK N   1      21.804  18.297   3.998  0.00  0.00     0.019 A 
HETATM    5  C   UNK N   1      20.935  19.599   2.105  0.00  0.00     0.106 A 
HETATM    6  C   UNK N   1      20.490  17.232   2.288  0.00  0.00     0.075 A 
ENDROOT
BRANCH   4   7
HETATM    7  C   UNK N   1      22.590  18.082   5.245  0.00  0.00     0.146 C 
HETATM    8  N   UNK N   1      23.770  17.574   5.278  0.00  0.00    -0.362 N 
ATOM      9  HN  UNK N   1      24.163  17.358   6.194  1.00  0.00     0.162 HD
BRANCH   8  10
HETATM   10  C   UNK N   1      24.576  17.290   4.127  0.00  0.00     0.140 C 
BRANCH  10  11
HETATM   11  C   UNK N   1      25.694  18.349   3.975  0.00  0.00     0.299 C 
BRANCH  11  12
HETATM   12  N   UNK N   1      26.051  19.075   5.208  0.00  0.00     0.094 N 
HETATM   13  C   UNK N   1      26.188  20.523   4.958  0.00  0.00     0.298 C 
HETATM   14  C   UNK N   1      26.940  21.250   6.087  0.00  0.00     0.198 C 
HETATM   15  O   UNK N   1      27.154  20.406   7.187  0.00  0.00    -0.388 OA
HETATM   16  C   UNK N   1      28.012  19.404   6.721  0.00  0.00     0.198 C 
HETATM   17  C   UNK N   1      27.222  18.435   5.837  0.00  0.00     0.298 C 
ENDBRANCH  11  12
ENDBRANCH  10  11
BRANCH  10  18
HETATM   18  C   UNK N   1      25.130  15.878   4.168  0.00  0.00     0.299 C 
BRANCH  18  19
HETATM   19  N   UNK N   1      24.696  15.282   5.417  0.00  0.00     0.094 N 
HETATM   20  C   UNK N   1      25.870  14.885   6.179  0.00  0.00     0.298 C 
HETATM   21  C   UNK N   1      25.386  14.262   7.492  0.00  0.00     0.198 C 
HETATM   22  O   UNK N   1      24.663  13.094   7.211  0.00  0.00    -0.388 OA
HETATM   23  C   UNK N   1      23.504  13.486   6.514  0.00  0.00     0.198 C 
HETATM   24  C   UNK N   1      23.891  14.094   5.159  0.00  0.00     0.298 C 
ENDBRANCH  18  19
ENDBRANCH  10  18
ENDBRANCH   8  10
BRANCH   7  25
HETATM   25  O   UNK N   1      22.036  18.461   6.415  0.00  0.00    -0.346 OA
HETATM   26  H   UNK N   1      22.120  18.022   7.238  0.00  0.00     0.219 HD
ENDBRANCH   7  25
ENDBRANCH   4   7
BRANCH   5  27
HETATM   27  N   UNK N   1      20.917  20.731   1.239  0.00  0.00    -0.116 N 
HETATM   28  O   UNK N   1      21.128  20.589   0.075  0.00  0.00    -0.532 OA
HETATM   29  O   UNK N   1      21.018  21.821   1.706  0.00  0.00    -0.532 OA
ENDBRANCH   5  27
BRANCH   6  30
HETATM   30  O   UNK N   1      20.035  16.096   1.728  0.00  0.00    -0.318 OA
BRANCH  30  31
HETATM   31  C   UNK N   1      20.639  14.874   1.910  0.00  0.00     0.298 C 
HETATM   32  C   UNK N   1      19.698  13.636   1.727  0.00  0.00     0.205 C 
HETATM   33  C   UNK N   1      20.514  12.423   2.181  0.00  0.00     0.183 C 
HETATM   34  C   UNK N   1      21.798  12.357   1.340  0.00  0.00     0.180 C 
HETATM   35  C   UNK N   1      22.547  13.723   1.312  0.00  0.00     0.179 C 
HETATM   36  O   UNK N   1      21.668  14.767   0.955  0.00  0.00    -0.348 OA
BRANCH  32  37
HETATM   37  O   UNK N   1      18.516  13.671   2.467  0.00  0.00    -0.388 OA
HETATM   38  H   UNK N   1      18.081  14.515   2.664  0.00  0.00     0.210 HD
ENDBRANCH  32  37
BRANCH  33  39
HETATM   39  O   UNK N   1      20.821  12.545   3.543  0.00  0.00    -0.390 OA
HETATM   40  H   UNK N   1      21.248  12.243   4.361  0.00  0.00     0.210 HD
ENDBRANCH  33  39
BRANCH  34  41
HETATM   41  O   UNK N   1      22.631  11.350   1.832  0.00  0.00    -0.390 OA
HETATM   42  H   UNK N   1      23.508  11.081   1.517  0.00  0.00     0.210 HD
ENDBRANCH  34  41
BRANCH  35  43
HETATM   43  C   UNK N   1      23.647  13.718   0.257  0.00  0.00     0.198 C 
BRANCH  43  44
HETATM   44  O   UNK N   1      23.534  12.617  -0.589  0.00  0.00    -0.398 OA
HETATM   45  H   UNK N   1      24.231  12.034  -0.925  0.00  0.00     0.209 HD
ENDBRANCH  43  44
ENDBRANCH  35  43
ENDBRANCH  30  31
ENDBRANCH   6  30
TORSDOF 15
ENDMDL
MODEL 9
REMARK VINA RESULT:      -7.2      2.882      6.353
REMARK  15 active torsions:
REMARK  status: ('A' for Active; 'I' for Inactive)
REMARK    1  A    between atoms: C_16  and  C_12 
REMARK    2  A    between atoms: N_27  and  C_12 
REMARK    3  A    between atoms: C_16  and  C_13 
REMARK    4  A    between atoms: N_28  and  C_13 
REMARK    5  A    between atoms: C_19  and  C_14 
REMARK    6  A    between atoms: O_30  and  C_14 
REMARK    7  A    between atoms: C_23  and  C_15 
REMARK    8  A    between atoms: N_25  and  C_16 
REMARK    9  A    between atoms: N_29  and  C_17 
REMARK   10  A    between atoms: O_39  and  C_18 
REMARK   11  A    between atoms: C_20  and  O_31 
REMARK   12  A    between atoms: C_21  and  O_32 
REMARK   13  A    between atoms: C_22  and  O_33 
REMARK   14  A    between atoms: O_34  and  C_23 
REMARK   15  A    between atoms: C_24  and  O_39 
ROOT
HETATM    1  C   UNK N   1      21.831  19.560   3.221  0.00  0.00     0.052 A 
HETATM    2  C   UNK N   1      21.252  17.216   3.423  0.00  0.00     0.052 A 
HETATM    3  C   UNK N   1      20.364  18.524   1.629  0.00  0.00     0.073 A 
HETATM    4  C   UNK N   1      21.888  18.336   3.946  0.00  0.00     0.019 A 
HETATM    5  C   UNK N   1      21.048  19.644   2.045  0.00  0.00     0.106 A 
HETATM    6  C   UNK N   1      20.509  17.301   2.268  0.00  0.00     0.075 A 
ENDROOT
BRANCH   4   7
HETATM    7  C   UNK N   1      22.680  18.107   5.186  0.00  0.00     0.146 C 
HETATM    8  N   UNK N   1      23.859  17.595   5.208  0.00  0.00    -0.362 N 
ATOM      9  HN  UNK N   1      24.257  17.369   6.120  1.00  0.00     0.162 HD
BRANCH   8  10
HETATM   10  C   UNK N   1      24.657  17.319   4.049  0.00  0.00     0.140 C 
BRANCH  10  11
HETATM   11  C   UNK N   1      25.917  18.217   4.035  0.00  0.00     0.299 C 
BRANCH  11  12
HETATM   12  N   UNK N   1      26.135  19.023   5.250  0.00  0.00     0.094 N 
HETATM   13  C   UNK N   1      26.175  20.464   4.940  0.00  0.00     0.298 C 
HETATM   14  C   UNK N   1      26.795  21.298   6.076  0.00  0.00     0.198 C 
HETATM   15  O   UNK N   1      27.001  20.523   7.227  0.00  0.00    -0.388 OA
HETATM   16  C   UNK N   1      27.963  19.574   6.863  0.00  0.00     0.198 C 
HETATM   17  C   UNK N   1      27.310  18.507   5.980  0.00  0.00     0.298 C 
ENDBRANCH  11  12
ENDBRANCH  10  11
BRANCH  10  18
HETATM   18  C   UNK N   1      25.006  15.846   3.950  0.00  0.00     0.299 C 
BRANCH  18  19
HETATM   19  N   UNK N   1      26.431  15.758   3.695  0.00  0.00     0.094 N 
HETATM   20  C   UNK N   1      26.638  15.124   2.402  0.00  0.00     0.298 C 
HETATM   21  C   UNK N   1      28.148  15.046   2.156  0.00  0.00     0.198 C 
HETATM   22  O   UNK N   1      28.732  14.212   3.121  0.00  0.00    -0.388 OA
HETATM   23  C   UNK N   1      28.571  14.850   4.366  0.00  0.00     0.198 C 
HETATM   24  C   UNK N   1      27.080  14.944   4.716  0.00  0.00     0.298 C 
ENDBRANCH  18  19
ENDBRANCH  10  18
ENDBRANCH   8  10
BRANCH   7  25
HETATM   25  O   UNK N   1      22.134  18.477   6.363  0.00  0.00    -0.346 OA
HETATM   26  H   UNK N   1      22.174  18.001   7.168  0.00  0.00     0.219 HD
ENDBRANCH   7  25
ENDBRANCH   4   7
BRANCH   5  27
HETATM   27  N   UNK N   1      21.066  20.763   1.162  0.00  0.00    -0.116 N 
HETATM   28  O   UNK N   1      20.725  21.835   1.556  0.00  0.00    -0.532 OA
HETATM   29  O   UNK N   1      21.103  20.575  -0.014  0.00  0.00    -0.532 OA
ENDBRANCH   5  27
BRANCH   6  30
HETATM   30  O   UNK N   1      20.000  16.176   1.732  0.00  0.00    -0.318 OA
BRANCH  30  31
HETATM   31  C   UNK N   1      20.586  14.940   1.882  0.00  0.00     0.298 C 
HETATM   32  C   UNK N   1      19.654  13.724   1.562  0.00  0.00     0.205 C 
HETATM   33  C   UNK N   1      20.431  12.479   1.998  0.00  0.00     0.183 C 
HETATM   34  C   UNK N   1      21.770  12.452   1.245  0.00  0.00     0.180 C 
HETATM   35  C   UNK N   1      22.525  13.811   1.349  0.00  0.00     0.179 C 
HETATM   36  O   UNK N   1      21.678  14.881   0.995  0.00  0.00    -0.348 OA
BRANCH  32  37
HETATM   37  O   UNK N   1      18.424  13.725   2.219  0.00  0.00    -0.388 OA
HETATM   38  H   UNK N   1      17.603  13.895   1.732  0.00  0.00     0.210 HD
ENDBRANCH  32  37
BRANCH  33  39
HETATM   39  O   UNK N   1      20.644  12.518   3.383  0.00  0.00    -0.390 OA
HETATM   40  H   UNK N   1      21.130  12.807   4.172  0.00  0.00     0.210 HD
ENDBRANCH  33  39
BRANCH  34  41
HETATM   41  O   UNK N   1      22.563  11.411   1.732  0.00  0.00    -0.390 OA
HETATM   42  H   UNK N   1      23.493  11.434   2.008  0.00  0.00     0.210 HD
ENDBRANCH  34  41
BRANCH  35  43
HETATM   43  C   UNK N   1      23.695  13.859   0.374  0.00  0.00     0.198 C 
BRANCH  43  44
HETATM   44  O   UNK N   1      23.640  12.807  -0.538  0.00  0.00    -0.398 OA
HETATM   45  H   UNK N   1      23.989  12.766  -1.441  0.00  0.00     0.209 HD
ENDBRANCH  43  44
ENDBRANCH  35  43
ENDBRANCH  30  31
ENDBRANCH   6  30
TORSDOF 15
ENDMDL
