MODEL 1
REMARK VINA RESULT:      -5.5      0.000      0.000
REMARK  4 active torsions:
REMARK  status: ('A' for Active; 'I' for Inactive)
REMARK    1  A    between atoms: C_3  and  C_4 
REMARK    2  A    between atoms: C_4  and  C_5 
REMARK    3  A    between atoms: C_5  and  C_6 
REMARK    4  A    between atoms: C_6  and  O_7 
ROOT
HETATM    1  C   UNK N   1      31.267  17.259   5.851  0.00  0.00     0.056 C 
HETATM    2  C   UNK N   1      32.310  17.327   6.922  0.00  0.00     0.029 A 
HETATM    3  C   UNK N   1      31.967  17.203   8.283  0.00  0.00     0.025 A 
HETATM    4  N   UNK N   1      32.939  17.284   9.231  0.00  0.00    -0.312 N 
HETATM    5  C   UNK N   1      34.251  17.481   8.887  0.00  0.00     0.327 A 
HETATM    6  O   UNK N   1      35.104  17.555   9.751  0.00  0.00    -0.247 OA
HETATM    7  N   UNK N   1      34.602  17.603   7.569  0.00  0.00    -0.275 N 
HETATM    8  C   UNK N   1      33.655  17.529   6.585  0.00  0.00     0.257 A 
HETATM    9  O   UNK N   1      33.990  17.646   5.418  0.00  0.00    -0.267 OA
HETATM   10  H   UNK N   1      32.696  17.201  10.181  0.00  0.00     0.170 HD
HETATM   11  H   UNK N   1      35.546  17.745   7.328  0.00  0.00     0.173 HD
ENDROOT
BRANCH   3  12
HETATM   12  C   UNK N   1      30.544  17.022   8.717  0.00  0.00     0.060 C 
BRANCH  12  13
HETATM   13  C   UNK N   1      29.947  18.312   9.256  0.00  0.00     0.032 C 
BRANCH  13  14
HETATM   14  C   UNK N   1      28.617  18.589   8.578  0.00  0.00     0.164 C 
BRANCH  14  15
HETATM   15  O   UNK N   1      27.571  18.166   9.399  0.00  0.00    -0.401 OA
HETATM   16  H   UNK N   1      27.280  17.242   9.433  0.00  0.00     0.209 HD
ENDBRANCH  14  15
ENDBRANCH  13  14
ENDBRANCH  12  13
ENDBRANCH   3  12
TORSDOF 4
ENDMDL
MODEL 2
REMARK VINA RESULT:      -5.1      6.538      8.684
REMARK  4 active torsions:
REMARK  status: ('A' for Active; 'I' for Inactive)
REMARK    1  A    between atoms: C_3  and  C_4 
REMARK    2  A    between atoms: C_4  and  C_5 
REMARK    3  A    between atoms: C_5  and  C_6 
REMARK    4  A    between atoms: C_6  and  O_7 
ROOT
HETATM    1  C   UNK N   1      34.541  11.944  13.588  0.00  0.00     0.056 C 
HETATM    2  C   UNK N   1      35.407  12.980  14.235  0.00  0.00     0.029 A 
HETATM    3  C   UNK N   1      36.047  13.976  13.471  0.00  0.00     0.025 A 
HETATM    4  N   UNK N   1      36.838  14.892  14.090  0.00  0.00    -0.312 N 
HETATM    5  C   UNK N   1      37.023  14.869  15.448  0.00  0.00     0.327 A 
HETATM    6  O   UNK N   1      37.738  15.696  15.980  0.00  0.00    -0.247 OA
HETATM    7  N   UNK N   1      36.408  13.909  16.206  0.00  0.00    -0.275 N 
HETATM    8  C   UNK N   1      35.605  12.967  15.622  0.00  0.00     0.257 A 
HETATM    9  O   UNK N   1      35.072  12.118  16.316  0.00  0.00    -0.267 OA
HETATM   10  H   UNK N   1      37.288  15.584  13.553  0.00  0.00     0.170 HD
HETATM   11  H   UNK N   1      36.544  13.897  17.180  0.00  0.00     0.173 HD
ENDROOT
BRANCH   3  12
HETATM   12  C   UNK N   1      35.909  14.025  11.979  0.00  0.00     0.060 C 
BRANCH  12  13
HETATM   13  C   UNK N   1      34.926  15.096  11.535  0.00  0.00     0.032 C 
BRANCH  13  14
HETATM   14  C   UNK N   1      35.672  16.234  10.862  0.00  0.00     0.164 C 
BRANCH  14  15
HETATM   15  O   UNK N   1      37.048  16.024  10.965  0.00  0.00    -0.401 OA
HETATM   16  H   UNK N   1      37.559  15.587  10.267  0.00  0.00     0.209 HD
ENDBRANCH  14  15
ENDBRANCH  13  14
ENDBRANCH  12  13
ENDBRANCH   3  12
TORSDOF 4
ENDMDL
MODEL 3
REMARK VINA RESULT:      -5.0      1.929      3.174
REMARK  4 active torsions:
REMARK  status: ('A' for Active; 'I' for Inactive)
REMARK    1  A    between atoms: C_3  and  C_4 
REMARK    2  A    between atoms: C_4  and  C_5 
REMARK    3  A    between atoms: C_5  and  C_6 
REMARK    4  A    between atoms: C_6  and  O_7 
ROOT
HETATM    1  C   UNK N   1      32.575  17.416   8.550  0.00  0.00     0.056 C 
HETATM    2  C   UNK N   1      32.382  17.396   7.066  0.00  0.00     0.029 A 
HETATM    3  C   UNK N   1      31.117  17.146   6.498  0.00  0.00     0.025 A 
HETATM    4  N   UNK N   1      30.981  17.120   5.146  0.00  0.00    -0.312 N 
HETATM    5  C   UNK N   1      32.052  17.338   4.320  0.00  0.00     0.327 A 
HETATM    6  O   UNK N   1      31.908  17.307   3.113  0.00  0.00    -0.247 OA
HETATM    7  N   UNK N   1      33.288  17.584   4.854  0.00  0.00    -0.275 N 
HETATM    8  C   UNK N   1      33.469  17.617   6.210  0.00  0.00     0.257 A 
HETATM    9  O   UNK N   1      34.580  17.831   6.663  0.00  0.00    -0.267 OA
HETATM   10  H   UNK N   1      30.096  16.941   4.752  0.00  0.00     0.170 HD
HETATM   11  H   UNK N   1      34.055  17.740   4.257  0.00  0.00     0.173 HD
ENDROOT
BRANCH   3  12
HETATM   12  C   UNK N   1      29.919  16.864   7.355  0.00  0.00     0.060 C 
BRANCH  12  13
HETATM   13  C   UNK N   1      29.102  18.119   7.618  0.00  0.00     0.032 C 
BRANCH  13  14
HETATM   14  C   UNK N   1      28.837  18.260   9.106  0.00  0.00     0.164 C 
BRANCH  14  15
HETATM   15  O   UNK N   1      27.461  18.311   9.338  0.00  0.00    -0.401 OA
HETATM   16  H   UNK N   1      27.012  17.686   9.928  0.00  0.00     0.209 HD
ENDBRANCH  14  15
ENDBRANCH  13  14
ENDBRANCH  12  13
ENDBRANCH   3  12
TORSDOF 4
ENDMDL
MODEL 4
REMARK VINA RESULT:      -5.0     14.242     15.753
REMARK  4 active torsions:
REMARK  status: ('A' for Active; 'I' for Inactive)
REMARK    1  A    between atoms: C_3  and  C_4 
REMARK    2  A    between atoms: C_4  and  C_5 
REMARK    3  A    between atoms: C_5  and  C_6 
REMARK    4  A    between atoms: C_6  and  O_7 
ROOT
HETATM    1  C   UNK N   1      26.305  23.588  -5.767  0.00  0.00     0.056 C 
HETATM    2  C   UNK N   1      26.186  24.892  -5.043  0.00  0.00     0.029 A 
HETATM    3  C   UNK N   1      26.683  25.048  -3.734  0.00  0.00     0.025 A 
HETATM    4  N   UNK N   1      26.544  26.243  -3.101  0.00  0.00    -0.312 N 
HETATM    5  C   UNK N   1      25.931  27.305  -3.713  0.00  0.00     0.327 A 
HETATM    6  O   UNK N   1      25.814  28.363  -3.126  0.00  0.00    -0.247 OA
HETATM    7  N   UNK N   1      25.442  27.172  -4.985  0.00  0.00    -0.275 N 
HETATM    8  C   UNK N   1      25.560  25.986  -5.658  0.00  0.00     0.257 A 
HETATM    9  O   UNK N   1      25.112  25.888  -6.787  0.00  0.00    -0.267 OA
HETATM   10  H   UNK N   1      26.889  26.348  -2.185  0.00  0.00     0.170 HD
HETATM   11  H   UNK N   1      25.003  27.937  -5.420  0.00  0.00     0.173 HD
ENDROOT
BRANCH   3  12
HETATM   12  C   UNK N   1      27.330  23.910  -3.004  0.00  0.00     0.060 C 
BRANCH  12  13
HETATM   13  C   UNK N   1      28.847  23.968  -3.092  0.00  0.00     0.032 C 
BRANCH  13  14
HETATM   14  C   UNK N   1      29.450  22.753  -2.410  0.00  0.00     0.164 C 
BRANCH  14  15
HETATM   15  O   UNK N   1      30.458  23.155  -1.533  0.00  0.00    -0.401 OA
HETATM   16  H   UNK N   1      30.275  23.415  -0.617  0.00  0.00     0.209 HD
ENDBRANCH  14  15
ENDBRANCH  13  14
ENDBRANCH  12  13
ENDBRANCH   3  12
TORSDOF 4
ENDMDL
MODEL 5
REMARK VINA RESULT:      -4.9      1.640      2.307
REMARK  4 active torsions:
REMARK  status: ('A' for Active; 'I' for Inactive)
REMARK    1  A    between atoms: C_3  and  C_4 
REMARK    2  A    between atoms: C_4  and  C_5 
REMARK    3  A    between atoms: C_5  and  C_6 
REMARK    4  A    between atoms: C_6  and  O_7 
ROOT
HETATM    1  C   UNK N   1      31.947  14.826   9.053  0.00  0.00     0.056 C 
HETATM    2  C   UNK N   1      32.801  16.040   8.861  0.00  0.00     0.029 A 
HETATM    3  C   UNK N   1      32.273  17.225   8.313  0.00  0.00     0.025 A 
HETATM    4  N   UNK N   1      33.082  18.304   8.139  0.00  0.00    -0.312 N 
HETATM    5  C   UNK N   1      34.405  18.264   8.494  0.00  0.00     0.327 A 
HETATM    6  O   UNK N   1      35.111  19.240   8.326  0.00  0.00    -0.247 OA
HETATM    7  N   UNK N   1      34.935  17.121   9.030  0.00  0.00    -0.275 N 
HETATM    8  C   UNK N   1      34.156  16.012   9.219  0.00  0.00     0.257 A 
HETATM    9  O   UNK N   1      34.651  15.003   9.691  0.00  0.00    -0.267 OA
HETATM   10  H   UNK N   1      32.710  19.130   7.752  0.00  0.00     0.170 HD
HETATM   11  H   UNK N   1      35.886  17.097   9.282  0.00  0.00     0.173 HD
ENDROOT
BRANCH   3  12
HETATM   12  C   UNK N   1      30.842  17.312   7.875  0.00  0.00     0.060 C 
BRANCH  12  13
HETATM   13  C   UNK N   1      29.979  18.036   8.896  0.00  0.00     0.032 C 
BRANCH  13  14
HETATM   14  C   UNK N   1      28.579  18.233   8.342  0.00  0.00     0.164 C 
BRANCH  14  15
HETATM   15  O   UNK N   1      27.651  18.218   9.384  0.00  0.00    -0.401 OA
HETATM   16  H   UNK N   1      27.138  17.427   9.609  0.00  0.00     0.209 HD
ENDBRANCH  14  15
ENDBRANCH  13  14
ENDBRANCH  12  13
ENDBRANCH   3  12
TORSDOF 4
ENDMDL
MODEL 6
REMARK VINA RESULT:      -4.9      8.505     10.057
REMARK  4 active torsions:
REMARK  status: ('A' for Active; 'I' for Inactive)
REMARK    1  A    between atoms: C_3  and  C_4 
REMARK    2  A    between atoms: C_4  and  C_5 
REMARK    3  A    between atoms: C_5  and  C_6 
REMARK    4  A    between atoms: C_6  and  O_7 
ROOT
HETATM    1  C   UNK N   1      34.562  12.021  14.044  0.00  0.00     0.056 C 
HETATM    2  C   UNK N   1      35.463  13.060  14.633  0.00  0.00     0.029 A 
HETATM    3  C   UNK N   1      35.552  13.244  16.027  0.00  0.00     0.025 A 
HETATM    4  N   UNK N   1      36.370  14.208  16.527  0.00  0.00    -0.312 N 
HETATM    5  C   UNK N   1      37.116  15.005  15.699  0.00  0.00     0.327 A 
HETATM    6  O   UNK N   1      37.839  15.864  16.168  0.00  0.00    -0.247 OA
HETATM    7  N   UNK N   1      37.043  14.841  14.342  0.00  0.00    -0.275 N 
HETATM    8  C   UNK N   1      36.231  13.883  13.798  0.00  0.00     0.257 A 
HETATM    9  O   UNK N   1      36.176  13.759  12.586  0.00  0.00    -0.267 OA
HETATM   10  H   UNK N   1      36.427  14.336  17.501  0.00  0.00     0.170 HD
HETATM   11  H   UNK N   1      37.580  15.416  13.752  0.00  0.00     0.173 HD
ENDROOT
BRANCH   3  12
HETATM   12  C   UNK N   1      34.732  12.424  16.976  0.00  0.00     0.060 C 
BRANCH  12  13
HETATM   13  C   UNK N   1      35.600  11.582  17.897  0.00  0.00     0.032 C 
BRANCH  13  14
HETATM   14  C   UNK N   1      35.421  12.036  19.335  0.00  0.00     0.164 C 
BRANCH  14  15
HETATM   15  O   UNK N   1      35.197  13.413  19.371  0.00  0.00    -0.401 OA
HETATM   16  H   UNK N   1      35.401  13.991  18.620  0.00  0.00     0.209 HD
ENDBRANCH  14  15
ENDBRANCH  13  14
ENDBRANCH  12  13
ENDBRANCH   3  12
TORSDOF 4
ENDMDL
MODEL 7
REMARK VINA RESULT:      -4.8      3.061      4.087
REMARK  4 active torsions:
REMARK  status: ('A' for Active; 'I' for Inactive)
REMARK    1  A    between atoms: C_3  and  C_4 
REMARK    2  A    between atoms: C_4  and  C_5 
REMARK    3  A    between atoms: C_5  and  C_6 
REMARK    4  A    between atoms: C_6  and  O_7 
ROOT
HETATM    1  C   UNK N   1      32.239  14.895   7.979  0.00  0.00     0.056 C 
HETATM    2  C   UNK N   1      33.082  16.122   8.134  0.00  0.00     0.029 A 
HETATM    3  C   UNK N   1      33.033  17.165   7.188  0.00  0.00     0.025 A 
HETATM    4  N   UNK N   1      33.824  18.259   7.352  0.00  0.00    -0.312 N 
HETATM    5  C   UNK N   1      34.668  18.370   8.426  0.00  0.00     0.327 A 
HETATM    6  O   UNK N   1      35.369  19.356   8.551  0.00  0.00    -0.247 OA
HETATM    7  N   UNK N   1      34.727  17.367   9.356  0.00  0.00    -0.275 N 
HETATM    8  C   UNK N   1      33.950  16.248   9.227  0.00  0.00     0.257 A 
HETATM    9  O   UNK N   1      34.025  15.365  10.064  0.00  0.00    -0.267 OA
HETATM   10  H   UNK N   1      33.790  18.984   6.687  0.00  0.00     0.170 HD
HETATM   11  H   UNK N   1      35.335  17.452  10.125  0.00  0.00     0.173 HD
ENDROOT
BRANCH   3  12
HETATM   12  C   UNK N   1      32.155  17.079   5.976  0.00  0.00     0.060 C 
BRANCH  12  13
HETATM   13  C   UNK N   1      32.943  17.266   4.690  0.00  0.00     0.032 C 
BRANCH  13  14
HETATM   14  C   UNK N   1      32.280  16.497   3.561  0.00  0.00     0.164 C 
BRANCH  14  15
HETATM   15  O   UNK N   1      31.903  17.379   2.547  0.00  0.00    -0.401 OA
HETATM   16  H   UNK N   1      32.006  17.162   1.607  0.00  0.00     0.209 HD
ENDBRANCH  14  15
ENDBRANCH  13  14
ENDBRANCH  12  13
ENDBRANCH   3  12
TORSDOF 4
ENDMDL
MODEL 8
REMARK VINA RESULT:      -4.8      9.559     11.465
REMARK  4 active torsions:
REMARK  status: ('A' for Active; 'I' for Inactive)
REMARK    1  A    between atoms: C_3  and  C_4 
REMARK    2  A    between atoms: C_4  and  C_5 
REMARK    3  A    between atoms: C_5  and  C_6 
REMARK    4  A    between atoms: C_6  and  O_7 
ROOT
HETATM    1  C   UNK N   1      20.463  12.000  11.781  0.00  0.00     0.056 C 
HETATM    2  C   UNK N   1      21.833  12.331  11.279  0.00  0.00     0.029 A 
HETATM    3  C   UNK N   1      22.022  12.945  10.025  0.00  0.00     0.025 A 
HETATM    4  N   UNK N   1      23.282  13.218   9.594  0.00  0.00    -0.312 N 
HETATM    5  C   UNK N   1      24.377  12.911  10.360  0.00  0.00     0.327 A 
HETATM    6  O   UNK N   1      25.495  13.161   9.953  0.00  0.00    -0.247 OA
HETATM    7  N   UNK N   1      24.212  12.316  11.581  0.00  0.00    -0.275 N 
HETATM    8  C   UNK N   1      22.961  12.022  12.052  0.00  0.00     0.257 A 
HETATM    9  O   UNK N   1      22.838  11.486  13.139  0.00  0.00    -0.267 OA
HETATM   10  H   UNK N   1      23.412  13.643   8.716  0.00  0.00     0.170 HD
HETATM   11  H   UNK N   1      25.001  12.097  12.127  0.00  0.00     0.173 HD
ENDROOT
BRANCH   3  12
HETATM   12  C   UNK N   1      20.863  13.269   9.132  0.00  0.00     0.060 C 
BRANCH  12  13
HETATM   13  C   UNK N   1      20.370  14.693   9.335  0.00  0.00     0.032 C 
BRANCH  13  14
HETATM   14  C   UNK N   1      20.547  15.488   8.054  0.00  0.00     0.164 C 
BRANCH  14  15
HETATM   15  O   UNK N   1      19.301  15.891   7.571  0.00  0.00    -0.401 OA
HETATM   16  H   UNK N   1      19.000  15.680   6.674  0.00  0.00     0.209 HD
ENDBRANCH  14  15
ENDBRANCH  13  14
ENDBRANCH  12  13
ENDBRANCH   3  12
TORSDOF 4
ENDMDL
MODEL 9
REMARK VINA RESULT:      -4.8      3.002      4.462
REMARK  4 active torsions:
REMARK  status: ('A' for Active; 'I' for Inactive)
REMARK    1  A    between atoms: C_3  and  C_4 
REMARK    2  A    between atoms: C_4  and  C_5 
REMARK    3  A    between atoms: C_5  and  C_6 
REMARK    4  A    between atoms: C_6  and  O_7 
ROOT
HETATM    1  C   UNK N   1      32.580  14.477   8.082  0.00  0.00     0.056 C 
HETATM    2  C   UNK N   1      33.297  15.787   8.183  0.00  0.00     0.029 A 
HETATM    3  C   UNK N   1      34.051  16.119   9.326  0.00  0.00     0.025 A 
HETATM    4  N   UNK N   1      34.677  17.324   9.390  0.00  0.00    -0.312 N 
HETATM    5  C   UNK N   1      34.594  18.224   8.359  0.00  0.00     0.327 A 
HETATM    6  O   UNK N   1      35.159  19.298   8.440  0.00  0.00    -0.247 OA
HETATM    7  N   UNK N   1      33.866  17.917   7.241  0.00  0.00    -0.275 N 
HETATM    8  C   UNK N   1      33.219  16.716   7.137  0.00  0.00     0.257 A 
HETATM    9  O   UNK N   1      32.572  16.467   6.134  0.00  0.00    -0.267 OA
HETATM   10  H   UNK N   1      35.200  17.556  10.191  0.00  0.00     0.170 HD
HETATM   11  H   UNK N   1      33.809  18.567   6.504  0.00  0.00     0.173 HD
ENDROOT
BRANCH   3  12
HETATM   12  C   UNK N   1      34.146  15.188  10.496  0.00  0.00     0.060 C 
BRANCH  12  13
HETATM   13  C   UNK N   1      35.332  15.517  11.389  0.00  0.00     0.032 C 
BRANCH  13  14
HETATM   14  C   UNK N   1      35.562  14.390  12.379  0.00  0.00     0.164 C 
BRANCH  14  15
HETATM   15  O   UNK N   1      34.415  13.600  12.472  0.00  0.00    -0.401 OA
HETATM   16  H   UNK N   1      34.381  12.694  12.130  0.00  0.00     0.209 HD
ENDBRANCH  14  15
ENDBRANCH  13  14
ENDBRANCH  12  13
ENDBRANCH   3  12
TORSDOF 4
ENDMDL
