MODEL 1
REMARK VINA RESULT:      -4.4      0.000      0.000
REMARK  1 active torsions:
REMARK  status: ('A' for Active; 'I' for Inactive)
REMARK    1  A    between atoms: C_4  and  C_10 
ROOT
HETATM    1  N   UNK N   1      33.413  16.831   6.683  0.00  0.00    -0.061 N 
HETATM    2  C   UNK N   1      33.357  17.992   7.598  0.00  0.00     0.289 C 
HETATM    3  C   UNK N   1      32.359  15.917   7.097  0.00  0.00     0.237 C 
HETATM    4  C   UNK N   1      32.059  17.894   8.390  0.00  0.00     0.046 C 
HETATM    5  C   UNK N   1      31.293  16.749   7.772  0.00  0.00     0.030 C 
HETATM    6  C   UNK N   1      33.114  17.299   5.338  0.00  0.00     0.273 C 
HETATM    7  C   UNK N   1      34.675  16.102   6.635  0.00  0.00     0.273 C 
ENDROOT
BRANCH   2   8
HETATM    8  C   UNK N   1      34.551  18.200   8.514  0.00  0.00     0.205 C 
HETATM    9  O   UNK N   1      34.708  17.444   9.619  0.00  0.00    -0.646 OA
HETATM   10  O   UNK N   1      35.351  19.092   8.282  0.00  0.00    -0.646 OA
ENDBRANCH   2   8
TORSDOF 1
ENDMDL
MODEL 2
REMARK VINA RESULT:      -4.0     16.947     17.847
REMARK  1 active torsions:
REMARK  status: ('A' for Active; 'I' for Inactive)
REMARK    1  A    between atoms: C_4  and  C_10 
ROOT
HETATM    1  N   UNK N   1      27.264  27.452  -5.616  0.00  0.00    -0.061 N 
HETATM    2  C   UNK N   1      25.996  28.084  -5.193  0.00  0.00     0.289 C 
HETATM    3  C   UNK N   1      26.955  26.069  -5.947  0.00  0.00     0.237 C 
HETATM    4  C   UNK N   1      24.861  27.133  -5.555  0.00  0.00     0.046 C 
HETATM    5  C   UNK N   1      25.501  26.027  -6.359  0.00  0.00     0.030 C 
HETATM    6  C   UNK N   1      27.724  28.123  -6.823  0.00  0.00     0.273 C 
HETATM    7  C   UNK N   1      28.354  27.470  -4.648  0.00  0.00     0.273 C 
ENDROOT
BRANCH   2   8
HETATM    8  C   UNK N   1      25.904  28.530  -3.743  0.00  0.00     0.205 C 
HETATM    9  O   UNK N   1      26.318  29.759  -3.375  0.00  0.00    -0.646 OA
HETATM   10  O   UNK N   1      25.501  27.755  -2.891  0.00  0.00    -0.646 OA
ENDBRANCH   2   8
TORSDOF 1
ENDMDL
MODEL 3
REMARK VINA RESULT:      -4.0     11.293     12.491
REMARK  1 active torsions:
REMARK  status: ('A' for Active; 'I' for Inactive)
REMARK    1  A    between atoms: C_4  and  C_10 
ROOT
HETATM    1  N   UNK N   1      23.217  12.433   9.022  0.00  0.00    -0.061 N 
HETATM    2  C   UNK N   1      21.770  12.502   9.319  0.00  0.00     0.289 C 
HETATM    3  C   UNK N   1      23.913  12.513  10.297  0.00  0.00     0.237 C 
HETATM    4  C   UNK N   1      21.598  12.330  10.824  0.00  0.00     0.046 C 
HETATM    5  C   UNK N   1      22.968  11.980  11.350  0.00  0.00     0.030 C 
HETATM    6  C   UNK N   1      23.496  11.136   8.426  0.00  0.00     0.273 C 
HETATM    7  C   UNK N   1      23.748  13.460   8.133  0.00  0.00     0.273 C 
ENDROOT
BRANCH   2   8
HETATM    8  C   UNK N   1      21.024  13.725   8.812  0.00  0.00     0.205 C 
HETATM    9  O   UNK N   1      21.044  14.879   9.508  0.00  0.00    -0.646 OA
HETATM   10  O   UNK N   1      20.356  13.653   7.792  0.00  0.00    -0.646 OA
ENDBRANCH   2   8
TORSDOF 1
ENDMDL
MODEL 4
REMARK VINA RESULT:      -4.0      0.915      2.306
REMARK  1 active torsions:
REMARK  status: ('A' for Active; 'I' for Inactive)
REMARK    1  A    between atoms: C_4  and  C_10 
ROOT
HETATM    1  N   UNK N   1      32.346  16.943   7.598  0.00  0.00    -0.061 N 
HETATM    2  C   UNK N   1      33.822  16.858   7.642  0.00  0.00     0.289 C 
HETATM    3  C   UNK N   1      31.989  17.382   6.258  0.00  0.00     0.237 C 
HETATM    4  C   UNK N   1      34.334  16.974   6.211  0.00  0.00     0.046 C 
HETATM    5  C   UNK N   1      33.104  16.943   5.337  0.00  0.00     0.030 C 
HETATM    6  C   UNK N   1      31.809  15.606   7.803  0.00  0.00     0.273 C 
HETATM    7  C   UNK N   1      31.716  17.833   8.566  0.00  0.00     0.273 C 
ENDROOT
BRANCH   2   8
HETATM    8  C   UNK N   1      34.536  17.830   8.567  0.00  0.00     0.205 C 
HETATM    9  O   UNK N   1      34.828  17.481   9.836  0.00  0.00    -0.646 OA
HETATM   10  O   UNK N   1      34.803  18.956   8.180  0.00  0.00    -0.646 OA
ENDBRANCH   2   8
TORSDOF 1
ENDMDL
MODEL 5
REMARK VINA RESULT:      -3.8      9.067      9.664
REMARK  1 active torsions:
REMARK  status: ('A' for Active; 'I' for Inactive)
REMARK    1  A    between atoms: C_4  and  C_10 
ROOT
HETATM    1  N   UNK N   1      36.146  11.718  15.135  0.00  0.00    -0.061 N 
HETATM    2  C   UNK N   1      35.658  13.101  15.321  0.00  0.00     0.289 C 
HETATM    3  C   UNK N   1      36.278  11.135  16.462  0.00  0.00     0.237 C 
HETATM    4  C   UNK N   1      35.219  13.245  16.773  0.00  0.00     0.046 C 
HETATM    5  C   UNK N   1      35.300  11.857  17.360  0.00  0.00     0.030 C 
HETATM    6  C   UNK N   1      35.131  10.973  14.405  0.00  0.00     0.273 C 
HETATM    7  C   UNK N   1      37.412  11.564  14.427  0.00  0.00     0.273 C 
ENDROOT
BRANCH   2   8
HETATM    8  C   UNK N   1      36.600  14.221  14.913  0.00  0.00     0.205 C 
HETATM    9  O   UNK N   1      37.527  14.686  15.774  0.00  0.00    -0.646 OA
HETATM   10  O   UNK N   1      36.488  14.743  13.815  0.00  0.00    -0.646 OA
ENDBRANCH   2   8
TORSDOF 1
ENDMDL
MODEL 6
REMARK VINA RESULT:      -3.8      1.944      2.859
REMARK  1 active torsions:
REMARK  status: ('A' for Active; 'I' for Inactive)
REMARK    1  A    between atoms: C_4  and  C_10 
ROOT
HETATM    1  N   UNK N   1      32.699  16.232   8.379  0.00  0.00    -0.061 N 
HETATM    2  C   UNK N   1      32.881  16.071   6.920  0.00  0.00     0.289 C 
HETATM    3  C   UNK N   1      31.534  17.082   8.568  0.00  0.00     0.237 C 
HETATM    4  C   UNK N   1      31.626  16.604   6.237  0.00  0.00     0.046 C 
HETATM    5  C   UNK N   1      30.654  16.902   7.353  0.00  0.00     0.030 C 
HETATM    6  C   UNK N   1      32.412  14.923   8.947  0.00  0.00     0.273 C 
HETATM    7  C   UNK N   1      33.822  16.803   9.114  0.00  0.00     0.273 C 
ENDROOT
BRANCH   2   8
HETATM    8  C   UNK N   1      34.138  16.673   6.316  0.00  0.00     0.205 C 
HETATM    9  O   UNK N   1      34.195  17.986   6.015  0.00  0.00    -0.646 OA
HETATM   10  O   UNK N   1      35.090  15.957   6.049  0.00  0.00    -0.646 OA
ENDBRANCH   2   8
TORSDOF 1
ENDMDL
MODEL 7
REMARK VINA RESULT:      -3.8     15.535     16.676
REMARK  1 active torsions:
REMARK  status: ('A' for Active; 'I' for Inactive)
REMARK    1  A    between atoms: C_4  and  C_10 
ROOT
HETATM    1  N   UNK N   1      26.321  26.394  -5.599  0.00  0.00    -0.061 N 
HETATM    2  C   UNK N   1      27.106  26.200  -4.360  0.00  0.00     0.289 C 
HETATM    3  C   UNK N   1      25.139  27.159  -5.234  0.00  0.00     0.237 C 
HETATM    4  C   UNK N   1      26.517  27.115  -3.293  0.00  0.00     0.046 C 
HETATM    5  C   UNK N   1      25.497  27.967  -4.008  0.00  0.00     0.030 C 
HETATM    6  C   UNK N   1      27.119  27.189  -6.520  0.00  0.00     0.273 C 
HETATM    7  C   UNK N   1      25.901  25.185  -6.298  0.00  0.00     0.273 C 
ENDROOT
BRANCH   2   8
HETATM    8  C   UNK N   1      27.243  24.774  -3.852  0.00  0.00     0.205 C 
HETATM    9  O   UNK N   1      26.299  24.235  -3.055  0.00  0.00    -0.646 OA
HETATM   10  O   UNK N   1      28.240  24.124  -4.123  0.00  0.00    -0.646 OA
ENDBRANCH   2   8
TORSDOF 1
ENDMDL
MODEL 8
REMARK VINA RESULT:      -3.8      1.466      2.225
REMARK  1 active torsions:
REMARK  status: ('A' for Active; 'I' for Inactive)
REMARK    1  A    between atoms: C_4  and  C_10 
ROOT
HETATM    1  N   UNK N   1      34.118  15.841   7.536  0.00  0.00    -0.061 N 
HETATM    2  C   UNK N   1      34.325  17.212   7.020  0.00  0.00     0.289 C 
HETATM    3  C   UNK N   1      32.987  15.284   6.810  0.00  0.00     0.237 C 
HETATM    4  C   UNK N   1      33.479  17.365   5.762  0.00  0.00     0.046 C 
HETATM    5  C   UNK N   1      32.929  15.989   5.474  0.00  0.00     0.030 C 
HETATM    6  C   UNK N   1      35.301  15.054   7.220  0.00  0.00     0.273 C 
HETATM    7  C   UNK N   1      33.865  15.716   8.967  0.00  0.00     0.273 C 
ENDROOT
BRANCH   2   8
HETATM    8  C   UNK N   1      34.083  18.353   7.993  0.00  0.00     0.205 C 
HETATM    9  O   UNK N   1      32.831  18.672   8.379  0.00  0.00    -0.646 OA
HETATM   10  O   UNK N   1      35.021  19.026   8.391  0.00  0.00    -0.646 OA
ENDBRANCH   2   8
TORSDOF 1
ENDMDL
MODEL 9
REMARK VINA RESULT:      -3.7      1.805      2.671
REMARK  1 active torsions:
REMARK  status: ('A' for Active; 'I' for Inactive)
REMARK    1  A    between atoms: C_4  and  C_10 
ROOT
HETATM    1  N   UNK N   1      33.211  15.910   8.511  0.00  0.00    -0.061 N 
HETATM    2  C   UNK N   1      34.568  16.486   8.619  0.00  0.00     0.289 C 
HETATM    3  C   UNK N   1      32.280  17.028   8.467  0.00  0.00     0.237 C 
HETATM    4  C   UNK N   1      34.458  17.982   8.345  0.00  0.00     0.046 C 
HETATM    5  C   UNK N   1      33.034  18.208   7.899  0.00  0.00     0.030 C 
HETATM    6  C   UNK N   1      33.123  15.189   7.250  0.00  0.00     0.273 C 
HETATM    7  C   UNK N   1      32.803  15.002   9.576  0.00  0.00     0.273 C 
ENDROOT
BRANCH   2   8
HETATM    8  C   UNK N   1      35.328  16.213   9.906  0.00  0.00     0.205 C 
HETATM    9  O   UNK N   1      35.225  17.053  10.955  0.00  0.00    -0.646 OA
HETATM   10  O   UNK N   1      36.080  15.255   9.979  0.00  0.00    -0.646 OA
ENDBRANCH   2   8
TORSDOF 1
ENDMDL
