MODEL 1
REMARK VINA RESULT:      -4.0      0.000      0.000
REMARK  4 active torsions:
REMARK  status: ('A' for Active; 'I' for Inactive)
REMARK    1  A    between atoms: C_2  and  C_3 
REMARK    2  A    between atoms: C_3  and  N_5 
REMARK    3  A    between atoms: C_3  and  C_6 
REMARK    4  A    between atoms: C_6  and  O_7 
ROOT
HETATM    1  C   UNK N   1      33.521  17.167   8.527  0.00  0.00     0.106 C 
HETATM    2  C   UNK N   1      33.562  15.808   7.844  0.00  0.00     0.050 C 
ENDROOT
BRANCH   1   3
HETATM    3  C   UNK N   1      32.090  17.705   8.573  0.00  0.00     0.037 C 
HETATM    4  C   UNK N   1      31.174  17.058   7.543  0.00  0.00     0.008 C 
ENDBRANCH   1   3
BRANCH   1   5
HETATM    5  N   UNK N   1      34.037  17.028   9.884  0.00  0.00    -0.414 N 
HETATM    6  H   UNK N   1      34.522  17.745  10.423  0.00  0.00     0.151 HD
HETATM    7  H   UNK N   1      33.900  16.125  10.337  0.00  0.00     0.151 HD
ENDBRANCH   1   5
BRANCH   1   8
HETATM    8  C   UNK N   1      34.376  18.135   7.751  0.00  0.00     0.168 C 
HETATM    9  O   UNK N   1      34.462  18.029   6.531  0.00  0.00    -0.648 OA
BRANCH   8  10
HETATM   10  O   UNK N   1      35.046  19.120   8.374  0.00  0.00    -0.775 OA
HETATM   11  H   UNK N   1      35.915  18.972   8.689  0.00  0.00     0.167 HD
ENDBRANCH   8  10
ENDBRANCH   1   8
TORSDOF 4
ENDMDL
MODEL 2
REMARK VINA RESULT:      -3.8      1.485      2.302
REMARK  4 active torsions:
REMARK  status: ('A' for Active; 'I' for Inactive)
REMARK    1  A    between atoms: C_2  and  C_3 
REMARK    2  A    between atoms: C_3  and  N_5 
REMARK    3  A    between atoms: C_3  and  C_6 
REMARK    4  A    between atoms: C_6  and  O_7 
ROOT
HETATM    1  C   UNK N   1      34.082  16.930   8.736  0.00  0.00     0.106 C 
HETATM    2  C   UNK N   1      34.985  16.817   9.955  0.00  0.00     0.050 C 
ENDROOT
BRANCH   1   3
HETATM    3  C   UNK N   1      34.160  15.660   7.887  0.00  0.00     0.037 C 
HETATM    4  C   UNK N   1      35.377  14.803   8.204  0.00  0.00     0.008 C 
ENDBRANCH   1   3
BRANCH   1   5
HETATM    5  N   UNK N   1      32.709  17.136   9.184  0.00  0.00    -0.414 N 
HETATM    6  H   UNK N   1      32.092  17.900   8.912  0.00  0.00     0.151 HD
HETATM    7  H   UNK N   1      32.330  16.448   9.835  0.00  0.00     0.151 HD
ENDBRANCH   1   5
BRANCH   1   8
HETATM    8  C   UNK N   1      34.527  18.100   7.899  0.00  0.00     0.168 C 
HETATM    9  O   UNK N   1      34.363  18.076   6.682  0.00  0.00    -0.648 OA
BRANCH   8  10
HETATM   10  O   UNK N   1      35.101  19.177   8.463  0.00  0.00    -0.775 OA
HETATM   11  H   UNK N   1      35.492  19.837   7.927  0.00  0.00     0.167 HD
ENDBRANCH   8  10
ENDBRANCH   1   8
TORSDOF 4
ENDMDL
MODEL 3
REMARK VINA RESULT:      -3.7     14.138     14.836
REMARK  4 active torsions:
REMARK  status: ('A' for Active; 'I' for Inactive)
REMARK    1  A    between atoms: C_2  and  C_3 
REMARK    2  A    between atoms: C_3  and  N_5 
REMARK    3  A    between atoms: C_3  and  C_6 
REMARK    4  A    between atoms: C_6  and  O_7 
ROOT
HETATM    1  C   UNK N   1      20.259  18.972   2.300  0.00  0.00     0.106 C 
HETATM    2  C   UNK N   1      20.723  19.210   3.730  0.00  0.00     0.050 C 
ENDROOT
BRANCH   1   3
HETATM    3  C   UNK N   1      20.790  17.638   1.775  0.00  0.00     0.037 C 
HETATM    4  C   UNK N   1      19.784  16.892   0.911  0.00  0.00     0.008 C 
ENDBRANCH   1   3
BRANCH   1   5
HETATM    5  N   UNK N   1      18.800  18.964   2.274  0.00  0.00    -0.414 N 
HETATM    6  H   UNK N   1      18.211  18.934   1.443  0.00  0.00     0.151 HD
HETATM    7  H   UNK N   1      18.324  18.992   3.176  0.00  0.00     0.151 HD
ENDBRANCH   1   5
BRANCH   1   8
HETATM    8  C   UNK N   1      20.780  20.079   1.422  0.00  0.00     0.168 C 
HETATM    9  O   UNK N   1      21.370  21.031   1.926  0.00  0.00    -0.648 OA
BRANCH   8  10
HETATM   10  O   UNK N   1      20.613  20.041   0.088  0.00  0.00    -0.775 OA
HETATM   11  H   UNK N   1      21.303  19.730  -0.464  0.00  0.00     0.167 HD
ENDBRANCH   8  10
ENDBRANCH   1   8
TORSDOF 4
ENDMDL
MODEL 4
REMARK VINA RESULT:      -3.7     11.480     12.384
REMARK  4 active torsions:
REMARK  status: ('A' for Active; 'I' for Inactive)
REMARK    1  A    between atoms: C_2  and  C_3 
REMARK    2  A    between atoms: C_3  and  N_5 
REMARK    3  A    between atoms: C_3  and  C_6 
REMARK    4  A    between atoms: C_6  and  O_7 
ROOT
HETATM    1  C   UNK N   1      22.854  12.187  10.485  0.00  0.00     0.106 C 
HETATM    2  C   UNK N   1      23.369  13.375   9.686  0.00  0.00     0.050 C 
ENDROOT
BRANCH   1   3
HETATM    3  C   UNK N   1      21.373  12.367  10.825  0.00  0.00     0.037 C 
HETATM    4  C   UNK N   1      20.722  13.517  10.072  0.00  0.00     0.008 C 
ENDBRANCH   1   3
BRANCH   1   5
HETATM    5  N   UNK N   1      23.031  10.974   9.693  0.00  0.00    -0.414 N 
HETATM    6  H   UNK N   1      23.590  10.161   9.950  0.00  0.00     0.151 HD
HETATM    7  H   UNK N   1      22.549  10.937   8.795  0.00  0.00     0.151 HD
ENDBRANCH   1   5
BRANCH   1   8
HETATM    8  C   UNK N   1      23.636  12.079  11.767  0.00  0.00     0.168 C 
HETATM    9  O   UNK N   1      23.050  11.840  12.820  0.00  0.00    -0.648 OA
BRANCH   8  10
HETATM   10  O   UNK N   1      24.971  12.236  11.780  0.00  0.00    -0.775 OA
HETATM   11  H   UNK N   1      25.465  12.128  10.992  0.00  0.00     0.167 HD
ENDBRANCH   8  10
ENDBRANCH   1   8
TORSDOF 4
ENDMDL
MODEL 5
REMARK VINA RESULT:      -3.7     10.616     11.496
REMARK  4 active torsions:
REMARK  status: ('A' for Active; 'I' for Inactive)
REMARK    1  A    between atoms: C_2  and  C_3 
REMARK    2  A    between atoms: C_3  and  N_5 
REMARK    3  A    between atoms: C_3  and  C_6 
REMARK    4  A    between atoms: C_6  and  O_7 
ROOT
HETATM    1  C   UNK N   1      23.223  12.139  10.141  0.00  0.00     0.106 C 
HETATM    2  C   UNK N   1      23.282  11.350   8.841  0.00  0.00     0.050 C 
ENDROOT
BRANCH   1   3
HETATM    3  C   UNK N   1      22.269  13.326  10.009  0.00  0.00     0.037 C 
HETATM    4  C   UNK N   1      21.334  13.213   8.813  0.00  0.00     0.008 C 
ENDBRANCH   1   3
BRANCH   1   5
HETATM    5  N   UNK N   1      22.763  11.256  11.207  0.00  0.00    -0.414 N 
HETATM    6  H   UNK N   1      22.155  11.512  11.984  0.00  0.00     0.151 HD
HETATM    7  H   UNK N   1      23.083  10.288  11.172  0.00  0.00     0.151 HD
ENDBRANCH   1   5
BRANCH   1   8
HETATM    8  C   UNK N   1      24.600  12.658  10.465  0.00  0.00     0.168 C 
HETATM    9  O   UNK N   1      25.189  13.367   9.655  0.00  0.00    -0.648 OA
BRANCH   8  10
HETATM   10  O   UNK N   1      25.194  12.361  11.634  0.00  0.00    -0.775 OA
HETATM   11  H   UNK N   1      25.077  11.516  12.020  0.00  0.00     0.167 HD
ENDBRANCH   8  10
ENDBRANCH   1   8
TORSDOF 4
ENDMDL
MODEL 6
REMARK VINA RESULT:      -3.6      7.684      8.186
REMARK  4 active torsions:
REMARK  status: ('A' for Active; 'I' for Inactive)
REMARK    1  A    between atoms: C_2  and  C_3 
REMARK    2  A    between atoms: C_3  and  N_5 
REMARK    3  A    between atoms: C_3  and  C_6 
REMARK    4  A    between atoms: C_6  and  O_7 
ROOT
HETATM    1  C   UNK N   1      36.331  13.421  14.786  0.00  0.00     0.106 C 
HETATM    2  C   UNK N   1      37.141  12.169  14.485  0.00  0.00     0.050 C 
ENDROOT
BRANCH   1   3
HETATM    3  C   UNK N   1      35.130  13.087  15.672  0.00  0.00     0.037 C 
HETATM    4  C   UNK N   1      35.347  13.447  17.135  0.00  0.00     0.008 C 
ENDBRANCH   1   3
BRANCH   1   5
HETATM    5  N   UNK N   1      37.189  14.385  15.466  0.00  0.00    -0.414 N 
HETATM    6  H   UNK N   1      37.036  14.783  16.392  0.00  0.00     0.151 HD
HETATM    7  H   UNK N   1      38.023  14.692  14.966  0.00  0.00     0.151 HD
ENDBRANCH   1   5
BRANCH   1   8
HETATM    8  C   UNK N   1      35.829  14.006  13.492  0.00  0.00     0.168 C 
HETATM    9  O   UNK N   1      34.773  13.606  13.012  0.00  0.00    -0.648 OA
BRANCH   8  10
HETATM   10  O   UNK N   1      36.519  14.968  12.854  0.00  0.00    -0.775 OA
HETATM   11  H   UNK N   1      37.436  14.863  12.694  0.00  0.00     0.167 HD
ENDBRANCH   8  10
ENDBRANCH   1   8
TORSDOF 4
ENDMDL
MODEL 7
REMARK VINA RESULT:      -3.6     11.369     12.297
REMARK  4 active torsions:
REMARK  status: ('A' for Active; 'I' for Inactive)
REMARK    1  A    between atoms: C_2  and  C_3 
REMARK    2  A    between atoms: C_3  and  N_5 
REMARK    3  A    between atoms: C_3  and  C_6 
REMARK    4  A    between atoms: C_6  and  O_7 
ROOT
HETATM    1  C   UNK N   1      43.897  22.213   4.145  0.00  0.00     0.106 C 
HETATM    2  C   UNK N   1      45.316  21.707   3.931  0.00  0.00     0.050 C 
ENDROOT
BRANCH   1   3
HETATM    3  C   UNK N   1      42.879  21.121   3.809  0.00  0.00     0.037 C 
HETATM    4  C   UNK N   1      43.488  19.947   3.056  0.00  0.00     0.008 C 
ENDBRANCH   1   3
BRANCH   1   5
HETATM    5  N   UNK N   1      43.745  22.613   5.540  0.00  0.00    -0.414 N 
HETATM    6  H   UNK N   1      44.139  23.446   5.976  0.00  0.00     0.151 HD
HETATM    7  H   UNK N   1      43.193  21.998   6.136  0.00  0.00     0.151 HD
ENDBRANCH   1   5
BRANCH   1   8
HETATM    8  C   UNK N   1      43.654  23.395   3.244  0.00  0.00     0.168 C 
HETATM    9  O   UNK N   1      44.544  24.222   3.070  0.00  0.00    -0.648 OA
BRANCH   8  10
HETATM   10  O   UNK N   1      42.474  23.558   2.620  0.00  0.00    -0.775 OA
HETATM   11  H   UNK N   1      42.438  23.608   1.686  0.00  0.00     0.167 HD
ENDBRANCH   8  10
ENDBRANCH   1   8
TORSDOF 4
ENDMDL
MODEL 8
REMARK VINA RESULT:      -3.5     17.655     18.276
REMARK  4 active torsions:
REMARK  status: ('A' for Active; 'I' for Inactive)
REMARK    1  A    between atoms: C_2  and  C_3 
REMARK    2  A    between atoms: C_3  and  N_5 
REMARK    3  A    between atoms: C_3  and  C_6 
REMARK    4  A    between atoms: C_6  and  O_7 
ROOT
HETATM    1  C   UNK N   1      26.434  27.735  -4.981  0.00  0.00     0.106 C 
HETATM    2  C   UNK N   1      27.247  28.700  -5.831  0.00  0.00     0.050 C 
ENDROOT
BRANCH   1   3
HETATM    3  C   UNK N   1      25.236  27.201  -5.768  0.00  0.00     0.037 C 
HETATM    4  C   UNK N   1      25.638  26.375  -6.982  0.00  0.00     0.008 C 
ENDBRANCH   1   3
BRANCH   1   5
HETATM    5  N   UNK N   1      27.290  26.626  -4.578  0.00  0.00    -0.414 N 
HETATM    6  H   UNK N   1      28.304  26.651  -4.474  0.00  0.00     0.151 HD
HETATM    7  H   UNK N   1      26.830  25.737  -4.382  0.00  0.00     0.151 HD
ENDBRANCH   1   5
BRANCH   1   8
HETATM    8  C   UNK N   1      25.927  28.459  -3.761  0.00  0.00     0.168 C 
HETATM    9  O   UNK N   1      25.485  27.818  -2.812  0.00  0.00    -0.648 OA
BRANCH   8  10
HETATM   10  O   UNK N   1      25.954  29.802  -3.692  0.00  0.00    -0.775 OA
HETATM   11  H   UNK N   1      26.267  30.305  -4.417  0.00  0.00     0.167 HD
ENDBRANCH   8  10
ENDBRANCH   1   8
TORSDOF 4
ENDMDL
MODEL 9
REMARK VINA RESULT:      -3.5     12.364     12.903
REMARK  4 active torsions:
REMARK  status: ('A' for Active; 'I' for Inactive)
REMARK    1  A    between atoms: C_2  and  C_3 
REMARK    2  A    between atoms: C_3  and  N_5 
REMARK    3  A    between atoms: C_3  and  C_6 
REMARK    4  A    between atoms: C_6  and  O_7 
ROOT
HETATM    1  C   UNK N   1      31.504  22.092  -3.391  0.00  0.00     0.106 C 
HETATM    2  C   UNK N   1      32.262  22.758  -4.531  0.00  0.00     0.050 C 
ENDROOT
BRANCH   1   3
HETATM    3  C   UNK N   1      30.424  21.156  -3.935  0.00  0.00     0.037 C 
HETATM    4  C   UNK N   1      30.052  21.449  -5.382  0.00  0.00     0.008 C 
ENDBRANCH   1   3
BRANCH   1   5
HETATM    5  N   UNK N   1      32.448  21.333  -2.579  0.00  0.00    -0.414 N 
HETATM    6  H   UNK N   1      33.314  21.684  -2.171  0.00  0.00     0.151 HD
HETATM    7  H   UNK N   1      32.219  20.355  -2.403  0.00  0.00     0.151 HD
ENDBRANCH   1   5
BRANCH   1   8
HETATM    8  C   UNK N   1      30.845  23.154  -2.552  0.00  0.00     0.168 C 
HETATM    9  O   UNK N   1      30.443  22.878  -1.425  0.00  0.00    -0.648 OA
BRANCH   8  10
HETATM   10  O   UNK N   1      30.692  24.408  -3.014  0.00  0.00    -0.775 OA
HETATM   11  H   UNK N   1      31.262  24.736  -3.681  0.00  0.00     0.167 HD
ENDBRANCH   8  10
ENDBRANCH   1   8
TORSDOF 4
ENDMDL
