REMARK  9 active torsions:
REMARK  status: ('A' for Active; 'I' for Inactive)
REMARK    1  A    between atoms: N_2  and  C_4 
REMARK    2  A    between atoms: C_13  and  S_14 
REMARK    3  A    between atoms: S_14  and  N_17 
REMARK    4  A    between atoms: N_17  and  C_18 
REMARK    5  A    between atoms: C_18  and  C_19 
REMARK    6  A    between atoms: C_19  and  C_20 
REMARK    7  A    between atoms: C_20  and  C_21 
REMARK    8  A    between atoms: C_21  and  N_22 
REMARK       I    between atoms: N_22  and  C_23 
REMARK    9  A    between atoms: C_25  and  C_23 
ROOT
HETATM    1  N   UNK N   1      -1.200  -5.950  -1.016  0.00  0.00    -0.315 N 
HETATM    2  H   UNK N   1      -1.045  -6.647  -1.743  0.00  0.00     0.172 HD
ENDROOT
BRANCH   1   3
HETATM    3  S   UNK N   1      -2.677  -5.758  -0.053  0.00  0.00     0.259 S 
HETATM    4  O   UNK N   1      -2.205  -5.692   1.408  0.00  0.00    -0.201 OA
HETATM    5  O   UNK N   1      -3.161  -4.318  -0.291  0.00  0.00    -0.201 OA
BRANCH   3   6
HETATM    6  C   UNK N   1      -3.989  -6.975  -0.192  0.00  0.00     0.090 A 
HETATM    7  C   UNK N   1      -5.311  -6.529  -0.174  0.00  0.00     0.026 A 
HETATM    8  C   UNK N   1      -6.361  -7.441  -0.184  0.00  0.00     0.003 A 
HETATM    9  C   UNK N   1      -6.097  -8.810  -0.179  0.00  0.00     0.014 A 
HETATM   10  C   UNK N   1      -4.782  -9.298  -0.196  0.00  0.00     0.002 A 
HETATM   11  C   UNK N   1      -3.712  -8.358  -0.222  0.00  0.00    -0.000 A 
HETATM   12  C   UNK N   1      -4.491 -10.700  -0.164  0.00  0.00     0.040 A 
HETATM   13  C   UNK N   1      -2.389  -8.811  -0.247  0.00  0.00     0.014 A 
HETATM   14  C   UNK N   1      -2.107 -10.170  -0.257  0.00  0.00     0.003 A 
HETATM   15  C   UNK N   1      -3.142 -11.098  -0.206  0.00  0.00     0.030 A 
BRANCH  12  16
HETATM   16  N   UNK N   1      -5.501 -11.726  -0.061  0.00  0.00    -0.389 N 
HETATM   17  C   UNK N   1      -5.115 -13.116  -0.014  0.00  0.00     0.149 C 
HETATM   18  C   UNK N   1      -6.904 -11.439   0.102  0.00  0.00     0.149 C 
ENDBRANCH  12  16
ENDBRANCH   3   6
ENDBRANCH   1   3
BRANCH   1  19
HETATM   19  C   UNK N   1      -0.248  -4.936  -0.585  0.00  0.00     0.132 C 
BRANCH  19  20
HETATM   20  C   UNK N   1       0.569  -5.440   0.600  0.00  0.00     0.022 C 
BRANCH  20  21
HETATM   21  C   UNK N   1       1.050  -4.255   1.433  0.00  0.00     0.021 C 
BRANCH  21  22
HETATM   22  C   UNK N   1       2.361  -3.648   0.927  0.00  0.00     0.122 C 
BRANCH  22  23
HETATM   23  N   UNK N   1       2.370  -3.574  -0.514  0.00  0.00    -0.360 N 
HETATM   24  C   UNK N   1       2.049  -2.468  -1.234  0.00  0.00     0.226 C 
HETATM   25  O   UNK N   1       2.043  -2.556  -2.453  0.00  0.00    -0.273 OA
HETATM   26  H   UNK N   1       2.628  -4.384  -1.011  0.00  0.00     0.162 HD
BRANCH  24  27
HETATM   27  C   UNK N   1       1.699  -1.138  -0.580  0.00  0.00     0.042 C 
HETATM   28  C   UNK N   1       0.495  -1.286   0.374  0.00  0.00     0.024 C 
HETATM   29  C   UNK N   1       0.171   0.059   1.046  0.00  0.00    -0.013 C 
HETATM   30  C   UNK N   1       1.402   0.554   1.824  0.00  0.00     0.009 C 
HETATM   31  C   UNK N   1      -0.188   1.086  -0.038  0.00  0.00     0.009 C 
HETATM   32  C   UNK N   1       2.592   0.733   0.869  0.00  0.00    -0.013 C 
HETATM   33  C   UNK N   1       2.916  -0.617   0.210  0.00  0.00     0.024 C 
HETATM   34  C   UNK N   1       2.221   1.754  -0.219  0.00  0.00     0.009 C 
HETATM   35  C   UNK N   1       0.995   1.264  -1.002  0.00  0.00    -0.013 C 
HETATM   36  C   UNK N   1       1.327  -0.086  -1.653  0.00  0.00     0.024 C 
ENDBRANCH  24  27
ENDBRANCH  22  23
ENDBRANCH  21  22
ENDBRANCH  20  21
ENDBRANCH  19  20
ENDBRANCH   1  19
TORSDOF 9
