MODEL 1
REMARK VINA RESULT:      -4.9      0.000      0.000
REMARK  1 active torsions:
REMARK  status: ('A' for Active; 'I' for Inactive)
REMARK    1  A    between atoms: C_5  and  O_6 
ROOT
HETATM    1  C   UNK N   1      25.942  23.817  -5.934  0.00  0.00     0.049 C 
HETATM    2  C   UNK N   1      25.853  25.124  -5.220  0.00  0.00    -0.056 A 
HETATM    3  C   UNK N   1      25.165  26.177  -5.831  0.00  0.00     0.010 A 
HETATM    4  C   UNK N   1      25.062  27.416  -5.191  0.00  0.00     0.037 A 
HETATM    5  C   UNK N   1      25.647  27.603  -3.937  0.00  0.00     0.066 A 
HETATM    6  C   UNK N   1      26.335  26.557  -3.320  0.00  0.00     0.043 A 
HETATM    7  C   UNK N   1      26.443  25.315  -3.953  0.00  0.00    -0.053 A 
HETATM    8  C   UNK N   1      27.186  24.223  -3.261  0.00  0.00     0.049 C 
ENDROOT
BRANCH   5   9
HETATM    9  O   UNK N   1      25.548  28.793  -3.321  0.00  0.00    -0.361 OA
HETATM   10  H   UNK N   1      25.318  28.834  -2.413  0.00  0.00     0.217 HD
ENDBRANCH   5   9
TORSDOF 1
ENDMDL
MODEL 2
REMARK VINA RESULT:      -4.7     19.231     20.508
REMARK  1 active torsions:
REMARK  status: ('A' for Active; 'I' for Inactive)
REMARK    1  A    between atoms: C_5  and  O_6 
ROOT
HETATM    1  C   UNK N   1      20.882  13.707   8.850  0.00  0.00     0.049 C 
HETATM    2  C   UNK N   1      22.037  13.179   9.632  0.00  0.00    -0.056 A 
HETATM    3  C   UNK N   1      23.331  13.380   9.139  0.00  0.00     0.010 A 
HETATM    4  C   UNK N   1      24.436  12.899   9.846  0.00  0.00     0.037 A 
HETATM    5  C   UNK N   1      24.250  12.214  11.049  0.00  0.00     0.066 A 
HETATM    6  C   UNK N   1      22.963  12.009  11.548  0.00  0.00     0.043 A 
HETATM    7  C   UNK N   1      21.851  12.487  10.847  0.00  0.00    -0.053 A 
HETATM    8  C   UNK N   1      20.493  12.247  11.413  0.00  0.00     0.049 C 
ENDROOT
BRANCH   5   9
HETATM    9  O   UNK N   1      25.313  11.752  11.729  0.00  0.00    -0.361 OA
HETATM   10  H   UNK N   1      26.180  11.944  11.430  0.00  0.00     0.217 HD
ENDBRANCH   5   9
TORSDOF 1
ENDMDL
MODEL 3
REMARK VINA RESULT:      -4.6     25.448     27.013
REMARK  1 active torsions:
REMARK  status: ('A' for Active; 'I' for Inactive)
REMARK    1  A    between atoms: C_5  and  O_6 
ROOT
HETATM    1  C   UNK N   1      35.508  11.160  19.070  0.00  0.00     0.049 C 
HETATM    2  C   UNK N   1      35.161  11.479  17.654  0.00  0.00    -0.056 A 
HETATM    3  C   UNK N   1      34.923  10.424  16.767  0.00  0.00     0.010 A 
HETATM    4  C   UNK N   1      34.595  10.686  15.434  0.00  0.00     0.037 A 
HETATM    5  C   UNK N   1      34.504  12.005  14.985  0.00  0.00     0.066 A 
HETATM    6  C   UNK N   1      34.740  13.063  15.863  0.00  0.00     0.043 A 
HETATM    7  C   UNK N   1      35.068  12.811  17.199  0.00  0.00    -0.053 A 
HETATM    8  C   UNK N   1      35.313  13.968  18.105  0.00  0.00     0.049 C 
ENDROOT
BRANCH   5   9
HETATM    9  O   UNK N   1      34.188  12.256  13.703  0.00  0.00    -0.361 OA
HETATM   10  H   UNK N   1      33.973  11.550  13.126  0.00  0.00     0.217 HD
ENDBRANCH   5   9
TORSDOF 1
ENDMDL
MODEL 4
REMARK VINA RESULT:      -4.6     26.335     28.333
REMARK  1 active torsions:
REMARK  status: ('A' for Active; 'I' for Inactive)
REMARK    1  A    between atoms: C_5  and  O_6 
ROOT
HETATM    1  C   UNK N   1      36.113  10.295  16.261  0.00  0.00     0.049 C 
HETATM    2  C   UNK N   1      35.740  11.193  17.393  0.00  0.00    -0.056 A 
HETATM    3  C   UNK N   1      35.746  10.676  18.692  0.00  0.00     0.010 A 
HETATM    4  C   UNK N   1      35.401  11.489  19.775  0.00  0.00     0.037 A 
HETATM    5  C   UNK N   1      35.049  12.823  19.560  0.00  0.00     0.066 A 
HETATM    6  C   UNK N   1      35.041  13.347  18.267  0.00  0.00     0.043 A 
HETATM    7  C   UNK N   1      35.384  12.541  17.178  0.00  0.00    -0.053 A 
HETATM    8  C   UNK N   1      35.362  13.138  15.812  0.00  0.00     0.049 C 
ENDROOT
BRANCH   5   9
HETATM    9  O   UNK N   1      34.718  13.605  20.602  0.00  0.00    -0.361 OA
HETATM   10  H   UNK N   1      33.838  13.609  20.924  0.00  0.00     0.217 HD
ENDBRANCH   5   9
TORSDOF 1
ENDMDL
MODEL 5
REMARK VINA RESULT:      -4.5     19.092     20.673
REMARK  1 active torsions:
REMARK  status: ('A' for Active; 'I' for Inactive)
REMARK    1  A    between atoms: C_5  and  O_6 
ROOT
HETATM    1  C   UNK N   1      23.159  11.825  12.981  0.00  0.00     0.049 C 
HETATM    2  C   UNK N   1      23.111  12.095  11.515  0.00  0.00    -0.056 A 
HETATM    3  C   UNK N   1      24.315  12.192  10.810  0.00  0.00     0.010 A 
HETATM    4  C   UNK N   1      24.308  12.444   9.435  0.00  0.00     0.037 A 
HETATM    5  C   UNK N   1      23.095  12.601   8.762  0.00  0.00     0.066 A 
HETATM    6  C   UNK N   1      21.889  12.506   9.457  0.00  0.00     0.043 A 
HETATM    7  C   UNK N   1      21.887  12.254  10.833  0.00  0.00    -0.053 A 
HETATM    8  C   UNK N   1      20.578  12.160  11.539  0.00  0.00     0.049 C 
ENDROOT
BRANCH   5   9
HETATM    9  O   UNK N   1      23.088  12.843   7.440  0.00  0.00    -0.361 OA
HETATM   10  H   UNK N   1      23.105  12.130   6.833  0.00  0.00     0.217 HD
ENDBRANCH   5   9
TORSDOF 1
ENDMDL
MODEL 6
REMARK VINA RESULT:      -4.5     18.978     20.518
REMARK  1 active torsions:
REMARK  status: ('A' for Active; 'I' for Inactive)
REMARK    1  A    between atoms: C_5  and  O_6 
ROOT
HETATM    1  C   UNK N   1      20.394  12.109  11.650  0.00  0.00     0.049 C 
HETATM    2  C   UNK N   1      21.623  12.336  10.834  0.00  0.00    -0.056 A 
HETATM    3  C   UNK N   1      21.480  12.698   9.490  0.00  0.00     0.010 A 
HETATM    4  C   UNK N   1      22.609  12.918   8.697  0.00  0.00     0.037 A 
HETATM    5  C   UNK N   1      23.885  12.777   9.246  0.00  0.00     0.066 A 
HETATM    6  C   UNK N   1      24.036  12.416  10.585  0.00  0.00     0.043 A 
HETATM    7  C   UNK N   1      22.913  12.193  11.387  0.00  0.00    -0.053 A 
HETATM    8  C   UNK N   1      23.116  11.809  12.812  0.00  0.00     0.049 C 
ENDROOT
BRANCH   5   9
HETATM    9  O   UNK N   1      24.971  12.989   8.483  0.00  0.00    -0.361 OA
HETATM   10  H   UNK N   1      25.625  12.322   8.403  0.00  0.00     0.217 HD
ENDBRANCH   5   9
TORSDOF 1
ENDMDL
MODEL 7
REMARK VINA RESULT:      -4.5     18.954     20.557
REMARK  1 active torsions:
REMARK  status: ('A' for Active; 'I' for Inactive)
REMARK    1  A    between atoms: C_5  and  O_6 
ROOT
HETATM    1  C   UNK N   1      20.080  13.402  10.132  0.00  0.00     0.049 C 
HETATM    2  C   UNK N   1      21.480  12.993  10.446  0.00  0.00    -0.056 A 
HETATM    3  C   UNK N   1      21.720  12.256  11.610  0.00  0.00     0.010 A 
HETATM    4  C   UNK N   1      23.019  11.856  11.934  0.00  0.00     0.037 A 
HETATM    5  C   UNK N   1      24.083  12.194  11.094  0.00  0.00     0.066 A 
HETATM    6  C   UNK N   1      23.852  12.929   9.931  0.00  0.00     0.043 A 
HETATM    7  C   UNK N   1      22.555  13.333   9.599  0.00  0.00    -0.053 A 
HETATM    8  C   UNK N   1      22.350  14.117   8.348  0.00  0.00     0.049 C 
ENDROOT
BRANCH   5   9
HETATM    9  O   UNK N   1      25.332  11.809  11.406  0.00  0.00    -0.361 OA
HETATM   10  H   UNK N   1      25.530  11.520  12.276  0.00  0.00     0.217 HD
ENDBRANCH   5   9
TORSDOF 1
ENDMDL
MODEL 8
REMARK VINA RESULT:      -4.5      2.246      3.002
REMARK  1 active torsions:
REMARK  status: ('A' for Active; 'I' for Inactive)
REMARK    1  A    between atoms: C_5  and  O_6 
ROOT
HETATM    1  C   UNK N   1      26.324  26.327  -7.989  0.00  0.00     0.049 C 
HETATM    2  C   UNK N   1      26.267  27.141  -6.739  0.00  0.00    -0.056 A 
HETATM    3  C   UNK N   1      25.236  26.899  -5.826  0.00  0.00     0.010 A 
HETATM    4  C   UNK N   1      25.153  27.642  -4.646  0.00  0.00     0.037 A 
HETATM    5  C   UNK N   1      26.102  28.630  -4.376  0.00  0.00     0.066 A 
HETATM    6  C   UNK N   1      27.134  28.878  -5.281  0.00  0.00     0.043 A 
HETATM    7  C   UNK N   1      27.225  28.139  -6.465  0.00  0.00    -0.053 A 
HETATM    8  C   UNK N   1      28.342  28.434  -7.406  0.00  0.00     0.049 C 
ENDROOT
BRANCH   5   9
HETATM    9  O   UNK N   1      26.022  29.345  -3.240  0.00  0.00    -0.361 OA
HETATM   10  H   UNK N   1      26.788  29.755  -2.890  0.00  0.00     0.217 HD
ENDBRANCH   5   9
TORSDOF 1
ENDMDL
MODEL 9
REMARK VINA RESULT:      -4.4     26.779     28.283
REMARK  1 active torsions:
REMARK  status: ('A' for Active; 'I' for Inactive)
REMARK    1  A    between atoms: C_5  and  O_6 
ROOT
HETATM    1  C   UNK N   1      35.281   9.591  17.451  0.00  0.00     0.049 C 
HETATM    2  C   UNK N   1      35.263  11.043  17.796  0.00  0.00    -0.056 A 
HETATM    3  C   UNK N   1      35.242  11.980  16.757  0.00  0.00     0.010 A 
HETATM    4  C   UNK N   1      35.225  13.348  17.044  0.00  0.00     0.037 A 
HETATM    5  C   UNK N   1      35.229  13.782  18.371  0.00  0.00     0.066 A 
HETATM    6  C   UNK N   1      35.251  12.854  19.413  0.00  0.00     0.043 A 
HETATM    7  C   UNK N   1      35.268  11.484  19.136  0.00  0.00    -0.053 A 
HETATM    8  C   UNK N   1      35.290  10.524  20.276  0.00  0.00     0.049 C 
ENDROOT
BRANCH   5   9
HETATM    9  O   UNK N   1      35.213  15.097  18.646  0.00  0.00    -0.361 OA
HETATM   10  H   UNK N   1      35.132  15.389  19.534  0.00  0.00     0.217 HD
ENDBRANCH   5   9
TORSDOF 1
ENDMDL
