MODEL 1
REMARK VINA RESULT:      -5.6      0.000      0.000
REMARK  13 active torsions:
REMARK  status: ('A' for Active; 'I' for Inactive)
REMARK    1  A    between atoms: C_3  and  C_1 
REMARK    2  A    between atoms: O_17  and  C_1 
REMARK    3  A    between atoms: P_20  and  C_2 
REMARK    4  A    between atoms: P_21  and  C_2 
REMARK    5  A    between atoms: C_4  and  O_7 
REMARK    6  A    between atoms: C_5  and  O_8 
REMARK    7  A    between atoms: C_6  and  O_19 
REMARK    8  A    between atoms: P_20  and  O_10 
REMARK    9  A    between atoms: P_21  and  O_12 
REMARK   10  A    between atoms: P_22  and  O_14 
REMARK   11  A    between atoms: P_22  and  O_15 
REMARK   12  A    between atoms: P_22  and  O_17 
REMARK   13  A    between atoms: P_21  and  O_19 
ROOT
HETATM    1  O   UNK N   1      36.814  15.570  10.725  0.00  0.00    -0.329 OA
HETATM    2  O   UNK N   1      35.405  17.676  10.154  0.00  0.00    -0.653 OA
HETATM    3  P   UNK N   1      35.339  16.132  10.005  0.00  0.00     0.247 P 
HETATM    4  H   UNK N   1      37.605  15.368  11.248  0.00  0.00     0.220 HD
ENDROOT
BRANCH   3   5
HETATM    5  C   UNK N   1      35.059  15.688   8.221  0.00  0.00     0.249 C 
BRANCH   5   6
HETATM    6  P   UNK N   1      33.677  16.691   7.476  0.00  0.00     0.251 P 
HETATM    7  O   UNK N   1      34.211  18.079   7.032  0.00  0.00    -0.653 OA
BRANCH   6   8
HETATM    8  O   UNK N   1      32.942  16.000   6.060  0.00  0.00    -0.329 OA
HETATM    9  H   UNK N   1      32.693  15.217   5.545  0.00  0.00     0.220 HD
ENDBRANCH   6   8
BRANCH   6  10
HETATM   10  O   UNK N   1      32.440  17.027   8.671  0.00  0.00    -0.284 OA
BRANCH  10  11
HETATM   11  C   UNK N   1      31.455  17.908   8.175  0.00  0.00     0.301 C 
HETATM   12  C   UNK N   1      30.385  18.231   9.228  0.00  0.00     0.205 C 
HETATM   13  C   UNK N   1      29.260  18.581   8.302  0.00  0.00     0.182 C 
HETATM   14  C   UNK N   1      29.408  17.444   7.302  0.00  0.00     0.180 C 
HETATM   15  O   UNK N   1      30.797  17.284   7.083  0.00  0.00    -0.348 OA
BRANCH  12  16
HETATM   16  O   UNK N   1      30.066  17.080   9.963  0.00  0.00    -0.388 OA
HETATM   17  H   UNK N   1      29.802  16.646  10.789  0.00  0.00     0.210 HD
ENDBRANCH  12  16
BRANCH  13  18
HETATM   18  O   UNK N   1      28.011  18.601   8.929  0.00  0.00    -0.390 OA
HETATM   19  H   UNK N   1      27.191  18.759   8.437  0.00  0.00     0.210 HD
ENDBRANCH  13  18
BRANCH  14  20
HETATM   20  C   UNK N   1      28.656  17.695   6.000  0.00  0.00     0.215 C 
BRANCH  20  21
HETATM   21  O   UNK N   1      27.276  17.744   6.219  0.00  0.00    -0.294 OA
BRANCH  21  22
HETATM   22  P   UNK N   1      26.660  18.708   4.913  0.00  0.00     0.390 P 
HETATM   23  O   UNK N   1      25.714  17.476   4.891  0.00  0.00    -0.632 OA
BRANCH  22  24
HETATM   24  O   UNK N   1      25.086  19.430   5.029  0.00  0.00    -0.307 OA
HETATM   25  H   UNK N   1      24.636  20.230   5.342  0.00  0.00     0.222 HD
ENDBRANCH  22  24
BRANCH  22  26
HETATM   26  O   UNK N   1      26.489  19.563   6.415  0.00  0.00    -0.307 OA
HETATM   27  H   UNK N   1      26.665  20.509   6.527  0.00  0.00     0.222 HD
ENDBRANCH  22  26
ENDBRANCH  21  22
ENDBRANCH  20  21
ENDBRANCH  14  20
ENDBRANCH  10  11
ENDBRANCH   6  10
ENDBRANCH   5   6
ENDBRANCH   3   5
BRANCH   3  28
HETATM   28  O   UNK N   1      34.038  15.680  11.062  0.00  0.00    -0.329 OA
HETATM   29  H   UNK N   1      34.142  15.254  11.927  0.00  0.00     0.220 HD
ENDBRANCH   3  28
TORSDOF 13
ENDMDL
MODEL 2
REMARK VINA RESULT:      -5.5     12.533     14.889
REMARK  13 active torsions:
REMARK  status: ('A' for Active; 'I' for Inactive)
REMARK    1  A    between atoms: C_3  and  C_1 
REMARK    2  A    between atoms: O_17  and  C_1 
REMARK    3  A    between atoms: P_20  and  C_2 
REMARK    4  A    between atoms: P_21  and  C_2 
REMARK    5  A    between atoms: C_4  and  O_7 
REMARK    6  A    between atoms: C_5  and  O_8 
REMARK    7  A    between atoms: C_6  and  O_19 
REMARK    8  A    between atoms: P_20  and  O_10 
REMARK    9  A    between atoms: P_21  and  O_12 
REMARK   10  A    between atoms: P_22  and  O_14 
REMARK   11  A    between atoms: P_22  and  O_15 
REMARK   12  A    between atoms: P_22  and  O_17 
REMARK   13  A    between atoms: P_21  and  O_19 
ROOT
HETATM    1  O   UNK N   1      31.493  19.825  -4.047  0.00  0.00    -0.329 OA
HETATM    2  O   UNK N   1      33.819  20.950  -4.305  0.00  0.00    -0.653 OA
HETATM    3  P   UNK N   1      32.432  21.235  -3.670  0.00  0.00     0.247 P 
HETATM    4  H   UNK N   1      31.105  18.953  -4.215  0.00  0.00     0.220 HD
ENDROOT
BRANCH   3   5
HETATM    5  C   UNK N   1      31.782  22.862  -4.293  0.00  0.00     0.249 C 
BRANCH   5   6
HETATM    6  P   UNK N   1      30.541  23.599  -3.116  0.00  0.00     0.251 P 
HETATM    7  O   UNK N   1      30.780  23.050  -1.684  0.00  0.00    -0.653 OA
BRANCH   6   8
HETATM    8  O   UNK N   1      30.599  25.330  -2.967  0.00  0.00    -0.329 OA
HETATM    9  H   UNK N   1      31.039  26.172  -3.164  0.00  0.00     0.220 HD
ENDBRANCH   6   8
BRANCH   6  10
HETATM   10  O   UNK N   1      28.914  23.103  -3.539  0.00  0.00    -0.284 OA
BRANCH  10  11
HETATM   11  C   UNK N   1      28.365  23.914  -4.556  0.00  0.00     0.301 C 
HETATM   12  C   UNK N   1      27.151  24.715  -4.063  0.00  0.00     0.205 C 
HETATM   13  C   UNK N   1      26.465  24.913  -5.380  0.00  0.00     0.182 C 
HETATM   14  C   UNK N   1      26.609  23.506  -5.941  0.00  0.00     0.180 C 
HETATM   15  O   UNK N   1      27.917  23.078  -5.612  0.00  0.00    -0.348 OA
BRANCH  12  16
HETATM   16  O   UNK N   1      26.358  23.924  -3.219  0.00  0.00    -0.388 OA
HETATM   17  H   UNK N   1      25.513  23.726  -2.787  0.00  0.00     0.210 HD
ENDBRANCH  12  16
BRANCH  13  18
HETATM   18  O   UNK N   1      25.134  25.321  -5.258  0.00  0.00    -0.390 OA
HETATM   19  H   UNK N   1      24.530  25.343  -6.015  0.00  0.00     0.210 HD
ENDBRANCH  13  18
BRANCH  14  20
HETATM   20  C   UNK N   1      26.353  23.435  -7.442  0.00  0.00     0.215 C 
BRANCH  20  21
HETATM   21  O   UNK N   1      25.406  24.386  -7.835  0.00  0.00    -0.294 OA
BRANCH  21  22
HETATM   22  P   UNK N   1      26.030  25.038  -9.318  0.00  0.00     0.390 P 
HETATM   23  O   UNK N   1      24.775  24.261  -9.800  0.00  0.00    -0.632 OA
BRANCH  22  24
HETATM   24  O   UNK N   1      25.137  26.250 -10.182  0.00  0.00    -0.307 OA
HETATM   25  H   UNK N   1      24.231  26.528 -10.385  0.00  0.00     0.222 HD
ENDBRANCH  22  24
BRANCH  22  26
HETATM   26  O   UNK N   1      25.560  26.327  -8.253  0.00  0.00    -0.307 OA
HETATM   27  H   UNK N   1      25.201  26.195  -7.362  0.00  0.00     0.222 HD
ENDBRANCH  22  26
ENDBRANCH  21  22
ENDBRANCH  20  21
ENDBRANCH  14  20
ENDBRANCH  10  11
ENDBRANCH   6  10
ENDBRANCH   5   6
ENDBRANCH   3   5
BRANCH   3  28
HETATM   28  O   UNK N   1      32.754  21.205  -1.964  0.00  0.00    -0.329 OA
HETATM   29  H   UNK N   1      33.636  21.192  -1.562  0.00  0.00     0.220 HD
ENDBRANCH   3  28
TORSDOF 13
ENDMDL
MODEL 3
REMARK VINA RESULT:      -5.4      5.370      8.229
REMARK  13 active torsions:
REMARK  status: ('A' for Active; 'I' for Inactive)
REMARK    1  A    between atoms: C_3  and  C_1 
REMARK    2  A    between atoms: O_17  and  C_1 
REMARK    3  A    between atoms: P_20  and  C_2 
REMARK    4  A    between atoms: P_21  and  C_2 
REMARK    5  A    between atoms: C_4  and  O_7 
REMARK    6  A    between atoms: C_5  and  O_8 
REMARK    7  A    between atoms: C_6  and  O_19 
REMARK    8  A    between atoms: P_20  and  O_10 
REMARK    9  A    between atoms: P_21  and  O_12 
REMARK   10  A    between atoms: P_22  and  O_14 
REMARK   11  A    between atoms: P_22  and  O_15 
REMARK   12  A    between atoms: P_22  and  O_17 
REMARK   13  A    between atoms: P_21  and  O_19 
ROOT
HETATM    1  O   UNK N   1      37.553   8.678  13.961  0.00  0.00    -0.329 OA
HETATM    2  O   UNK N   1      38.154   9.958  11.782  0.00  0.00    -0.653 OA
HETATM    3  P   UNK N   1      37.376  10.179  13.107  0.00  0.00     0.247 P 
HETATM    4  H   UNK N   1      37.811   7.847  14.388  0.00  0.00     0.220 HD
ENDROOT
BRANCH   3   5
HETATM    5  C   UNK N   1      35.639  10.725  12.729  0.00  0.00     0.249 C 
BRANCH   5   6
HETATM    6  P   UNK N   1      34.936  11.768  14.103  0.00  0.00     0.251 P 
HETATM    7  O   UNK N   1      33.587  11.169  14.583  0.00  0.00    -0.653 OA
BRANCH   6   8
HETATM    8  O   UNK N   1      35.928  11.884  15.525  0.00  0.00    -0.329 OA
HETATM    9  H   UNK N   1      36.744  12.187  15.953  0.00  0.00     0.220 HD
ENDBRANCH   6   8
BRANCH   6  10
HETATM   10  O   UNK N   1      34.552  13.378  13.525  0.00  0.00    -0.284 OA
BRANCH  10  11
HETATM   11  C   UNK N   1      34.989  13.578  12.198  0.00  0.00     0.301 C 
HETATM   12  C   UNK N   1      36.461  14.010  12.133  0.00  0.00     0.205 C 
HETATM   13  C   UNK N   1      36.426  14.723  10.816  0.00  0.00     0.182 C 
HETATM   14  C   UNK N   1      35.133  15.503  10.997  0.00  0.00     0.180 C 
HETATM   15  O   UNK N   1      34.218  14.620  11.619  0.00  0.00    -0.348 OA
BRANCH  12  16
HETATM   16  O   UNK N   1      36.746  14.916  13.165  0.00  0.00    -0.388 OA
HETATM   17  H   UNK N   1      37.374  15.441  13.686  0.00  0.00     0.210 HD
ENDBRANCH  12  16
BRANCH  13  18
HETATM   18  O   UNK N   1      37.536  15.544  10.599  0.00  0.00    -0.390 OA
HETATM   19  H   UNK N   1      38.186  15.358   9.904  0.00  0.00     0.210 HD
ENDBRANCH  13  18
BRANCH  14  20
HETATM   20  C   UNK N   1      34.583  16.057   9.689  0.00  0.00     0.215 C 
BRANCH  20  21
HETATM   21  O   UNK N   1      34.798  17.436   9.598  0.00  0.00    -0.294 OA
BRANCH  21  22
HETATM   22  P   UNK N   1      33.854  17.936   8.229  0.00  0.00     0.390 P 
HETATM   23  O   UNK N   1      34.917  19.064   8.329  0.00  0.00    -0.632 OA
BRANCH  22  24
HETATM   24  O   UNK N   1      34.556  17.944   6.642  0.00  0.00    -0.307 OA
HETATM   25  H   UNK N   1      34.318  17.905   5.703  0.00  0.00     0.222 HD
ENDBRANCH  22  24
BRANCH  22  26
HETATM   26  O   UNK N   1      34.628  16.418   7.895  0.00  0.00    -0.307 OA
HETATM   27  H   UNK N   1      34.239  15.715   7.352  0.00  0.00     0.222 HD
ENDBRANCH  22  26
ENDBRANCH  21  22
ENDBRANCH  20  21
ENDBRANCH  14  20
ENDBRANCH  10  11
ENDBRANCH   6  10
ENDBRANCH   5   6
ENDBRANCH   3   5
BRANCH   3  28
HETATM   28  O   UNK N   1      38.328  11.367  13.941  0.00  0.00    -0.329 OA
HETATM   29  H   UNK N   1      38.301  12.323  13.776  0.00  0.00     0.220 HD
ENDBRANCH   3  28
TORSDOF 13
ENDMDL
MODEL 4
REMARK VINA RESULT:      -5.4      4.811      8.431
REMARK  13 active torsions:
REMARK  status: ('A' for Active; 'I' for Inactive)
REMARK    1  A    between atoms: C_3  and  C_1 
REMARK    2  A    between atoms: O_17  and  C_1 
REMARK    3  A    between atoms: P_20  and  C_2 
REMARK    4  A    between atoms: P_21  and  C_2 
REMARK    5  A    between atoms: C_4  and  O_7 
REMARK    6  A    between atoms: C_5  and  O_8 
REMARK    7  A    between atoms: C_6  and  O_19 
REMARK    8  A    between atoms: P_20  and  O_10 
REMARK    9  A    between atoms: P_21  and  O_12 
REMARK   10  A    between atoms: P_22  and  O_14 
REMARK   11  A    between atoms: P_22  and  O_15 
REMARK   12  A    between atoms: P_22  and  O_17 
REMARK   13  A    between atoms: P_21  and  O_19 
ROOT
HETATM    1  O   UNK N   1      34.326  12.506   7.815  0.00  0.00    -0.329 OA
HETATM    2  O   UNK N   1      32.166  13.849   8.335  0.00  0.00    -0.653 OA
HETATM    3  P   UNK N   1      33.115  13.551   7.143  0.00  0.00     0.247 P 
HETATM    4  H   UNK N   1      34.875  11.845   8.265  0.00  0.00     0.220 HD
ENDROOT
BRANCH   3   5
HETATM    5  C   UNK N   1      33.709  15.150   6.402  0.00  0.00     0.249 C 
BRANCH   5   6
HETATM    6  P   UNK N   1      34.127  16.400   7.718  0.00  0.00     0.251 P 
HETATM    7  O   UNK N   1      34.653  17.704   7.061  0.00  0.00    -0.653 OA
BRANCH   6   8
HETATM    8  O   UNK N   1      32.796  16.888   8.724  0.00  0.00    -0.329 OA
HETATM    9  H   UNK N   1      31.845  16.883   8.912  0.00  0.00     0.220 HD
ENDBRANCH   6   8
BRANCH   6  10
HETATM   10  O   UNK N   1      35.441  15.824   8.726  0.00  0.00    -0.284 OA
BRANCH  10  11
HETATM   11  C   UNK N   1      35.005  15.519  10.034  0.00  0.00     0.301 C 
HETATM   12  C   UNK N   1      35.926  16.123  11.105  0.00  0.00     0.205 C 
HETATM   13  C   UNK N   1      35.631  15.164  12.218  0.00  0.00     0.182 C 
HETATM   14  C   UNK N   1      35.682  13.862  11.434  0.00  0.00     0.180 C 
HETATM   15  O   UNK N   1      35.029  14.110  10.203  0.00  0.00    -0.348 OA
BRANCH  12  16
HETATM   16  O   UNK N   1      37.267  16.009  10.710  0.00  0.00    -0.388 OA
HETATM   17  H   UNK N   1      37.944  15.896  10.025  0.00  0.00     0.210 HD
ENDBRANCH  12  16
BRANCH  13  18
HETATM   18  O   UNK N   1      36.564  15.216  13.257  0.00  0.00    -0.390 OA
HETATM   19  H   UNK N   1      37.068  16.020  13.457  0.00  0.00     0.210 HD
ENDBRANCH  13  18
BRANCH  14  20
HETATM   20  C   UNK N   1      35.052  12.692  12.182  0.00  0.00     0.215 C 
BRANCH  20  21
HETATM   21  O   UNK N   1      34.718  13.055  13.490  0.00  0.00    -0.294 OA
BRANCH  21  22
HETATM   22  P   UNK N   1      34.709  11.558  14.370  0.00  0.00     0.390 P 
HETATM   23  O   UNK N   1      33.870  12.488  15.289  0.00  0.00    -0.632 OA
BRANCH  22  24
HETATM   24  O   UNK N   1      33.230  10.671  14.567  0.00  0.00    -0.307 OA
HETATM   25  H   UNK N   1      32.544  10.469  15.222  0.00  0.00     0.222 HD
ENDBRANCH  22  24
BRANCH  22  26
HETATM   26  O   UNK N   1      33.910  11.355  12.842  0.00  0.00    -0.307 OA
HETATM   27  H   UNK N   1      33.650  12.085  12.260  0.00  0.00     0.222 HD
ENDBRANCH  22  26
ENDBRANCH  21  22
ENDBRANCH  20  21
ENDBRANCH  14  20
ENDBRANCH  10  11
ENDBRANCH   6  10
ENDBRANCH   5   6
ENDBRANCH   3   5
BRANCH   3  28
HETATM   28  O   UNK N   1      32.135  12.594   6.076  0.00  0.00    -0.329 OA
HETATM   29  H   UNK N   1      32.443  12.180   5.255  0.00  0.00     0.220 HD
ENDBRANCH   3  28
TORSDOF 13
ENDMDL
MODEL 5
REMARK VINA RESULT:      -5.3      2.517      4.492
REMARK  13 active torsions:
REMARK  status: ('A' for Active; 'I' for Inactive)
REMARK    1  A    between atoms: C_3  and  C_1 
REMARK    2  A    between atoms: O_17  and  C_1 
REMARK    3  A    between atoms: P_20  and  C_2 
REMARK    4  A    between atoms: P_21  and  C_2 
REMARK    5  A    between atoms: C_4  and  O_7 
REMARK    6  A    between atoms: C_5  and  O_8 
REMARK    7  A    between atoms: C_6  and  O_19 
REMARK    8  A    between atoms: P_20  and  O_10 
REMARK    9  A    between atoms: P_21  and  O_12 
REMARK   10  A    between atoms: P_22  and  O_14 
REMARK   11  A    between atoms: P_22  and  O_15 
REMARK   12  A    between atoms: P_22  and  O_17 
REMARK   13  A    between atoms: P_21  and  O_19 
ROOT
HETATM    1  O   UNK N   1      34.624  13.089  14.062  0.00  0.00    -0.329 OA
HETATM    2  O   UNK N   1      36.403  12.561  12.245  0.00  0.00    -0.653 OA
HETATM    3  P   UNK N   1      35.558  13.756  12.761  0.00  0.00     0.247 P 
HETATM    4  H   UNK N   1      34.245  12.640  14.834  0.00  0.00     0.220 HD
ENDROOT
BRANCH   3   5
HETATM    5  C   UNK N   1      34.606  14.504  11.348  0.00  0.00     0.249 C 
BRANCH   5   6
HETATM    6  P   UNK N   1      35.592  15.829  10.486  0.00  0.00     0.251 P 
HETATM    7  O   UNK N   1      35.218  17.222  11.058  0.00  0.00    -0.653 OA
BRANCH   6   8
HETATM    8  O   UNK N   1      37.316  15.699  10.661  0.00  0.00    -0.329 OA
HETATM    9  H   UNK N   1      38.085  15.313  11.109  0.00  0.00     0.220 HD
ENDBRANCH   6   8
BRANCH   6  10
HETATM   10  O   UNK N   1      35.180  15.899   8.783  0.00  0.00    -0.284 OA
BRANCH  10  11
HETATM   11  C   UNK N   1      33.871  15.430   8.539  0.00  0.00     0.301 C 
HETATM   12  C   UNK N   1      33.652  15.070   7.062  0.00  0.00     0.205 C 
HETATM   13  C   UNK N   1      32.165  15.249   7.008  0.00  0.00     0.182 C 
HETATM   14  C   UNK N   1      32.051  16.558   7.774  0.00  0.00     0.180 C 
HETATM   15  O   UNK N   1      32.952  16.464   8.862  0.00  0.00    -0.348 OA
BRANCH  12  16
HETATM   16  O   UNK N   1      34.283  16.011   6.236  0.00  0.00    -0.388 OA
HETATM   17  H   UNK N   1      34.405  16.437   5.373  0.00  0.00     0.210 HD
ENDBRANCH  12  16
BRANCH  13  18
HETATM   18  O   UNK N   1      31.663  15.330   5.706  0.00  0.00    -0.390 OA
HETATM   19  H   UNK N   1      30.744  15.107   5.494  0.00  0.00     0.210 HD
ENDBRANCH  13  18
BRANCH  14  20
HETATM   20  C   UNK N   1      30.631  16.852   8.241  0.00  0.00     0.215 C 
BRANCH  20  21
HETATM   21  O   UNK N   1      30.464  18.214   8.513  0.00  0.00    -0.294 OA
BRANCH  21  22
HETATM   22  P   UNK N   1      28.788  18.372   8.940  0.00  0.00     0.390 P 
HETATM   23  O   UNK N   1      28.751  17.258   7.858  0.00  0.00    -0.632 OA
BRANCH  22  24
HETATM   24  O   UNK N   1      27.969  17.075   9.752  0.00  0.00    -0.307 OA
HETATM   25  H   UNK N   1      27.628  16.816  10.622  0.00  0.00     0.222 HD
ENDBRANCH  22  24
BRANCH  22  26
HETATM   26  O   UNK N   1      29.704  17.836  10.314  0.00  0.00    -0.307 OA
HETATM   27  H   UNK N   1      29.518  17.026  10.812  0.00  0.00     0.222 HD
ENDBRANCH  22  26
ENDBRANCH  21  22
ENDBRANCH  20  21
ENDBRANCH  14  20
ENDBRANCH  10  11
ENDBRANCH   6  10
ENDBRANCH   5   6
ENDBRANCH   3   5
BRANCH   3  28
HETATM   28  O   UNK N   1      36.741  14.817  13.459  0.00  0.00    -0.329 OA
HETATM   29  H   UNK N   1      36.690  15.785  13.468  0.00  0.00     0.220 HD
ENDBRANCH   3  28
TORSDOF 13
ENDMDL
MODEL 6
REMARK VINA RESULT:      -5.3      8.611     10.205
REMARK  13 active torsions:
REMARK  status: ('A' for Active; 'I' for Inactive)
REMARK    1  A    between atoms: C_3  and  C_1 
REMARK    2  A    between atoms: O_17  and  C_1 
REMARK    3  A    between atoms: P_20  and  C_2 
REMARK    4  A    between atoms: P_21  and  C_2 
REMARK    5  A    between atoms: C_4  and  O_7 
REMARK    6  A    between atoms: C_5  and  O_8 
REMARK    7  A    between atoms: C_6  and  O_19 
REMARK    8  A    between atoms: P_20  and  O_10 
REMARK    9  A    between atoms: P_21  and  O_12 
REMARK   10  A    between atoms: P_22  and  O_14 
REMARK   11  A    between atoms: P_22  and  O_15 
REMARK   12  A    between atoms: P_22  and  O_17 
REMARK   13  A    between atoms: P_21  and  O_19 
ROOT
HETATM    1  O   UNK N   1      23.287  11.186   9.667  0.00  0.00    -0.329 OA
HETATM    2  O   UNK N   1      24.831  12.437   7.994  0.00  0.00    -0.653 OA
HETATM    3  P   UNK N   1      23.967  12.727   9.251  0.00  0.00     0.247 P 
HETATM    4  H   UNK N   1      23.060  10.266   9.869  0.00  0.00     0.220 HD
ENDROOT
BRANCH   3   5
HETATM    5  C   UNK N   1      22.766  14.098   8.880  0.00  0.00     0.249 C 
BRANCH   5   6
HETATM    6  P   UNK N   1      21.075  13.433   8.473  0.00  0.00     0.251 P 
HETATM    7  O   UNK N   1      21.202  12.036   7.809  0.00  0.00    -0.653 OA
BRANCH   6   8
HETATM    8  O   UNK N   1      20.021  13.207   9.836  0.00  0.00    -0.329 OA
HETATM    9  H   UNK N   1      19.138  13.012  10.188  0.00  0.00     0.220 HD
ENDBRANCH   6   8
BRANCH   6  10
HETATM   10  O   UNK N   1      20.280  14.445   7.282  0.00  0.00    -0.284 OA
BRANCH  10  11
HETATM   11  C   UNK N   1      21.114  15.499   6.848  0.00  0.00     0.301 C 
HETATM   12  C   UNK N   1      20.838  16.804   7.610  0.00  0.00     0.205 C 
HETATM   13  C   UNK N   1      21.327  17.772   6.577  0.00  0.00     0.182 C 
HETATM   14  C   UNK N   1      20.693  17.149   5.343  0.00  0.00     0.180 C 
HETATM   15  O   UNK N   1      20.852  15.749   5.476  0.00  0.00    -0.348 OA
BRANCH  12  16
HETATM   16  O   UNK N   1      19.459  16.965   7.811  0.00  0.00    -0.388 OA
HETATM   17  H   UNK N   1      18.585  17.255   7.507  0.00  0.00     0.210 HD
ENDBRANCH  12  16
BRANCH  13  18
HETATM   18  O   UNK N   1      20.908  19.086   6.805  0.00  0.00    -0.390 OA
HETATM   19  H   UNK N   1      20.261  19.527   6.234  0.00  0.00     0.210 HD
ENDBRANCH  13  18
BRANCH  14  20
HETATM   20  C   UNK N   1      21.294  17.665   4.041  0.00  0.00     0.215 C 
BRANCH  20  21
HETATM   21  O   UNK N   1      21.896  18.914   4.225  0.00  0.00    -0.294 OA
BRANCH  21  22
HETATM   22  P   UNK N   1      21.353  19.865   2.878  0.00  0.00     0.390 P 
HETATM   23  O   UNK N   1      20.438  20.367   4.028  0.00  0.00    -0.632 OA
BRANCH  22  24
HETATM   24  O   UNK N   1      21.618  21.580   2.859  0.00  0.00    -0.307 OA
HETATM   25  H   UNK N   1      21.145  22.423   2.785  0.00  0.00     0.222 HD
ENDBRANCH  22  24
BRANCH  22  26
HETATM   26  O   UNK N   1      23.013  20.231   3.235  0.00  0.00    -0.307 OA
HETATM   27  H   UNK N   1      23.452  21.062   2.996  0.00  0.00     0.222 HD
ENDBRANCH  22  26
ENDBRANCH  21  22
ENDBRANCH  20  21
ENDBRANCH  14  20
ENDBRANCH  10  11
ENDBRANCH   6  10
ENDBRANCH   5   6
ENDBRANCH   3   5
BRANCH   3  28
HETATM   28  O   UNK N   1      25.143  13.123  10.466  0.00  0.00    -0.329 OA
HETATM   29  H   UNK N   1      25.312  14.013  10.812  0.00  0.00     0.220 HD
ENDBRANCH   3  28
TORSDOF 13
ENDMDL
MODEL 7
REMARK VINA RESULT:      -5.2      8.566     11.013
REMARK  13 active torsions:
REMARK  status: ('A' for Active; 'I' for Inactive)
REMARK    1  A    between atoms: C_3  and  C_1 
REMARK    2  A    between atoms: O_17  and  C_1 
REMARK    3  A    between atoms: P_20  and  C_2 
REMARK    4  A    between atoms: P_21  and  C_2 
REMARK    5  A    between atoms: C_4  and  O_7 
REMARK    6  A    between atoms: C_5  and  O_8 
REMARK    7  A    between atoms: C_6  and  O_19 
REMARK    8  A    between atoms: P_20  and  O_10 
REMARK    9  A    between atoms: P_21  and  O_12 
REMARK   10  A    between atoms: P_22  and  O_14 
REMARK   11  A    between atoms: P_22  and  O_15 
REMARK   12  A    between atoms: P_22  and  O_17 
REMARK   13  A    between atoms: P_21  and  O_19 
ROOT
HETATM    1  O   UNK N   1      18.765  16.433   6.960  0.00  0.00    -0.329 OA
HETATM    2  O   UNK N   1      18.084  16.257   9.460  0.00  0.00    -0.653 OA
HETATM    3  P   UNK N   1      19.361  16.391   8.589  0.00  0.00     0.247 P 
HETATM    4  H   UNK N   1      18.315  16.560   6.111  0.00  0.00     0.220 HD
ENDROOT
BRANCH   3   5
HETATM    5  C   UNK N   1      20.550  15.023   9.009  0.00  0.00     0.249 C 
BRANCH   5   6
HETATM    6  P   UNK N   1      20.999  14.023   7.503  0.00  0.00     0.251 P 
HETATM    7  O   UNK N   1      21.174  12.531   7.893  0.00  0.00    -0.653 OA
BRANCH   6   8
HETATM    8  O   UNK N   1      19.820  14.037   6.227  0.00  0.00    -0.329 OA
HETATM    9  H   UNK N   1      18.897  13.952   5.940  0.00  0.00     0.220 HD
ENDBRANCH   6   8
BRANCH   6  10
HETATM   10  O   UNK N   1      22.554  14.523   6.867  0.00  0.00    -0.284 OA
BRANCH  10  11
HETATM   11  C   UNK N   1      22.420  15.260   5.670  0.00  0.00     0.301 C 
HETATM   12  C   UNK N   1      23.771  15.783   5.159  0.00  0.00     0.205 C 
HETATM   13  C   UNK N   1      23.271  16.953   4.368  0.00  0.00     0.182 C 
HETATM   14  C   UNK N   1      22.265  17.507   5.365  0.00  0.00     0.180 C 
HETATM   15  O   UNK N   1      21.599  16.389   5.922  0.00  0.00    -0.348 OA
BRANCH  12  16
HETATM   16  O   UNK N   1      24.556  16.225   6.234  0.00  0.00    -0.388 OA
HETATM   17  H   UNK N   1      25.395  16.553   6.594  0.00  0.00     0.210 HD
ENDBRANCH  12  16
BRANCH  13  18
HETATM   18  O   UNK N   1      24.275  17.867   4.035  0.00  0.00    -0.390 OA
HETATM   19  H   UNK N   1      25.213  17.677   4.181  0.00  0.00     0.210 HD
ENDBRANCH  13  18
BRANCH  14  20
HETATM   20  C   UNK N   1      21.286  18.492   4.737  0.00  0.00     0.215 C 
BRANCH  20  21
HETATM   21  O   UNK N   1      21.903  19.237   3.726  0.00  0.00    -0.294 OA
BRANCH  21  22
HETATM   22  P   UNK N   1      20.618  20.171   3.025  0.00  0.00     0.390 P 
HETATM   23  O   UNK N   1      21.865  21.048   2.729  0.00  0.00    -0.632 OA
BRANCH  22  24
HETATM   24  O   UNK N   1      20.535  20.387   1.305  0.00  0.00    -0.307 OA
HETATM   25  H   UNK N   1      20.289  21.038   0.630  0.00  0.00     0.222 HD
ENDBRANCH  22  24
BRANCH  22  26
HETATM   26  O   UNK N   1      20.757  18.644   2.210  0.00  0.00    -0.307 OA
HETATM   27  H   UNK N   1      20.209  18.376   1.456  0.00  0.00     0.222 HD
ENDBRANCH  22  26
ENDBRANCH  21  22
ENDBRANCH  20  21
ENDBRANCH  14  20
ENDBRANCH  10  11
ENDBRANCH   6  10
ENDBRANCH   5   6
ENDBRANCH   3   5
BRANCH   3  28
HETATM   28  O   UNK N   1      19.945  17.981   8.971  0.00  0.00    -0.329 OA
HETATM   29  H   UNK N   1      19.559  18.811   8.651  0.00  0.00     0.220 HD
ENDBRANCH   3  28
TORSDOF 13
ENDMDL
MODEL 8
REMARK VINA RESULT:      -5.2      1.738      2.198
REMARK  13 active torsions:
REMARK  status: ('A' for Active; 'I' for Inactive)
REMARK    1  A    between atoms: C_3  and  C_1 
REMARK    2  A    between atoms: O_17  and  C_1 
REMARK    3  A    between atoms: P_20  and  C_2 
REMARK    4  A    between atoms: P_21  and  C_2 
REMARK    5  A    between atoms: C_4  and  O_7 
REMARK    6  A    between atoms: C_5  and  O_8 
REMARK    7  A    between atoms: C_6  and  O_19 
REMARK    8  A    between atoms: P_20  and  O_10 
REMARK    9  A    between atoms: P_21  and  O_12 
REMARK   10  A    between atoms: P_22  and  O_14 
REMARK   11  A    between atoms: P_22  and  O_15 
REMARK   12  A    between atoms: P_22  and  O_17 
REMARK   13  A    between atoms: P_21  and  O_19 
ROOT
HETATM    1  O   UNK N   1      33.372  14.950  11.079  0.00  0.00    -0.329 OA
HETATM    2  O   UNK N   1      35.832  15.220  11.864  0.00  0.00    -0.653 OA
HETATM    3  P   UNK N   1      34.946  15.523  10.627  0.00  0.00     0.247 P 
HETATM    4  H   UNK N   1      32.524  14.703  11.478  0.00  0.00     0.220 HD
ENDROOT
BRANCH   3   5
HETATM    5  C   UNK N   1      35.708  14.762   9.111  0.00  0.00     0.249 C 
BRANCH   5   6
HETATM    6  P   UNK N   1      34.631  15.003   7.610  0.00  0.00     0.251 P 
HETATM    7  O   UNK N   1      34.928  16.382   6.962  0.00  0.00    -0.653 OA
BRANCH   6   8
HETATM    8  O   UNK N   1      34.856  13.835   6.343  0.00  0.00    -0.329 OA
HETATM    9  H   UNK N   1      34.987  12.914   6.068  0.00  0.00     0.220 HD
ENDBRANCH   6   8
BRANCH   6  10
HETATM   10  O   UNK N   1      32.939  15.055   8.062  0.00  0.00    -0.284 OA
BRANCH  10  11
HETATM   11  C   UNK N   1      32.299  16.215   7.572  0.00  0.00     0.301 C 
HETATM   12  C   UNK N   1      31.694  17.062   8.701  0.00  0.00     0.205 C 
HETATM   13  C   UNK N   1      30.629  17.758   7.911  0.00  0.00     0.182 C 
HETATM   14  C   UNK N   1      30.100  16.572   7.120  0.00  0.00     0.180 C 
HETATM   15  O   UNK N   1      31.232  15.820   6.723  0.00  0.00    -0.348 OA
BRANCH  12  16
HETATM   16  O   UNK N   1      31.112  16.232   9.671  0.00  0.00    -0.388 OA
HETATM   17  H   UNK N   1      30.371  15.990  10.247  0.00  0.00     0.210 HD
ENDBRANCH  12  16
BRANCH  13  18
HETATM   18  O   UNK N   1      29.654  18.366   8.707  0.00  0.00    -0.390 OA
HETATM   19  H   UNK N   1      29.141  17.868   9.362  0.00  0.00     0.210 HD
ENDBRANCH  13  18
BRANCH  14  20
HETATM   20  C   UNK N   1      29.250  16.985   5.924  0.00  0.00     0.215 C 
BRANCH  20  21
HETATM   21  O   UNK N   1      29.071  18.371   5.891  0.00  0.00    -0.294 OA
BRANCH  21  22
HETATM   22  P   UNK N   1      27.614  18.602   4.975  0.00  0.00     0.390 P 
HETATM   23  O   UNK N   1      27.866  20.018   5.560  0.00  0.00    -0.632 OA
BRANCH  22  24
HETATM   24  O   UNK N   1      27.623  19.606   3.560  0.00  0.00    -0.307 OA
HETATM   25  H   UNK N   1      27.915  20.475   3.244  0.00  0.00     0.222 HD
ENDBRANCH  22  24
BRANCH  22  26
HETATM   26  O   UNK N   1      28.917  18.155   3.917  0.00  0.00    -0.307 OA
HETATM   27  H   UNK N   1      29.847  18.109   4.187  0.00  0.00     0.222 HD
ENDBRANCH  22  26
ENDBRANCH  21  22
ENDBRANCH  20  21
ENDBRANCH  14  20
ENDBRANCH  10  11
ENDBRANCH   6  10
ENDBRANCH   5   6
ENDBRANCH   3   5
BRANCH   3  28
HETATM   28  O   UNK N   1      34.878  17.258  10.593  0.00  0.00    -0.329 OA
HETATM   29  H   UNK N   1      34.194  17.800  11.016  0.00  0.00     0.220 HD
ENDBRANCH   3  28
TORSDOF 13
ENDMDL
MODEL 9
REMARK VINA RESULT:      -5.0      5.250      8.531
REMARK  13 active torsions:
REMARK  status: ('A' for Active; 'I' for Inactive)
REMARK    1  A    between atoms: C_3  and  C_1 
REMARK    2  A    between atoms: O_17  and  C_1 
REMARK    3  A    between atoms: P_20  and  C_2 
REMARK    4  A    between atoms: P_21  and  C_2 
REMARK    5  A    between atoms: C_4  and  O_7 
REMARK    6  A    between atoms: C_5  and  O_8 
REMARK    7  A    between atoms: C_6  and  O_19 
REMARK    8  A    between atoms: P_20  and  O_10 
REMARK    9  A    between atoms: P_21  and  O_12 
REMARK   10  A    between atoms: P_22  and  O_14 
REMARK   11  A    between atoms: P_22  and  O_15 
REMARK   12  A    between atoms: P_22  and  O_17 
REMARK   13  A    between atoms: P_21  and  O_19 
ROOT
HETATM    1  O   UNK N   1      35.662  11.766   8.416  0.00  0.00    -0.329 OA
HETATM    2  O   UNK N   1      37.119  12.385   6.358  0.00  0.00    -0.653 OA
HETATM    3  P   UNK N   1      36.219  13.073   7.420  0.00  0.00     0.247 P 
HETATM    4  H   UNK N   1      35.508  10.982   8.965  0.00  0.00     0.220 HD
ENDROOT
BRANCH   3   5
HETATM    5  C   UNK N   1      34.915  14.091   6.570  0.00  0.00     0.249 C 
BRANCH   5   6
HETATM    6  P   UNK N   1      34.057  15.236   7.762  0.00  0.00     0.251 P 
HETATM    7  O   UNK N   1      33.483  16.459   7.000  0.00  0.00    -0.653 OA
BRANCH   6   8
HETATM    8  O   UNK N   1      32.710  14.542   8.614  0.00  0.00    -0.329 OA
HETATM    9  H   UNK N   1      32.267  14.337   9.452  0.00  0.00     0.220 HD
ENDBRANCH   6   8
BRANCH   6  10
HETATM   10  O   UNK N   1      35.199  15.900   8.916  0.00  0.00    -0.284 OA
BRANCH  10  11
HETATM   11  C   UNK N   1      34.892  15.516  10.239  0.00  0.00     0.301 C 
HETATM   12  C   UNK N   1      35.941  16.015  11.243  0.00  0.00     0.205 C 
HETATM   13  C   UNK N   1      35.729  14.989  12.314  0.00  0.00     0.182 C 
HETATM   14  C   UNK N   1      35.649  13.744  11.444  0.00  0.00     0.180 C 
HETATM   15  O   UNK N   1      34.880  14.099  10.310  0.00  0.00    -0.348 OA
BRANCH  12  16
HETATM   16  O   UNK N   1      37.228  15.889  10.701  0.00  0.00    -0.388 OA
HETATM   17  H   UNK N   1      38.194  15.886  10.796  0.00  0.00     0.210 HD
ENDBRANCH  12  16
BRANCH  13  18
HETATM   18  O   UNK N   1      36.768  14.939  13.249  0.00  0.00    -0.390 OA
HETATM   19  H   UNK N   1      36.758  14.322  13.996  0.00  0.00     0.210 HD
ENDBRANCH  13  18
BRANCH  14  20
HETATM   20  C   UNK N   1      35.058  12.544  12.174  0.00  0.00     0.215 C 
BRANCH  20  21
HETATM   21  O   UNK N   1      34.513  12.924  13.405  0.00  0.00    -0.294 OA
BRANCH  21  22
HETATM   22  P   UNK N   1      34.848  11.589  14.463  0.00  0.00     0.390 P 
HETATM   23  O   UNK N   1      34.012  12.530  15.371  0.00  0.00    -0.632 OA
BRANCH  22  24
HETATM   24  O   UNK N   1      33.559  10.558  15.001  0.00  0.00    -0.307 OA
HETATM   25  H   UNK N   1      32.647  10.586  15.326  0.00  0.00     0.222 HD
ENDBRANCH  22  24
BRANCH  22  26
HETATM   26  O   UNK N   1      33.889  11.055  13.116  0.00  0.00    -0.307 OA
HETATM   27  H   UNK N   1      33.906  11.465  12.238  0.00  0.00     0.222 HD
ENDBRANCH  22  26
ENDBRANCH  21  22
ENDBRANCH  20  21
ENDBRANCH  14  20
ENDBRANCH  10  11
ENDBRANCH   6  10
ENDBRANCH   5   6
ENDBRANCH   3   5
BRANCH   3  28
HETATM   28  O   UNK N   1      37.344  14.002   8.361  0.00  0.00    -0.329 OA
HETATM   29  H   UNK N   1      37.608  14.917   8.174  0.00  0.00     0.220 HD
ENDBRANCH   3  28
TORSDOF 13
ENDMDL
