REMARK  6 active torsions:
REMARK  status: ('A' for Active; 'I' for Inactive)
REMARK    1  A    between atoms: C_8  and  C_6 
REMARK    2  A    between atoms: C_10  and  C_7 
REMARK    3  A    between atoms: O_12  and  C_8 
REMARK    4  A    between atoms: C_10  and  C_9 
REMARK    5  A    between atoms: O_15  and  C_9 
REMARK    6  A    between atoms: C_10  and  N_11 
ROOT
HETATM    1  C   UNK N   1       1.812  -0.768   0.253  0.00  0.00     0.019 A 
HETATM    2  C   UNK N   1      -0.524  -0.683  -0.368  0.00  0.00     0.019 A 
HETATM    3  C   UNK N   1       1.801   0.609   0.486  0.00  0.00     0.011 A 
HETATM    4  C   UNK N   1      -0.535   0.697  -0.143  0.00  0.00     0.011 A 
HETATM    5  C   UNK N   1       0.646  -1.426  -0.157  0.00  0.00     0.037 A 
HETATM    6  C   UNK N   1       0.624   1.356   0.305  0.00  0.00    -0.021 A 
ENDROOT
BRANCH   6   7
HETATM    7  C   UNK N   1       0.580   2.836   0.650  0.00  0.00     0.134 C 
HETATM    8  C   UNK N   1      -0.463   3.041   1.743  0.00  0.00     0.055 C 
BRANCH   7   9
HETATM    9  C   UNK N   1       0.251   3.675  -0.564  0.00  0.00     0.173 C 
HETATM   10  O   UNK N   1       1.002   3.672  -1.527  0.00  0.00    -0.648 OA
BRANCH   9  11
HETATM   11  O   UNK N   1      -0.849   4.456  -0.586  0.00  0.00    -0.774 OA
HETATM   12  H   UNK N   1      -0.762   5.388  -0.602  0.00  0.00     0.167 HD
ENDBRANCH   9  11
ENDBRANCH   7   9
BRANCH   7  13
HETATM   13  N   UNK N   1       1.863   3.281   1.177  0.00  0.00    -0.410 N 
HETATM   14  H   UNK N   1       2.582   2.659   1.546  0.00  0.00     0.151 HD
HETATM   15  H   UNK N   1       2.055   4.283   1.177  0.00  0.00     0.151 HD
ENDBRANCH   7  13
ENDBRANCH   6   7
BRANCH   5  16
HETATM   16  C   UNK N   1       0.638  -2.892  -0.329  0.00  0.00     0.176 C 
HETATM   17  O   UNK N   1       1.659  -3.540  -0.141  0.00  0.00    -0.646 OA
BRANCH  16  18
HETATM   18  O   UNK N   1      -0.500  -3.532  -0.659  0.00  0.00    -0.773 OA
HETATM   19  H   UNK N   1      -1.281  -3.069  -0.889  0.00  0.00     0.167 HD
ENDBRANCH  16  18
ENDBRANCH   5  16
TORSDOF 6
