REMARK  12 active torsions:
REMARK  status: ('A' for Active; 'I' for Inactive)
REMARK    1  A    between atoms: C_3  and  C_1 
REMARK    2  A    between atoms: C_4  and  C_2 
REMARK    3  A    between atoms: N_19  and  C_3 
REMARK    4  A    between atoms: N_19  and  C_4 
REMARK    5  A    between atoms: C_9  and  C_7 
REMARK    6  A    between atoms: N_17  and  C_7 
REMARK    7  A    between atoms: C_9  and  C_8 
REMARK    8  A    between atoms: C_14  and  C_10 
REMARK    9  A    between atoms: N_20  and  C_11 
REMARK   10  A    between atoms: N_19  and  C_12 
REMARK   11  A    between atoms: N_21  and  C_13 
REMARK   12  A    between atoms: O_24  and  C_14 
ROOT
HETATM    1  C   UNK N   1       1.235   3.739  -0.404  0.00  0.00     0.050 A 
HETATM    2  C   UNK N   1      -0.081   6.082   0.202  0.00  0.00     0.075 A 
HETATM    3  C   UNK N   1       1.928   4.936  -0.473  0.00  0.00     0.050 A 
HETATM    4  C   UNK N   1       1.281   6.135  -0.117  0.00  0.00     0.119 A 
HETATM    5  C   UNK N   1      -0.118   3.643  -0.063  0.00  0.00     0.064 A 
HETATM    6  C   UNK N   1      -0.820   4.881   0.188  0.00  0.00     0.131 A 
ENDROOT
BRANCH   3   7
HETATM    7  C   UNK N   1       3.232   4.904  -1.169  0.00  0.00     0.149 C 
HETATM    8  N   UNK N   1       4.221   4.175  -0.796  0.00  0.00    -0.363 N 
ATOM      9  HN  UNK N   1       4.995   4.051  -1.449  1.00  0.00     0.162 HD
BRANCH   8  10
HETATM   10  C   UNK N   1       4.309   3.525   0.481  0.00  0.00     0.208 C 
BRANCH  10  11
HETATM   11  C   UNK N   1       5.256   4.387   1.252  0.00  0.00     0.204 C 
HETATM   12  O   UNK N   1       4.885   4.945   2.272  0.00  0.00    -0.288 OA
BRANCH  11  13
HETATM   13  C   UNK N   1       6.562   4.722   0.644  0.00  0.00     0.310 C 
HETATM   14  O   UNK N   1       7.216   5.672   1.042  0.00  0.00    -0.298 OA
ENDBRANCH  11  13
ENDBRANCH  10  11
ENDBRANCH   8  10
BRANCH   7  15
HETATM   15  O   UNK N   1       3.367   5.643  -2.285  0.00  0.00    -0.346 OA
HETATM   16  H   UNK N   1       3.860   5.818  -3.062  0.00  0.00     0.219 HD
ENDBRANCH   7  15
ENDBRANCH   3   7
BRANCH   4  17
HETATM   17  N   UNK N   1       1.961   7.396  -0.086  0.00  0.00    -0.115 N 
HETATM   18  O   UNK N   1       3.155   7.443  -0.156  0.00  0.00    -0.532 OA
HETATM   19  O   UNK N   1       1.357   8.393   0.162  0.00  0.00    -0.532 OA
ENDBRANCH   4  17
BRANCH   5  20
HETATM   20  N   UNK N   1      -0.702   2.314  -0.016  0.00  0.00    -0.377 N 
BRANCH  20  21
HETATM   21  C   UNK N   1      -1.833   2.011   0.841  0.00  0.00     0.134 C 
BRANCH  21  22
HETATM   22  C   UNK N   1      -2.942   1.331   0.035  0.00  0.00     0.105 C 
HETATM   23 Br   UNK N   1      -4.673   1.569   0.864  0.00  0.00    -0.095 Br
ENDBRANCH  21  22
ENDBRANCH  20  21
BRANCH  20  24
HETATM   24  C   UNK N   1      -0.166   1.201  -0.811  0.00  0.00     0.134 C 
BRANCH  24  25
HETATM   25  C   UNK N   1       1.355   1.031  -0.870  0.00  0.00     0.105 C 
HETATM   26 Br   UNK N   1       2.112   0.108   0.646  0.00  0.00    -0.095 Br
ENDBRANCH  24  25
ENDBRANCH  20  24
ENDBRANCH   5  20
BRANCH   6  27
HETATM   27  N   UNK N   1      -2.245   5.001   0.303  0.00  0.00    -0.113 N 
HETATM   28  O   UNK N   1      -2.953   4.154  -0.144  0.00  0.00    -0.532 OA
HETATM   29  O   UNK N   1      -2.722   6.070   0.540  0.00  0.00    -0.532 OA
ENDBRANCH   6  27
TORSDOF 12
