MODEL 1
REMARK VINA RESULT:      -4.4      0.000      0.000
REMARK  4 active torsions:
REMARK  status: ('A' for Active; 'I' for Inactive)
REMARK    1  A    between atoms: C_2  and  C_3 
REMARK    2  A    between atoms: C_2  and  C_6 
REMARK    3  A    between atoms: C_3  and  O_4 
REMARK    4  A    between atoms: C_6  and  O_7 
ROOT
HETATM    1  C   UNK N   1      32.852  16.381   8.631  0.00  0.00     0.032 C 
HETATM    2  C   UNK N   1      34.134  17.124   8.975  0.00  0.00     0.177 C 
ENDROOT
BRANCH   2   3
HETATM    3  C   UNK N   1      34.887  16.755  10.227  0.00  0.00     0.153 C 
HETATM    4  O   UNK N   1      35.941  17.305  10.499  0.00  0.00    -0.649 OA
BRANCH   3   5
HETATM    5  O   UNK N   1      34.399  15.813  11.056  0.00  0.00    -0.776 OA
HETATM    6  H   UNK N   1      34.985  15.251  11.523  0.00  0.00     0.167 HD
ENDBRANCH   3   5
ENDBRANCH   2   3
BRANCH   2   7
HETATM    7  C   UNK N   1      34.620  18.212   8.056  0.00  0.00     0.153 C 
HETATM    8  O   UNK N   1      34.404  18.152   6.856  0.00  0.00    -0.649 OA
BRANCH   7   9
HETATM    9  O   UNK N   1      35.299  19.262   8.554  0.00  0.00    -0.776 OA
HETATM   10  H   UNK N   1      35.773  19.831   7.977  0.00  0.00     0.167 HD
ENDBRANCH   7   9
ENDBRANCH   2   7
TORSDOF 4
ENDMDL
MODEL 2
REMARK VINA RESULT:      -4.4      0.173      3.256
REMARK  4 active torsions:
REMARK  status: ('A' for Active; 'I' for Inactive)
REMARK    1  A    between atoms: C_2  and  C_3 
REMARK    2  A    between atoms: C_2  and  C_6 
REMARK    3  A    between atoms: C_3  and  O_4 
REMARK    4  A    between atoms: C_6  and  O_7 
ROOT
HETATM    1  C   UNK N   1      32.635  16.622   8.629  0.00  0.00     0.032 C 
HETATM    2  C   UNK N   1      34.006  17.203   8.939  0.00  0.00     0.177 C 
ENDROOT
BRANCH   2   3
HETATM    3  C   UNK N   1      34.591  18.246   8.022  0.00  0.00     0.153 C 
HETATM    4  O   UNK N   1      34.431  18.167   6.816  0.00  0.00    -0.649 OA
BRANCH   3   5
HETATM    5  O   UNK N   1      35.294  19.275   8.531  0.00  0.00    -0.776 OA
HETATM    6  H   UNK N   1      35.252  20.118   8.125  0.00  0.00     0.167 HD
ENDBRANCH   3   5
ENDBRANCH   2   3
BRANCH   2   7
HETATM    7  C   UNK N   1      34.748  16.721  10.157  0.00  0.00     0.153 C 
HETATM    8  O   UNK N   1      35.811  17.228  10.476  0.00  0.00    -0.649 OA
BRANCH   7   9
HETATM    9  O   UNK N   1      34.240  15.723  10.905  0.00  0.00    -0.776 OA
HETATM   10  H   UNK N   1      34.800  15.036  11.212  0.00  0.00     0.167 HD
ENDBRANCH   7   9
ENDBRANCH   2   7
TORSDOF 4
ENDMDL
MODEL 3
REMARK VINA RESULT:      -4.3     12.137     13.572
REMARK  4 active torsions:
REMARK  status: ('A' for Active; 'I' for Inactive)
REMARK    1  A    between atoms: C_2  and  C_3 
REMARK    2  A    between atoms: C_2  and  C_6 
REMARK    3  A    between atoms: C_3  and  O_4 
REMARK    4  A    between atoms: C_6  and  O_7 
ROOT
HETATM    1  C   UNK N   1      23.224  11.542   9.440  0.00  0.00     0.032 C 
HETATM    2  C   UNK N   1      22.663  11.938  10.797  0.00  0.00     0.177 C 
ENDROOT
BRANCH   2   3
HETATM    3  C   UNK N   1      23.589  12.021  11.983  0.00  0.00     0.153 C 
HETATM    4  O   UNK N   1      23.156  11.887  13.115  0.00  0.00    -0.649 OA
BRANCH   3   5
HETATM    5  O   UNK N   1      24.903  12.244  11.799  0.00  0.00    -0.776 OA
HETATM    6  H   UNK N   1      25.448  11.570  11.443  0.00  0.00     0.167 HD
ENDBRANCH   3   5
ENDBRANCH   2   3
BRANCH   2   7
HETATM    7  C   UNK N   1      21.193  12.239  10.923  0.00  0.00     0.153 C 
HETATM    8  O   UNK N   1      20.616  12.880  10.060  0.00  0.00    -0.649 OA
BRANCH   7   9
HETATM    9  O   UNK N   1      20.505  11.800  11.993  0.00  0.00    -0.776 OA
HETATM   10  H   UNK N   1      20.954  11.610  12.794  0.00  0.00     0.167 HD
ENDBRANCH   7   9
ENDBRANCH   2   7
TORSDOF 4
ENDMDL
MODEL 4
REMARK VINA RESULT:      -4.2     12.207     13.760
REMARK  4 active torsions:
REMARK  status: ('A' for Active; 'I' for Inactive)
REMARK    1  A    between atoms: C_2  and  C_3 
REMARK    2  A    between atoms: C_2  and  C_6 
REMARK    3  A    between atoms: C_3  and  O_4 
REMARK    4  A    between atoms: C_6  and  O_7 
ROOT
HETATM    1  C   UNK N   1      23.089  11.922   9.404  0.00  0.00     0.032 C 
HETATM    2  C   UNK N   1      22.552  12.090  10.817  0.00  0.00     0.177 C 
ENDROOT
BRANCH   2   3
HETATM    3  C   UNK N   1      21.075  12.307  11.024  0.00  0.00     0.153 C 
HETATM    4  O   UNK N   1      20.439  13.005  10.252  0.00  0.00    -0.649 OA
BRANCH   3   5
HETATM    5  O   UNK N   1      20.447  11.731  12.066  0.00  0.00    -0.776 OA
HETATM    6  H   UNK N   1      19.518  11.611  12.046  0.00  0.00     0.167 HD
ENDBRANCH   3   5
ENDBRANCH   2   3
BRANCH   2   7
HETATM    7  C   UNK N   1      23.510  12.034  11.977  0.00  0.00     0.153 C 
HETATM    8  O   UNK N   1      23.098  11.859  13.112  0.00  0.00    -0.649 OA
BRANCH   7   9
HETATM    9  O   UNK N   1      24.831  12.178  11.767  0.00  0.00    -0.776 OA
HETATM   10  H   UNK N   1      25.268  12.961  12.044  0.00  0.00     0.167 HD
ENDBRANCH   7   9
ENDBRANCH   2   7
TORSDOF 4
ENDMDL
MODEL 5
REMARK VINA RESULT:      -3.7      1.747      3.575
REMARK  4 active torsions:
REMARK  status: ('A' for Active; 'I' for Inactive)
REMARK    1  A    between atoms: C_2  and  C_3 
REMARK    2  A    between atoms: C_2  and  C_6 
REMARK    3  A    between atoms: C_3  and  O_4 
REMARK    4  A    between atoms: C_6  and  O_7 
ROOT
HETATM    1  C   UNK N   1      31.715  18.018   8.573  0.00  0.00     0.032 C 
HETATM    2  C   UNK N   1      33.058  17.863   7.876  0.00  0.00     0.177 C 
ENDROOT
BRANCH   2   3
HETATM    3  C   UNK N   1      33.093  17.482   6.419  0.00  0.00     0.153 C 
HETATM    4  O   UNK N   1      32.116  16.984   5.886  0.00  0.00    -0.649 OA
BRANCH   3   5
HETATM    5  O   UNK N   1      34.208  17.691   5.693  0.00  0.00    -0.776 OA
HETATM    6  H   UNK N   1      34.142  17.893   4.781  0.00  0.00     0.167 HD
ENDBRANCH   3   5
ENDBRANCH   2   3
BRANCH   2   7
HETATM    7  C   UNK N   1      34.322  18.094   8.660  0.00  0.00     0.153 C 
HETATM    8  O   UNK N   1      34.608  17.371   9.601  0.00  0.00    -0.649 OA
BRANCH   7   9
HETATM    9  O   UNK N   1      35.147  19.104   8.327  0.00  0.00    -0.776 OA
HETATM   10  H   UNK N   1      36.053  19.067   8.566  0.00  0.00     0.167 HD
ENDBRANCH   7   9
ENDBRANCH   2   7
TORSDOF 4
ENDMDL
MODEL 6
REMARK VINA RESULT:      -3.7     12.611     13.648
REMARK  4 active torsions:
REMARK  status: ('A' for Active; 'I' for Inactive)
REMARK    1  A    between atoms: C_2  and  C_3 
REMARK    2  A    between atoms: C_2  and  C_6 
REMARK    3  A    between atoms: C_3  and  O_4 
REMARK    4  A    between atoms: C_6  and  O_7 
ROOT
HETATM    1  C   UNK N   1      30.217  21.565  -4.711  0.00  0.00     0.032 C 
HETATM    2  C   UNK N   1      30.978  21.983  -3.462  0.00  0.00     0.177 C 
ENDROOT
BRANCH   2   3
HETATM    3  C   UNK N   1      32.324  21.368  -3.178  0.00  0.00     0.153 C 
HETATM    4  O   UNK N   1      33.018  20.950  -4.090  0.00  0.00    -0.649 OA
BRANCH   3   5
HETATM    5  O   UNK N   1      32.770  21.276  -1.911  0.00  0.00    -0.776 OA
HETATM    6  H   UNK N   1      32.191  21.001  -1.229  0.00  0.00     0.167 HD
ENDBRANCH   3   5
ENDBRANCH   2   3
BRANCH   2   7
HETATM    7  C   UNK N   1      30.367  23.002  -2.538  0.00  0.00     0.153 C 
HETATM    8  O   UNK N   1      30.568  22.948  -1.336  0.00  0.00    -0.649 OA
BRANCH   7   9
HETATM    9  O   UNK N   1      29.592  23.985  -3.035  0.00  0.00    -0.776 OA
HETATM   10  H   UNK N   1      28.747  24.149  -2.664  0.00  0.00     0.167 HD
ENDBRANCH   7   9
ENDBRANCH   2   7
TORSDOF 4
ENDMDL
MODEL 7
REMARK VINA RESULT:      -3.7     11.137     11.888
REMARK  4 active torsions:
REMARK  status: ('A' for Active; 'I' for Inactive)
REMARK    1  A    between atoms: C_2  and  C_3 
REMARK    2  A    between atoms: C_2  and  C_6 
REMARK    3  A    between atoms: C_3  and  O_4 
REMARK    4  A    between atoms: C_6  and  O_7 
ROOT
HETATM    1  C   UNK N   1      43.696  20.000   3.069  0.00  0.00     0.032 C 
HETATM    2  C   UNK N   1      43.489  21.474   3.380  0.00  0.00     0.177 C 
ENDROOT
BRANCH   2   3
HETATM    3  C   UNK N   1      42.390  22.230   2.679  0.00  0.00     0.153 C 
HETATM    4  O   UNK N   1      41.482  21.630   2.127  0.00  0.00    -0.649 OA
BRANCH   3   5
HETATM    5  O   UNK N   1      42.402  23.575   2.658  0.00  0.00    -0.776 OA
HETATM    6  H   UNK N   1      42.200  24.034   1.866  0.00  0.00     0.167 HD
ENDBRANCH   3   5
ENDBRANCH   2   3
BRANCH   2   7
HETATM    7  C   UNK N   1      44.390  22.145   4.382  0.00  0.00     0.153 C 
HETATM    8  O   UNK N   1      43.919  22.719   5.350  0.00  0.00    -0.649 OA
BRANCH   7   9
HETATM    9  O   UNK N   1      45.725  22.114   4.216  0.00  0.00    -0.776 OA
HETATM   10  H   UNK N   1      46.151  22.782   3.713  0.00  0.00     0.167 HD
ENDBRANCH   7   9
ENDBRANCH   2   7
TORSDOF 4
ENDMDL
MODEL 8
REMARK VINA RESULT:      -3.7     11.928     12.670
REMARK  4 active torsions:
REMARK  status: ('A' for Active; 'I' for Inactive)
REMARK    1  A    between atoms: C_2  and  C_3 
REMARK    2  A    between atoms: C_2  and  C_6 
REMARK    3  A    between atoms: C_3  and  O_4 
REMARK    4  A    between atoms: C_6  and  O_7 
ROOT
HETATM    1  C   UNK N   1      21.187  12.301  11.004  0.00  0.00     0.032 C 
HETATM    2  C   UNK N   1      22.698  12.252  10.837  0.00  0.00     0.177 C 
ENDROOT
BRANCH   2   3
HETATM    3  C   UNK N   1      23.569  12.063  12.052  0.00  0.00     0.153 C 
HETATM    4  O   UNK N   1      23.072  11.799  13.134  0.00  0.00    -0.649 OA
BRANCH   3   5
HETATM    5  O   UNK N   1      24.906  12.184  11.949  0.00  0.00    -0.776 OA
HETATM    6  H   UNK N   1      25.417  11.472  11.618  0.00  0.00     0.167 HD
ENDBRANCH   3   5
ENDBRANCH   2   3
BRANCH   2   7
HETATM    7  C   UNK N   1      23.288  12.394   9.459  0.00  0.00     0.153 C 
HETATM    8  O   UNK N   1      24.289  11.770   9.147  0.00  0.00    -0.649 OA
BRANCH   7   9
HETATM    9  O   UNK N   1      22.712  13.214   8.561  0.00  0.00    -0.776 OA
HETATM   10  H   UNK N   1      21.885  13.612   8.752  0.00  0.00     0.167 HD
ENDBRANCH   7   9
ENDBRANCH   2   7
TORSDOF 4
ENDMDL
MODEL 9
REMARK VINA RESULT:      -3.5      7.355      9.091
REMARK  4 active torsions:
REMARK  status: ('A' for Active; 'I' for Inactive)
REMARK    1  A    between atoms: C_2  and  C_3 
REMARK    2  A    between atoms: C_2  and  C_6 
REMARK    3  A    between atoms: C_3  and  O_4 
REMARK    4  A    between atoms: C_6  and  O_7 
ROOT
HETATM    1  C   UNK N   1      35.210  11.915  16.882  0.00  0.00     0.032 C 
HETATM    2  C   UNK N   1      35.734  13.341  16.818  0.00  0.00     0.177 C 
ENDROOT
BRANCH   2   3
HETATM    3  C   UNK N   1      36.325  13.852  15.530  0.00  0.00     0.153 C 
HETATM    4  O   UNK N   1      35.719  13.726  14.478  0.00  0.00    -0.649 OA
BRANCH   3   5
HETATM    5  O   UNK N   1      37.530  14.453  15.531  0.00  0.00    -0.776 OA
HETATM    6  H   UNK N   1      38.221  14.119  14.993  0.00  0.00     0.167 HD
ENDBRANCH   3   5
ENDBRANCH   2   3
BRANCH   2   7
HETATM    7  C   UNK N   1      35.650  14.209  18.045  0.00  0.00     0.153 C 
HETATM    8  O   UNK N   1      35.063  13.819  19.041  0.00  0.00    -0.649 OA
BRANCH   7   9
HETATM    9  O   UNK N   1      36.224  15.427  18.050  0.00  0.00    -0.776 OA
HETATM   10  H   UNK N   1      36.553  15.787  18.851  0.00  0.00     0.167 HD
ENDBRANCH   7   9
ENDBRANCH   2   7
TORSDOF 4
ENDMDL
