MODEL 1
REMARK VINA RESULT:      -5.3      0.000      0.000
REMARK  11 active torsions:
REMARK  status: ('A' for Active; 'I' for Inactive)
REMARK    1  A    between atoms: C_2  and  O_3 
REMARK    2  A    between atoms: C_2  and  C_4 
REMARK    3  A    between atoms: C_2  and  C_6 
REMARK    4  A    between atoms: C_6  and  C_7 
REMARK    5  A    between atoms: C_7  and  O_8 
REMARK    6  A    between atoms: P_9  and  O_8 
REMARK    7  A    between atoms: P_9  and  O_10 
REMARK    8  A    between atoms: P_9  and  O_12 
REMARK    9  A    between atoms: O_12  and  P_13 
REMARK   10  A    between atoms: P_13  and  O_14 
REMARK   11  A    between atoms: P_13  and  O_15 
ROOT
HETATM    1  P   UNK N   1      35.381  15.746   9.904  0.00  0.00     0.401 P 
HETATM    2  O   UNK N   1      36.453  16.247  10.917  0.00  0.00    -0.631 OA
ENDROOT
BRANCH   1   3
HETATM    3  O   UNK N   1      34.845  15.064  11.420  0.00  0.00    -0.297 OA
BRANCH   3   4
HETATM    4  C   UNK N   1      34.974  13.675  11.268  0.00  0.00     0.183 C 
BRANCH   4   5
HETATM    5  C   UNK N   1      35.090  12.973  12.614  0.00  0.00     0.065 C 
BRANCH   5   6
HETATM    6  C   UNK N   1      36.516  13.024  13.162  0.00  0.00     0.065 C 
HETATM    7  C   UNK N   1      37.056  11.612  13.311  0.00  0.00     0.046 C 
BRANCH   6   8
HETATM    8  O   UNK N   1      37.336  13.753  12.296  0.00  0.00    -0.389 OA
HETATM    9  H   UNK N   1      38.164  13.575  11.823  0.00  0.00     0.210 HD
ENDBRANCH   6   8
BRANCH   6  10
HETATM   10  C   UNK N   1      36.481  13.712  14.520  0.00  0.00     0.122 C 
HETATM   11 Br   UNK N   1      35.123  12.969  15.699  0.00  0.00    -0.093 Br
ENDBRANCH   6  10
ENDBRANCH   5   6
ENDBRANCH   4   5
ENDBRANCH   3   4
ENDBRANCH   1   3
BRANCH   1  12
HETATM   12  O   UNK N   1      33.726  16.118  10.299  0.00  0.00    -0.307 OA
HETATM   13  H   UNK N   1      33.040  16.768  10.085  0.00  0.00     0.222 HD
ENDBRANCH   1  12
BRANCH   1  14
HETATM   14  O   UNK N   1      35.197  17.496   9.558  0.00  0.00    -0.195 OA
BRANCH  14  15
HETATM   15  P   UNK N   1      34.022  17.904   8.293  0.00  0.00     0.399 P 
HETATM   16  O   UNK N   1      34.972  19.129   8.255  0.00  0.00    -0.631 OA
BRANCH  15  17
HETATM   17  O   UNK N   1      34.491  17.999   6.626  0.00  0.00    -0.307 OA
HETATM   18  H   UNK N   1      34.090  17.405   5.973  0.00  0.00     0.222 HD
ENDBRANCH  15  17
BRANCH  15  19
HETATM   19  O   UNK N   1      34.906  16.486   7.822  0.00  0.00    -0.307 OA
HETATM   20  H   UNK N   1      35.835  16.361   8.072  0.00  0.00     0.222 HD
ENDBRANCH  15  19
ENDBRANCH  14  15
ENDBRANCH   1  14
TORSDOF 11
ENDMDL
MODEL 2
REMARK VINA RESULT:      -5.1     15.252     16.551
REMARK  11 active torsions:
REMARK  status: ('A' for Active; 'I' for Inactive)
REMARK    1  A    between atoms: C_2  and  O_3 
REMARK    2  A    between atoms: C_2  and  C_4 
REMARK    3  A    between atoms: C_2  and  C_6 
REMARK    4  A    between atoms: C_6  and  C_7 
REMARK    5  A    between atoms: C_7  and  O_8 
REMARK    6  A    between atoms: P_9  and  O_8 
REMARK    7  A    between atoms: P_9  and  O_10 
REMARK    8  A    between atoms: P_9  and  O_12 
REMARK    9  A    between atoms: O_12  and  P_13 
REMARK   10  A    between atoms: P_13  and  O_14 
REMARK   11  A    between atoms: P_13  and  O_15 
ROOT
HETATM    1  P   UNK N   1      20.017  17.848   2.304  0.00  0.00     0.401 P 
HETATM    2  O   UNK N   1      21.155  18.069   3.344  0.00  0.00    -0.631 OA
ENDROOT
BRANCH   1   3
HETATM    3  O   UNK N   1      19.259  17.421   3.819  0.00  0.00    -0.297 OA
BRANCH   3   4
HETATM    4  C   UNK N   1      19.984  16.319   4.298  0.00  0.00     0.183 C 
BRANCH   4   5
HETATM    5  C   UNK N   1      19.735  16.089   5.782  0.00  0.00     0.065 C 
BRANCH   5   6
HETATM    6  C   UNK N   1      20.804  16.753   6.649  0.00  0.00     0.065 C 
HETATM    7  C   UNK N   1      22.096  15.958   6.563  0.00  0.00     0.046 C 
BRANCH   6   8
HETATM    8  O   UNK N   1      21.027  18.063   6.215  0.00  0.00    -0.389 OA
HETATM    9  H   UNK N   1      21.515  18.470   5.482  0.00  0.00     0.210 HD
ENDBRANCH   6   8
BRANCH   6  10
HETATM   10  C   UNK N   1      20.305  16.778   8.088  0.00  0.00     0.122 C 
HETATM   11 Br   UNK N   1      20.526  15.066   8.985  0.00  0.00    -0.093 Br
ENDBRANCH   6  10
ENDBRANCH   5   6
ENDBRANCH   4   5
ENDBRANCH   3   4
ENDBRANCH   1   3
BRANCH   1  12
HETATM   12  O   UNK N   1      18.528  18.697   2.611  0.00  0.00    -0.307 OA
HETATM   13  H   UNK N   1      17.870  18.813   3.313  0.00  0.00     0.222 HD
ENDBRANCH   1  12
BRANCH   1  14
HETATM   14  O   UNK N   1      20.356  19.559   1.887  0.00  0.00    -0.195 OA
BRANCH  14  15
HETATM   15  P   UNK N   1      21.848  20.230   2.573  0.00  0.00     0.399 P 
HETATM   16  O   UNK N   1      21.915  20.733   1.107  0.00  0.00    -0.631 OA
BRANCH  15  17
HETATM   17  O   UNK N   1      22.071  21.942   2.743  0.00  0.00    -0.307 OA
HETATM   18  H   UNK N   1      21.843  22.537   2.012  0.00  0.00     0.222 HD
ENDBRANCH  15  17
BRANCH  15  19
HETATM   19  O   UNK N   1      20.479  20.952   3.358  0.00  0.00    -0.307 OA
HETATM   20  H   UNK N   1      20.030  21.726   2.983  0.00  0.00     0.222 HD
ENDBRANCH  15  19
ENDBRANCH  14  15
ENDBRANCH   1  14
TORSDOF 11
ENDMDL
MODEL 3
REMARK VINA RESULT:      -5.0      1.127      1.364
REMARK  11 active torsions:
REMARK  status: ('A' for Active; 'I' for Inactive)
REMARK    1  A    between atoms: C_2  and  O_3 
REMARK    2  A    between atoms: C_2  and  C_4 
REMARK    3  A    between atoms: C_2  and  C_6 
REMARK    4  A    between atoms: C_6  and  C_7 
REMARK    5  A    between atoms: C_7  and  O_8 
REMARK    6  A    between atoms: P_9  and  O_8 
REMARK    7  A    between atoms: P_9  and  O_10 
REMARK    8  A    between atoms: P_9  and  O_12 
REMARK    9  A    between atoms: O_12  and  P_13 
REMARK   10  A    between atoms: P_13  and  O_14 
REMARK   11  A    between atoms: P_13  and  O_15 
ROOT
HETATM    1  P   UNK N   1      35.336  15.764   9.841  0.00  0.00     0.401 P 
HETATM    2  O   UNK N   1      36.523  16.335  10.670  0.00  0.00    -0.631 OA
ENDROOT
BRANCH   1   3
HETATM    3  O   UNK N   1      35.211  14.905  11.357  0.00  0.00    -0.297 OA
BRANCH   3   4
HETATM    4  C   UNK N   1      34.753  13.623  11.021  0.00  0.00     0.183 C 
BRANCH   4   5
HETATM    5  C   UNK N   1      35.851  12.787  10.378  0.00  0.00     0.065 C 
BRANCH   5   6
HETATM    6  C   UNK N   1      36.955  12.432  11.374  0.00  0.00     0.065 C 
HETATM    7  C   UNK N   1      37.915  11.440  10.739  0.00  0.00     0.046 C 
BRANCH   6   8
HETATM    8  O   UNK N   1      37.650  13.585  11.750  0.00  0.00    -0.389 OA
HETATM    9  H   UNK N   1      37.914  13.983  12.594  0.00  0.00     0.210 HD
ENDBRANCH   6   8
BRANCH   6  10
HETATM   10  C   UNK N   1      36.307  11.812  12.604  0.00  0.00     0.122 C 
HETATM   11 Br   UNK N   1      36.658  12.828  14.226  0.00  0.00    -0.093 Br
ENDBRANCH   6  10
ENDBRANCH   5   6
ENDBRANCH   4   5
ENDBRANCH   3   4
ENDBRANCH   1   3
BRANCH   1  12
HETATM   12  O   UNK N   1      33.765  15.871  10.585  0.00  0.00    -0.307 OA
HETATM   13  H   UNK N   1      33.339  15.737  11.445  0.00  0.00     0.222 HD
ENDBRANCH   1  12
BRANCH   1  14
HETATM   14  O   UNK N   1      34.871  17.490   9.712  0.00  0.00    -0.195 OA
BRANCH  14  15
HETATM   15  P   UNK N   1      33.929  17.921   8.271  0.00  0.00     0.399 P 
HETATM   16  O   UNK N   1      34.990  19.052   8.310  0.00  0.00    -0.631 OA
BRANCH  15  17
HETATM   17  O   UNK N   1      34.633  17.870   6.687  0.00  0.00    -0.307 OA
HETATM   18  H   UNK N   1      34.333  17.210   6.042  0.00  0.00     0.222 HD
ENDBRANCH  15  17
BRANCH  15  19
HETATM   19  O   UNK N   1      34.728  16.403   8.003  0.00  0.00    -0.307 OA
HETATM   20  H   UNK N   1      35.696  16.339   7.971  0.00  0.00     0.222 HD
ENDBRANCH  15  19
ENDBRANCH  14  15
ENDBRANCH   1  14
TORSDOF 11
ENDMDL
MODEL 4
REMARK VINA RESULT:      -4.9      1.634      2.261
REMARK  11 active torsions:
REMARK  status: ('A' for Active; 'I' for Inactive)
REMARK    1  A    between atoms: C_2  and  O_3 
REMARK    2  A    between atoms: C_2  and  C_4 
REMARK    3  A    between atoms: C_2  and  C_6 
REMARK    4  A    between atoms: C_6  and  C_7 
REMARK    5  A    between atoms: C_7  and  O_8 
REMARK    6  A    between atoms: P_9  and  O_8 
REMARK    7  A    between atoms: P_9  and  O_10 
REMARK    8  A    between atoms: P_9  and  O_12 
REMARK    9  A    between atoms: O_12  and  P_13 
REMARK   10  A    between atoms: P_13  and  O_14 
REMARK   11  A    between atoms: P_13  and  O_15 
ROOT
HETATM    1  P   UNK N   1      35.228  15.705  11.045  0.00  0.00     0.401 P 
HETATM    2  O   UNK N   1      34.727  14.311  10.565  0.00  0.00    -0.631 OA
ENDROOT
BRANCH   1   3
HETATM    3  O   UNK N   1      36.329  14.597  11.826  0.00  0.00    -0.297 OA
BRANCH   3   4
HETATM    4  C   UNK N   1      36.149  14.804  13.202  0.00  0.00     0.183 C 
BRANCH   4   5
HETATM    5  C   UNK N   1      36.528  13.570  14.008  0.00  0.00     0.065 C 
BRANCH   5   6
HETATM    6  C   UNK N   1      35.375  12.571  14.098  0.00  0.00     0.065 C 
HETATM    7  C   UNK N   1      34.750  12.637  15.481  0.00  0.00     0.046 C 
BRANCH   6   8
HETATM    8  O   UNK N   1      34.410  12.865  13.130  0.00  0.00    -0.389 OA
HETATM    9  H   UNK N   1      33.885  12.344  12.503  0.00  0.00     0.210 HD
ENDBRANCH   6   8
BRANCH   6  10
HETATM   10  C   UNK N   1      35.930  11.176  13.846  0.00  0.00     0.122 C 
HETATM   11 Br   UNK N   1      37.819  11.032  14.290  0.00  0.00    -0.093 Br
ENDBRANCH   6  10
ENDBRANCH   5   6
ENDBRANCH   4   5
ENDBRANCH   3   4
ENDBRANCH   1   3
BRANCH   1  12
HETATM   12  O   UNK N   1      36.908  16.056  10.750  0.00  0.00    -0.307 OA
HETATM   13  H   UNK N   1      37.743  16.149  11.232  0.00  0.00     0.222 HD
ENDBRANCH   1  12
BRANCH   1  14
HETATM   14  O   UNK N   1      35.338  16.036   9.286  0.00  0.00    -0.195 OA
BRANCH  14  15
HETATM   15  P   UNK N   1      34.215  17.264   8.669  0.00  0.00     0.399 P 
HETATM   16  O   UNK N   1      35.286  18.135   9.379  0.00  0.00    -0.631 OA
BRANCH  15  17
HETATM   17  O   UNK N   1      34.699  18.390   7.442  0.00  0.00    -0.307 OA
HETATM   18  H   UNK N   1      34.526  19.337   7.554  0.00  0.00     0.222 HD
ENDBRANCH  15  17
BRANCH  15  19
HETATM   19  O   UNK N   1      34.953  16.437   7.333  0.00  0.00    -0.307 OA
HETATM   20  H   UNK N   1      35.742  16.789   6.893  0.00  0.00     0.222 HD
ENDBRANCH  15  19
ENDBRANCH  14  15
ENDBRANCH   1  14
TORSDOF 11
ENDMDL
MODEL 5
REMARK VINA RESULT:      -4.9      2.178      3.400
REMARK  11 active torsions:
REMARK  status: ('A' for Active; 'I' for Inactive)
REMARK    1  A    between atoms: C_2  and  O_3 
REMARK    2  A    between atoms: C_2  and  C_4 
REMARK    3  A    between atoms: C_2  and  C_6 
REMARK    4  A    between atoms: C_6  and  C_7 
REMARK    5  A    between atoms: C_7  and  O_8 
REMARK    6  A    between atoms: P_9  and  O_8 
REMARK    7  A    between atoms: P_9  and  O_10 
REMARK    8  A    between atoms: P_9  and  O_12 
REMARK    9  A    between atoms: O_12  and  P_13 
REMARK   10  A    between atoms: P_13  and  O_14 
REMARK   11  A    between atoms: P_13  and  O_15 
ROOT
HETATM    1  P   UNK N   1      35.680  13.479  11.547  0.00  0.00     0.401 P 
HETATM    2  O   UNK N   1      36.700  14.557  12.018  0.00  0.00    -0.631 OA
ENDROOT
BRANCH   1   3
HETATM    3  O   UNK N   1      36.145  12.919  13.135  0.00  0.00    -0.297 OA
BRANCH   3   4
HETATM    4  C   UNK N   1      36.170  14.067  13.941  0.00  0.00     0.183 C 
BRANCH   4   5
HETATM    5  C   UNK N   1      36.592  13.742  15.367  0.00  0.00     0.065 C 
BRANCH   5   6
HETATM    6  C   UNK N   1      35.485  13.026  16.140  0.00  0.00     0.065 C 
HETATM    7  C   UNK N   1      35.280  13.705  17.484  0.00  0.00     0.046 C 
BRANCH   6   8
HETATM    8  O   UNK N   1      34.293  13.058  15.410  0.00  0.00    -0.389 OA
HETATM    9  H   UNK N   1      33.436  12.609  15.474  0.00  0.00     0.210 HD
ENDBRANCH   6   8
BRANCH   6  10
HETATM   10  C   UNK N   1      35.907  11.578  16.349  0.00  0.00     0.122 C 
HETATM   11 Br   UNK N   1      35.368  10.887  18.087  0.00  0.00    -0.093 Br
ENDBRANCH   6  10
ENDBRANCH   5   6
ENDBRANCH   4   5
ENDBRANCH   3   4
ENDBRANCH   1   3
BRANCH   1  12
HETATM   12  O   UNK N   1      34.334  13.185  12.613  0.00  0.00    -0.307 OA
HETATM   13  H   UNK N   1      33.746  13.665  13.216  0.00  0.00     0.222 HD
ENDBRANCH   1  12
BRANCH   1  14
HETATM   14  O   UNK N   1      34.600  14.895  11.343  0.00  0.00    -0.195 OA
BRANCH  14  15
HETATM   15  P   UNK N   1      34.822  15.813   9.840  0.00  0.00     0.399 P 
HETATM   16  O   UNK N   1      33.332  15.388   9.740  0.00  0.00    -0.631 OA
BRANCH  15  17
HETATM   17  O   UNK N   1      33.992  17.312   9.570  0.00  0.00    -0.307 OA
HETATM   18  H   UNK N   1      33.204  17.337   9.005  0.00  0.00     0.222 HD
ENDBRANCH  15  17
BRANCH  15  19
HETATM   19  O   UNK N   1      35.018  16.877  11.198  0.00  0.00    -0.307 OA
HETATM   20  H   UNK N   1      34.256  17.301  11.623  0.00  0.00     0.222 HD
ENDBRANCH  15  19
ENDBRANCH  14  15
ENDBRANCH   1  14
TORSDOF 11
ENDMDL
MODEL 6
REMARK VINA RESULT:      -4.7      3.065      4.278
REMARK  11 active torsions:
REMARK  status: ('A' for Active; 'I' for Inactive)
REMARK    1  A    between atoms: C_2  and  O_3 
REMARK    2  A    between atoms: C_2  and  C_4 
REMARK    3  A    between atoms: C_2  and  C_6 
REMARK    4  A    between atoms: C_6  and  C_7 
REMARK    5  A    between atoms: C_7  and  O_8 
REMARK    6  A    between atoms: P_9  and  O_8 
REMARK    7  A    between atoms: P_9  and  O_10 
REMARK    8  A    between atoms: P_9  and  O_12 
REMARK    9  A    between atoms: O_12  and  P_13 
REMARK   10  A    between atoms: P_13  and  O_14 
REMARK   11  A    between atoms: P_13  and  O_15 
ROOT
HETATM    1  P   UNK N   1      36.141  13.774  13.131  0.00  0.00     0.401 P 
HETATM    2  O   UNK N   1      36.472  15.076  13.920  0.00  0.00    -0.631 OA
ENDROOT
BRANCH   1   3
HETATM    3  O   UNK N   1      35.253  13.574  14.622  0.00  0.00    -0.297 OA
BRANCH   3   4
HETATM    4  C   UNK N   1      36.181  13.060  15.540  0.00  0.00     0.183 C 
BRANCH   4   5
HETATM    5  C   UNK N   1      35.524  12.101  16.522  0.00  0.00     0.065 C 
BRANCH   5   6
HETATM    6  C   UNK N   1      35.065  10.813  15.840  0.00  0.00     0.065 C 
HETATM    7  C   UNK N   1      34.657   9.795  16.893  0.00  0.00     0.046 C 
BRANCH   6   8
HETATM    8  O   UNK N   1      33.981  11.077  14.997  0.00  0.00    -0.389 OA
HETATM    9  H   UNK N   1      33.178  10.598  14.741  0.00  0.00     0.210 HD
ENDBRANCH   6   8
BRANCH   6  10
HETATM   10  C   UNK N   1      36.223  10.269  15.015  0.00  0.00     0.122 C 
HETATM   11 Br   UNK N   1      35.699   8.773  13.887  0.00  0.00    -0.093 Br
ENDBRANCH   6  10
ENDBRANCH   5   6
ENDBRANCH   4   5
ENDBRANCH   3   4
ENDBRANCH   1   3
BRANCH   1  12
HETATM   12  O   UNK N   1      34.449  13.431  12.903  0.00  0.00    -0.307 OA
HETATM   13  H   UNK N   1      33.831  13.173  12.202  0.00  0.00     0.222 HD
ENDBRANCH   1  12
BRANCH   1  14
HETATM   14  O   UNK N   1      35.593  14.928  11.873  0.00  0.00    -0.195 OA
BRANCH  14  15
HETATM   15  P   UNK N   1      36.433  14.813  10.315  0.00  0.00     0.399 P 
HETATM   16  O   UNK N   1      36.621  16.311  10.671  0.00  0.00    -0.631 OA
BRANCH  15  17
HETATM   17  O   UNK N   1      38.148  15.043  10.198  0.00  0.00    -0.307 OA
HETATM   18  H   UNK N   1      38.663  14.543   9.545  0.00  0.00     0.222 HD
ENDBRANCH  15  17
BRANCH  15  19
HETATM   19  O   UNK N   1      37.264  13.842  11.489  0.00  0.00    -0.307 OA
HETATM   20  H   UNK N   1      36.961  13.790  12.410  0.00  0.00     0.222 HD
ENDBRANCH  15  19
ENDBRANCH  14  15
ENDBRANCH   1  14
TORSDOF 11
ENDMDL
MODEL 7
REMARK VINA RESULT:      -4.6      4.606      6.612
REMARK  11 active torsions:
REMARK  status: ('A' for Active; 'I' for Inactive)
REMARK    1  A    between atoms: C_2  and  O_3 
REMARK    2  A    between atoms: C_2  and  C_4 
REMARK    3  A    between atoms: C_2  and  C_6 
REMARK    4  A    between atoms: C_6  and  C_7 
REMARK    5  A    between atoms: C_7  and  O_8 
REMARK    6  A    between atoms: P_9  and  O_8 
REMARK    7  A    between atoms: P_9  and  O_10 
REMARK    8  A    between atoms: P_9  and  O_12 
REMARK    9  A    between atoms: O_12  and  P_13 
REMARK   10  A    between atoms: P_13  and  O_14 
REMARK   11  A    between atoms: P_13  and  O_15 
ROOT
HETATM    1  P   UNK N   1      35.156  15.674  10.937  0.00  0.00     0.401 P 
HETATM    2  O   UNK N   1      36.065  14.919   9.922  0.00  0.00    -0.631 OA
ENDROOT
BRANCH   1   3
HETATM    3  O   UNK N   1      34.212  15.693   9.467  0.00  0.00    -0.297 OA
BRANCH   3   4
HETATM    4  C   UNK N   1      33.921  17.045   9.231  0.00  0.00     0.183 C 
BRANCH   4   5
HETATM    5  C   UNK N   1      33.052  17.223   7.994  0.00  0.00     0.065 C 
BRANCH   5   6
HETATM    6  C   UNK N   1      31.686  16.559   8.157  0.00  0.00     0.065 C 
HETATM    7  C   UNK N   1      31.595  15.349   7.242  0.00  0.00     0.046 C 
BRANCH   6   8
HETATM    8  O   UNK N   1      31.503  16.160   9.484  0.00  0.00    -0.389 OA
HETATM    9  H   UNK N   1      30.807  16.284  10.149  0.00  0.00     0.210 HD
ENDBRANCH   6   8
BRANCH   6  10
HETATM   10  C   UNK N   1      30.613  17.573   7.784  0.00  0.00     0.122 C 
HETATM   11 Br   UNK N   1      29.854  18.463   9.339  0.00  0.00    -0.093 Br
ENDBRANCH   6  10
ENDBRANCH   5   6
ENDBRANCH   4   5
ENDBRANCH   3   4
ENDBRANCH   1   3
BRANCH   1  12
HETATM   12  O   UNK N   1      33.542  15.048  11.128  0.00  0.00    -0.307 OA
HETATM   13  H   UNK N   1      33.065  14.360  11.616  0.00  0.00     0.222 HD
ENDBRANCH   1  12
BRANCH   1  14
HETATM   14  O   UNK N   1      35.345  14.173  11.898  0.00  0.00    -0.195 OA
BRANCH  14  15
HETATM   15  P   UNK N   1      36.198  14.358  13.443  0.00  0.00     0.399 P 
HETATM   16  O   UNK N   1      35.072  13.358  13.817  0.00  0.00    -0.631 OA
BRANCH  15  17
HETATM   17  O   UNK N   1      37.056  13.033  14.162  0.00  0.00    -0.307 OA
HETATM   18  H   UNK N   1      37.307  13.066  15.098  0.00  0.00     0.222 HD
ENDBRANCH  15  17
BRANCH  15  19
HETATM   19  O   UNK N   1      37.257  13.613  12.287  0.00  0.00    -0.307 OA
HETATM   20  H   UNK N   1      37.411  14.007  11.413  0.00  0.00     0.222 HD
ENDBRANCH  15  19
ENDBRANCH  14  15
ENDBRANCH   1  14
TORSDOF 11
ENDMDL
MODEL 8
REMARK VINA RESULT:      -4.6      4.236      5.891
REMARK  11 active torsions:
REMARK  status: ('A' for Active; 'I' for Inactive)
REMARK    1  A    between atoms: C_2  and  O_3 
REMARK    2  A    between atoms: C_2  and  C_4 
REMARK    3  A    between atoms: C_2  and  C_6 
REMARK    4  A    between atoms: C_6  and  C_7 
REMARK    5  A    between atoms: C_7  and  O_8 
REMARK    6  A    between atoms: P_9  and  O_8 
REMARK    7  A    between atoms: P_9  and  O_10 
REMARK    8  A    between atoms: P_9  and  O_12 
REMARK    9  A    between atoms: O_12  and  P_13 
REMARK   10  A    between atoms: P_13  and  O_14 
REMARK   11  A    between atoms: P_13  and  O_15 
ROOT
HETATM    1  P   UNK N   1      37.180  13.927  10.620  0.00  0.00     0.401 P 
HETATM    2  O   UNK N   1      35.853  13.213  10.230  0.00  0.00    -0.631 OA
ENDROOT
BRANCH   1   3
HETATM    3  O   UNK N   1      36.799  14.620   9.062  0.00  0.00    -0.297 OA
BRANCH   3   4
HETATM    4  C   UNK N   1      35.514  14.150   8.752  0.00  0.00     0.183 C 
BRANCH   4   5
HETATM    5  C   UNK N   1      34.636  15.256   8.185  0.00  0.00     0.065 C 
BRANCH   5   6
HETATM    6  C   UNK N   1      33.562  15.696   9.179  0.00  0.00     0.065 C 
HETATM    7  C   UNK N   1      32.440  14.672   9.203  0.00  0.00     0.046 C 
BRANCH   6   8
HETATM    8  O   UNK N   1      34.113  15.821  10.457  0.00  0.00    -0.389 OA
HETATM    9  H   UNK N   1      33.992  16.432  11.200  0.00  0.00     0.210 HD
ENDBRANCH   6   8
BRANCH   6  10
HETATM   10  C   UNK N   1      33.020  17.047   8.730  0.00  0.00     0.122 C 
HETATM   11 Br   UNK N   1      34.420  18.238   8.092  0.00  0.00    -0.093 Br
ENDBRANCH   6  10
ENDBRANCH   5   6
ENDBRANCH   4   5
ENDBRANCH   3   4
ENDBRANCH   1   3
BRANCH   1  12
HETATM   12  O   UNK N   1      37.141  15.668  10.614  0.00  0.00    -0.307 OA
HETATM   13  H   UNK N   1      37.635  16.424  10.966  0.00  0.00     0.222 HD
ENDBRANCH   1  12
BRANCH   1  14
HETATM   14  O   UNK N   1      36.257  14.382  12.088  0.00  0.00    -0.195 OA
BRANCH  14  15
HETATM   15  P   UNK N   1      35.857  13.044  13.182  0.00  0.00     0.399 P 
HETATM   16  O   UNK N   1      36.505  14.067  14.152  0.00  0.00    -0.631 OA
BRANCH  15  17
HETATM   17  O   UNK N   1      34.666  13.228  14.431  0.00  0.00    -0.307 OA
HETATM   18  H   UNK N   1      33.983  13.911  14.355  0.00  0.00     0.222 HD
ENDBRANCH  15  17
BRANCH  15  19
HETATM   19  O   UNK N   1      34.392  13.720  12.540  0.00  0.00    -0.307 OA
HETATM   20  H   UNK N   1      33.575  13.200  12.487  0.00  0.00     0.222 HD
ENDBRANCH  15  19
ENDBRANCH  14  15
ENDBRANCH   1  14
TORSDOF 11
ENDMDL
MODEL 9
REMARK VINA RESULT:      -4.6      4.138      6.298
REMARK  11 active torsions:
REMARK  status: ('A' for Active; 'I' for Inactive)
REMARK    1  A    between atoms: C_2  and  O_3 
REMARK    2  A    between atoms: C_2  and  C_4 
REMARK    3  A    between atoms: C_2  and  C_6 
REMARK    4  A    between atoms: C_6  and  C_7 
REMARK    5  A    between atoms: C_7  and  O_8 
REMARK    6  A    between atoms: P_9  and  O_8 
REMARK    7  A    between atoms: P_9  and  O_10 
REMARK    8  A    between atoms: P_9  and  O_12 
REMARK    9  A    between atoms: O_12  and  P_13 
REMARK   10  A    between atoms: P_13  and  O_14 
REMARK   11  A    between atoms: P_13  and  O_15 
ROOT
HETATM    1  P   UNK N   1      35.712  15.747  11.598  0.00  0.00     0.401 P 
HETATM    2  O   UNK N   1      36.779  15.884  10.472  0.00  0.00    -0.631 OA
ENDROOT
BRANCH   1   3
HETATM    3  O   UNK N   1      35.160  17.136  10.694  0.00  0.00    -0.297 OA
BRANCH   3   4
HETATM    4  C   UNK N   1      34.654  16.618   9.492  0.00  0.00     0.183 C 
BRANCH   4   5
HETATM    5  C   UNK N   1      34.295  17.727   8.513  0.00  0.00     0.065 C 
BRANCH   5   6
HETATM    6  C   UNK N   1      33.717  17.172   7.211  0.00  0.00     0.065 C 
HETATM    7  C   UNK N   1      32.208  17.346   7.209  0.00  0.00     0.046 C 
BRANCH   6   8
HETATM    8  O   UNK N   1      34.270  17.845   6.117  0.00  0.00    -0.389 OA
HETATM    9  H   UNK N   1      33.921  18.219   5.293  0.00  0.00     0.210 HD
ENDBRANCH   6   8
BRANCH   6  10
HETATM   10  C   UNK N   1      34.069  15.694   7.123  0.00  0.00     0.122 C 
HETATM   11 Br   UNK N   1      32.494  14.554   7.057  0.00  0.00    -0.093 Br
ENDBRANCH   6  10
ENDBRANCH   5   6
ENDBRANCH   4   5
ENDBRANCH   3   4
ENDBRANCH   1   3
BRANCH   1  12
HETATM   12  O   UNK N   1      34.057  15.631  11.071  0.00  0.00    -0.307 OA
HETATM   13  H   UNK N   1      33.236  15.168  11.298  0.00  0.00     0.222 HD
ENDBRANCH   1  12
BRANCH   1  14
HETATM   14  O   UNK N   1      35.543  14.086  10.944  0.00  0.00    -0.195 OA
BRANCH  14  15
HETATM   15  P   UNK N   1      35.597  12.784  12.148  0.00  0.00     0.399 P 
HETATM   16  O   UNK N   1      35.269  14.019  13.027  0.00  0.00    -0.631 OA
BRANCH  15  17
HETATM   17  O   UNK N   1      34.174  12.297  13.013  0.00  0.00    -0.307 OA
HETATM   18  H   UNK N   1      34.226  11.593  13.678  0.00  0.00     0.222 HD
ENDBRANCH  15  17
BRANCH  15  19
HETATM   19  O   UNK N   1      34.280  12.501  11.053  0.00  0.00    -0.307 OA
HETATM   20  H   UNK N   1      33.357  12.577  11.341  0.00  0.00     0.222 HD
ENDBRANCH  15  19
ENDBRANCH  14  15
ENDBRANCH   1  14
TORSDOF 11
ENDMDL
