MODEL 1
REMARK VINA RESULT:      -7.0      0.000      0.000
REMARK  6 active torsions:
REMARK  status: ('A' for Active; 'I' for Inactive)
REMARK    1  A    between atoms: C_2  and  N_1 
REMARK    2  A    between atoms: C_2  and  C_3 
REMARK    3  A    between atoms: C_2  and  C_19 
REMARK       I    between atoms: C_3  and  N_5 
REMARK    4  A    between atoms: C_6  and  N_5 
REMARK    5  A    between atoms: C_12  and  C_16 
REMARK    6  A    between atoms: C_16  and  O_17 
ROOT
HETATM    1  C   UNK N   1      21.517  15.082   6.636  0.00  0.00     0.200 A 
HETATM    2  C   UNK N   1      20.884  14.084   7.761  0.00  0.00     0.125 A 
HETATM    3  C   UNK N   1      20.275  14.671   9.024  0.00  0.00     0.034 C 
HETATM    4  C   UNK N   1      20.361  13.593  10.123  0.00  0.00     0.056 C 
HETATM    5  C   UNK N   1      21.757  12.999  10.292  0.00  0.00     0.045 C 
HETATM    6 Cl   UNK N   1      22.109  12.265  11.856  0.00  0.00    -0.086 Cl
HETATM    7  C   UNK N   1      22.670  13.091   9.278  0.00  0.00     0.129 C 
HETATM    8  N   UNK N   1      22.217  13.733   8.090  0.00  0.00    -0.302 N 
HETATM    9  C   UNK N   1      22.768  14.470   7.173  0.00  0.00     0.250 A 
HETATM   10  O   UNK N   1      23.946  14.747   7.030  0.00  0.00    -0.271 OA
ENDROOT
BRANCH   1  11
HETATM   11  N   UNK N   1      21.463  16.457   7.084  0.00  0.00    -0.344 N 
HETATM   12  C   UNK N   1      21.439  17.553   6.276  0.00  0.00     0.245 C 
HETATM   13  O   UNK N   1      21.304  18.649   6.795  0.00  0.00    -0.271 OA
HETATM   14  H   UNK N   1      21.441  16.614   8.055  0.00  0.00     0.163 HD
BRANCH  12  15
HETATM   15  C   UNK N   1      21.542  17.493   4.759  0.00  0.00     0.201 C 
BRANCH  15  16
HETATM   16  N   UNK N   1      20.267  17.581   4.069  0.00  0.00    -0.415 N 
HETATM   17  H   UNK N   1      19.689  17.390   3.251  0.00  0.00     0.151 HD
HETATM   18  H   UNK N   1      19.651  18.074   4.717  0.00  0.00     0.151 HD
ENDBRANCH  15  16
BRANCH  15  19
HETATM   19  C   UNK N   1      22.490  18.522   4.225  0.00  0.00    -0.027 A 
HETATM   20  C   UNK N   1      23.848  18.448   4.548  0.00  0.00     0.010 A 
HETATM   21  C   UNK N   1      24.746  19.385   4.024  0.00  0.00     0.001 A 
HETATM   22  C   UNK N   1      24.285  20.402   3.181  0.00  0.00     0.000 A 
HETATM   23  C   UNK N   1      22.928  20.482   2.860  0.00  0.00     0.001 A 
HETATM   24  C   UNK N   1      22.033  19.541   3.375  0.00  0.00     0.010 A 
ENDBRANCH  15  19
ENDBRANCH  12  15
ENDBRANCH   1  11
BRANCH   7  25
HETATM   25  C   UNK N   1      24.083  12.609   9.392  0.00  0.00     0.195 C 
HETATM   26  O   UNK N   1      24.468  11.630   8.772  0.00  0.00    -0.645 OA
BRANCH  25  27
HETATM   27  O   UNK N   1      24.960  13.266  10.172  0.00  0.00    -0.772 OA
HETATM   28  H   UNK N   1      24.775  13.405  11.079  0.00  0.00     0.167 HD
ENDBRANCH  25  27
ENDBRANCH   7  25
TORSDOF 6
ENDMDL
MODEL 2
REMARK VINA RESULT:      -6.9     12.330     15.379
REMARK  6 active torsions:
REMARK  status: ('A' for Active; 'I' for Inactive)
REMARK    1  A    between atoms: C_2  and  N_1 
REMARK    2  A    between atoms: C_2  and  C_3 
REMARK    3  A    between atoms: C_2  and  C_19 
REMARK       I    between atoms: C_3  and  N_5 
REMARK    4  A    between atoms: C_6  and  N_5 
REMARK    5  A    between atoms: C_12  and  C_16 
REMARK    6  A    between atoms: C_16  and  O_17 
ROOT
HETATM    1  C   UNK N   1      34.950  14.727  11.035  0.00  0.00     0.200 A 
HETATM    2  C   UNK N   1      34.229  14.519   9.586  0.00  0.00     0.125 A 
HETATM    3  C   UNK N   1      35.020  13.916   8.438  0.00  0.00     0.034 C 
HETATM    4  C   UNK N   1      34.381  14.413   7.125  0.00  0.00     0.056 C 
HETATM    5  C   UNK N   1      34.202  15.928   7.066  0.00  0.00     0.045 C 
HETATM    6 Cl   UNK N   1      34.085  16.638   5.455  0.00  0.00    -0.086 Cl
HETATM    7  C   UNK N   1      34.184  16.664   8.218  0.00  0.00     0.129 C 
HETATM    8  N   UNK N   1      34.309  15.925   9.430  0.00  0.00    -0.302 N 
HETATM    9  C   UNK N   1      34.835  16.149  10.596  0.00  0.00     0.250 A 
HETATM   10  O   UNK N   1      35.315  17.184  11.025  0.00  0.00    -0.271 OA
ENDROOT
BRANCH   1  11
HETATM   11  N   UNK N   1      36.345  14.350  10.971  0.00  0.00    -0.344 N 
HETATM   12  C   UNK N   1      36.878  13.198  11.464  0.00  0.00     0.245 C 
HETATM   13  O   UNK N   1      38.060  12.975  11.259  0.00  0.00    -0.271 OA
HETATM   14  H   UNK N   1      36.962  14.980  10.534  0.00  0.00     0.163 HD
BRANCH  12  15
HETATM   15  C   UNK N   1      36.081  12.155  12.234  0.00  0.00     0.201 C 
BRANCH  15  16
HETATM   16  N   UNK N   1      36.649  10.818  12.192  0.00  0.00    -0.415 N 
HETATM   17  H   UNK N   1      37.459  10.200  12.228  0.00  0.00     0.151 HD
HETATM   18  H   UNK N   1      35.850  10.197  12.063  0.00  0.00     0.151 HD
ENDBRANCH  15  16
BRANCH  15  19
HETATM   19  C   UNK N   1      35.846  12.570  13.653  0.00  0.00    -0.027 A 
HETATM   20  C   UNK N   1      34.723  12.094  14.338  0.00  0.00     0.010 A 
HETATM   21  C   UNK N   1      34.514  12.448  15.675  0.00  0.00     0.001 A 
HETATM   22  C   UNK N   1      35.425  13.284  16.329  0.00  0.00     0.000 A 
HETATM   23  C   UNK N   1      36.546  13.765  15.647  0.00  0.00     0.001 A 
HETATM   24  C   UNK N   1      36.760  13.404  14.315  0.00  0.00     0.010 A 
ENDBRANCH  15  19
ENDBRANCH  12  15
ENDBRANCH   1  11
BRANCH   7  25
HETATM   25  C   UNK N   1      34.096  18.158   8.244  0.00  0.00     0.195 C 
HETATM   26  O   UNK N   1      33.023  18.729   8.136  0.00  0.00    -0.645 OA
BRANCH  25  27
HETATM   27  O   UNK N   1      35.208  18.898   8.406  0.00  0.00    -0.772 OA
HETATM   28  H   UNK N   1      35.357  19.652   7.870  0.00  0.00     0.167 HD
ENDBRANCH  25  27
ENDBRANCH   7  25
TORSDOF 6
ENDMDL
MODEL 3
REMARK VINA RESULT:      -6.8     14.313     16.967
REMARK  6 active torsions:
REMARK  status: ('A' for Active; 'I' for Inactive)
REMARK    1  A    between atoms: C_2  and  N_1 
REMARK    2  A    between atoms: C_2  and  C_3 
REMARK    3  A    between atoms: C_2  and  C_19 
REMARK       I    between atoms: C_3  and  N_5 
REMARK    4  A    between atoms: C_6  and  N_5 
REMARK    5  A    between atoms: C_12  and  C_16 
REMARK    6  A    between atoms: C_16  and  O_17 
ROOT
HETATM    1  C   UNK N   1      35.187  12.068  13.117  0.00  0.00     0.200 A 
HETATM    2  C   UNK N   1      35.195  11.857  11.499  0.00  0.00     0.125 A 
HETATM    3  C   UNK N   1      36.364  11.140  10.845  0.00  0.00     0.034 C 
HETATM    4  C   UNK N   1      36.448  11.631   9.385  0.00  0.00     0.056 C 
HETATM    5  C   UNK N   1      36.459  13.151   9.249  0.00  0.00     0.045 C 
HETATM    6 Cl   UNK N   1      37.161  13.797   7.765  0.00  0.00    -0.086 Cl
HETATM    7  C   UNK N   1      35.983  13.936  10.262  0.00  0.00     0.129 C 
HETATM    8  N   UNK N   1      35.469  13.243  11.396  0.00  0.00    -0.302 N 
HETATM    9  C   UNK N   1      35.419  13.474  12.673  0.00  0.00     0.250 A 
HETATM   10  O   UNK N   1      35.744  14.483  13.274  0.00  0.00    -0.271 OA
ENDROOT
BRANCH   1  11
HETATM   11  N   UNK N   1      36.414  11.574  13.703  0.00  0.00    -0.344 N 
HETATM   12  C   UNK N   1      36.511  10.881  14.871  0.00  0.00     0.245 C 
HETATM   13  O   UNK N   1      37.606  10.452  15.198  0.00  0.00    -0.271 OA
HETATM   14  H   UNK N   1      37.250  11.754  13.216  0.00  0.00     0.163 HD
BRANCH  12  15
HETATM   15  C   UNK N   1      35.330  10.585  15.784  0.00  0.00     0.201 C 
BRANCH  15  16
HETATM   16  N   UNK N   1      35.226   9.195  16.195  0.00  0.00    -0.415 N 
HETATM   17  H   UNK N   1      35.278   8.481  16.920  0.00  0.00     0.151 HD
HETATM   18  H   UNK N   1      34.986   8.687  15.343  0.00  0.00     0.151 HD
ENDBRANCH  15  16
BRANCH  15  19
HETATM   19  C   UNK N   1      35.317  11.479  16.986  0.00  0.00    -0.027 A 
HETATM   20  C   UNK N   1      35.174  12.860  16.821  0.00  0.00     0.010 A 
HETATM   21  C   UNK N   1      35.125  13.699  17.939  0.00  0.00     0.001 A 
HETATM   22  C   UNK N   1      35.225  13.158  19.225  0.00  0.00     0.000 A 
HETATM   23  C   UNK N   1      35.372  11.779  19.394  0.00  0.00     0.001 A 
HETATM   24  C   UNK N   1      35.411  10.940  18.278  0.00  0.00     0.010 A 
ENDBRANCH  15  19
ENDBRANCH  12  15
ENDBRANCH   1  11
BRANCH   7  25
HETATM   25  C   UNK N   1      36.034  15.432  10.244  0.00  0.00     0.195 C 
HETATM   26  O   UNK N   1      35.191  16.085   9.650  0.00  0.00    -0.645 OA
BRANCH  25  27
HETATM   27  O   UNK N   1      37.009  16.084  10.903  0.00  0.00    -0.772 OA
HETATM   28  H   UNK N   1      37.460  16.798  10.497  0.00  0.00     0.167 HD
ENDBRANCH  25  27
ENDBRANCH   7  25
TORSDOF 6
ENDMDL
MODEL 4
REMARK VINA RESULT:      -6.8      9.210     11.427
REMARK  6 active torsions:
REMARK  status: ('A' for Active; 'I' for Inactive)
REMARK    1  A    between atoms: C_2  and  N_1 
REMARK    2  A    between atoms: C_2  and  C_3 
REMARK    3  A    between atoms: C_2  and  C_19 
REMARK       I    between atoms: C_3  and  N_5 
REMARK    4  A    between atoms: C_6  and  N_5 
REMARK    5  A    between atoms: C_12  and  C_16 
REMARK    6  A    between atoms: C_16  and  O_17 
ROOT
HETATM    1  C   UNK N   1      31.953  17.335   8.612  0.00  0.00     0.200 A 
HETATM    2  C   UNK N   1      31.124  16.778   7.321  0.00  0.00     0.125 A 
HETATM    3  C   UNK N   1      31.566  17.175   5.922  0.00  0.00     0.034 C 
HETATM    4  C   UNK N   1      30.329  17.085   5.005  0.00  0.00     0.056 C 
HETATM    5  C   UNK N   1      29.113  17.837   5.539  0.00  0.00     0.045 C 
HETATM    6 Cl   UNK N   1      27.907  18.320   4.346  0.00  0.00    -0.086 Cl
HETATM    7  C   UNK N   1      29.022  18.139   6.870  0.00  0.00     0.129 C 
HETATM    8  N   UNK N   1      30.098  17.684   7.686  0.00  0.00    -0.302 N 
HETATM    9  C   UNK N   1      30.692  18.122   8.755  0.00  0.00     0.250 A 
HETATM   10  O   UNK N   1      30.390  19.072   9.455  0.00  0.00    -0.271 OA
ENDROOT
BRANCH   1  11
HETATM   11  N   UNK N   1      33.001  18.241   8.195  0.00  0.00    -0.344 N 
HETATM   12  C   UNK N   1      34.337  18.038   8.365  0.00  0.00     0.245 C 
HETATM   13  O   UNK N   1      35.109  18.851   7.882  0.00  0.00    -0.271 OA
HETATM   14  H   UNK N   1      32.726  19.075   7.751  0.00  0.00     0.163 HD
BRANCH  12  15
HETATM   15  C   UNK N   1      34.929  16.843   9.097  0.00  0.00     0.201 C 
BRANCH  15  16
HETATM   16  N   UNK N   1      34.651  16.819  10.523  0.00  0.00    -0.415 N 
HETATM   17  H   UNK N   1      34.627  17.289  11.428  0.00  0.00     0.151 HD
HETATM   18  H   UNK N   1      34.319  15.872  10.710  0.00  0.00     0.151 HD
ENDBRANCH  15  16
BRANCH  15  19
HETATM   19  C   UNK N   1      34.519  15.547   8.470  0.00  0.00    -0.027 A 
HETATM   20  C   UNK N   1      33.921  14.556   9.255  0.00  0.00     0.010 A 
HETATM   21  C   UNK N   1      33.502  13.356   8.670  0.00  0.00     0.001 A 
HETATM   22  C   UNK N   1      33.687  13.141   7.300  0.00  0.00     0.000 A 
HETATM   23  C   UNK N   1      34.288  14.128   6.514  0.00  0.00     0.001 A 
HETATM   24  C   UNK N   1      34.697  15.330   7.096  0.00  0.00     0.010 A 
ENDBRANCH  15  19
ENDBRANCH  12  15
ENDBRANCH   1  11
BRANCH   7  25
HETATM   25  C   UNK N   1      27.906  18.943   7.461  0.00  0.00     0.195 C 
HETATM   26  O   UNK N   1      27.407  19.874   6.849  0.00  0.00    -0.645 OA
BRANCH  25  27
HETATM   27  O   UNK N   1      27.421  18.636   8.678  0.00  0.00    -0.772 OA
HETATM   28  H   UNK N   1      27.906  18.078   9.253  0.00  0.00     0.167 HD
ENDBRANCH  25  27
ENDBRANCH   7  25
TORSDOF 6
ENDMDL
MODEL 5
REMARK VINA RESULT:      -6.8     15.090     16.165
REMARK  6 active torsions:
REMARK  status: ('A' for Active; 'I' for Inactive)
REMARK    1  A    between atoms: C_2  and  N_1 
REMARK    2  A    between atoms: C_2  and  C_3 
REMARK    3  A    between atoms: C_2  and  C_19 
REMARK       I    between atoms: C_3  and  N_5 
REMARK    4  A    between atoms: C_6  and  N_5 
REMARK    5  A    between atoms: C_12  and  C_16 
REMARK    6  A    between atoms: C_16  and  O_17 
ROOT
HETATM    1  C   UNK N   1      29.313  24.797  -4.154  0.00  0.00     0.200 A 
HETATM    2  C   UNK N   1      29.805  23.804  -5.351  0.00  0.00     0.125 A 
HETATM    3  C   UNK N   1      28.903  22.664  -5.795  0.00  0.00     0.034 C 
HETATM    4  C   UNK N   1      29.805  21.572  -6.405  0.00  0.00     0.056 C 
HETATM    5  C   UNK N   1      30.969  21.165  -5.505  0.00  0.00     0.045 C 
HETATM    6 Cl   UNK N   1      31.656  19.566  -5.791  0.00  0.00    -0.086 Cl
HETATM    7  C   UNK N   1      31.396  22.004  -4.513  0.00  0.00     0.129 C 
HETATM    8  N   UNK N   1      30.713  23.250  -4.415  0.00  0.00    -0.302 N 
HETATM    9  C   UNK N   1      30.396  24.053  -3.445  0.00  0.00     0.250 A 
HETATM   10  O   UNK N   1      30.716  23.988  -2.271  0.00  0.00    -0.271 OA
ENDROOT
BRANCH   1  11
HETATM   11  N   UNK N   1      28.042  24.360  -3.616  0.00  0.00    -0.344 N 
HETATM   12  C   UNK N   1      26.820  24.630  -4.152  0.00  0.00     0.245 C 
HETATM   13  O   UNK N   1      25.839  24.120  -3.636  0.00  0.00    -0.271 OA
HETATM   14  H   UNK N   1      28.063  23.821  -2.793  0.00  0.00     0.163 HD
BRANCH  12  15
HETATM   15  C   UNK N   1      26.604  25.509  -5.376  0.00  0.00     0.201 C 
BRANCH  15  16
HETATM   16  N   UNK N   1      25.374  25.236  -6.098  0.00  0.00    -0.415 N 
HETATM   17  H   UNK N   1      24.487  25.554  -6.486  0.00  0.00     0.151 HD
HETATM   18  H   UNK N   1      25.420  24.242  -6.329  0.00  0.00     0.151 HD
ENDBRANCH  15  16
BRANCH  15  19
HETATM   19  C   UNK N   1      26.690  26.965  -5.037  0.00  0.00    -0.027 A 
HETATM   20  C   UNK N   1      27.412  27.829  -5.866  0.00  0.00     0.010 A 
HETATM   21  C   UNK N   1      27.468  29.196  -5.577  0.00  0.00     0.001 A 
HETATM   22  C   UNK N   1      26.807  29.702  -4.453  0.00  0.00     0.000 A 
HETATM   23  C   UNK N   1      26.088  28.842  -3.619  0.00  0.00     0.001 A 
HETATM   24  C   UNK N   1      26.024  27.478  -3.914  0.00  0.00     0.010 A 
ENDBRANCH  15  19
ENDBRANCH  12  15
ENDBRANCH   1  11
BRANCH   7  25
HETATM   25  C   UNK N   1      32.474  21.648  -3.536  0.00  0.00     0.195 C 
HETATM   26  O   UNK N   1      33.643  21.582  -3.882  0.00  0.00    -0.645 OA
BRANCH  25  27
HETATM   27  O   UNK N   1      32.167  21.411  -2.248  0.00  0.00    -0.772 OA
HETATM   28  H   UNK N   1      32.320  20.566  -1.872  0.00  0.00     0.167 HD
ENDBRANCH  25  27
ENDBRANCH   7  25
TORSDOF 6
ENDMDL
MODEL 6
REMARK VINA RESULT:      -6.6     14.768     16.753
REMARK  6 active torsions:
REMARK  status: ('A' for Active; 'I' for Inactive)
REMARK    1  A    between atoms: C_2  and  N_1 
REMARK    2  A    between atoms: C_2  and  C_3 
REMARK    3  A    between atoms: C_2  and  C_19 
REMARK       I    between atoms: C_3  and  N_5 
REMARK    4  A    between atoms: C_6  and  N_5 
REMARK    5  A    between atoms: C_12  and  C_16 
REMARK    6  A    between atoms: C_16  and  O_17 
ROOT
HETATM    1  C   UNK N   1      27.313  25.285  -4.220  0.00  0.00     0.200 A 
HETATM    2  C   UNK N   1      28.890  25.467  -4.601  0.00  0.00     0.125 A 
HETATM    3  C   UNK N   1      29.394  24.980  -5.949  0.00  0.00     0.034 C 
HETATM    4  C   UNK N   1      30.898  24.678  -5.798  0.00  0.00     0.056 C 
HETATM    5  C   UNK N   1      31.226  23.770  -4.615  0.00  0.00     0.045 C 
HETATM    6 Cl   UNK N   1      32.746  22.880  -4.710  0.00  0.00    -0.086 Cl
HETATM    7  C   UNK N   1      30.342  23.646  -3.578  0.00  0.00     0.129 C 
HETATM    8  N   UNK N   1      29.155  24.426  -3.677  0.00  0.00    -0.302 N 
HETATM    9  C   UNK N   1      27.921  24.279  -3.299  0.00  0.00     0.250 A 
HETATM   10  O   UNK N   1      27.439  23.395  -2.613  0.00  0.00    -0.271 OA
ENDROOT
BRANCH   1  11
HETATM   11  N   UNK N   1      26.614  24.570  -5.265  0.00  0.00    -0.344 N 
HETATM   12  C   UNK N   1      25.836  25.137  -6.228  0.00  0.00     0.245 C 
HETATM   13  O   UNK N   1      25.378  24.415  -7.099  0.00  0.00    -0.271 OA
HETATM   14  H   UNK N   1      26.707  23.591  -5.282  0.00  0.00     0.163 HD
BRANCH  12  15
HETATM   15  C   UNK N   1      25.524  26.625  -6.303  0.00  0.00     0.201 C 
BRANCH  15  16
HETATM   16  N   UNK N   1      24.983  27.184  -5.076  0.00  0.00    -0.415 N 
HETATM   17  H   UNK N   1      24.615  27.058  -4.133  0.00  0.00     0.151 HD
HETATM   18  H   UNK N   1      24.959  28.192  -5.234  0.00  0.00     0.151 HD
ENDBRANCH  15  16
BRANCH  15  19
HETATM   19  C   UNK N   1      26.710  27.421  -6.752  0.00  0.00    -0.027 A 
HETATM   20  C   UNK N   1      27.342  27.103  -7.958  0.00  0.00     0.010 A 
HETATM   21  C   UNK N   1      28.428  27.864  -8.403  0.00  0.00     0.001 A 
HETATM   22  C   UNK N   1      28.890  28.940  -7.639  0.00  0.00     0.000 A 
HETATM   23  C   UNK N   1      28.264  29.258  -6.430  0.00  0.00     0.001 A 
HETATM   24  C   UNK N   1      27.173  28.505  -5.991  0.00  0.00     0.010 A 
ENDBRANCH  15  19
ENDBRANCH  12  15
ENDBRANCH   1  11
BRANCH   7  25
HETATM   25  C   UNK N   1      30.548  22.716  -2.423  0.00  0.00     0.195 C 
HETATM   26  O   UNK N   1      30.433  23.105  -1.272  0.00  0.00    -0.645 OA
BRANCH  25  27
HETATM   27  O   UNK N   1      30.849  21.423  -2.641  0.00  0.00    -0.772 OA
HETATM   28  H   UNK N   1      31.367  21.176  -3.382  0.00  0.00     0.167 HD
ENDBRANCH  25  27
ENDBRANCH   7  25
TORSDOF 6
ENDMDL
MODEL 7
REMARK VINA RESULT:      -6.5      9.314     11.574
REMARK  6 active torsions:
REMARK  status: ('A' for Active; 'I' for Inactive)
REMARK    1  A    between atoms: C_2  and  N_1 
REMARK    2  A    between atoms: C_2  and  C_3 
REMARK    3  A    between atoms: C_2  and  C_19 
REMARK       I    between atoms: C_3  and  N_5 
REMARK    4  A    between atoms: C_6  and  N_5 
REMARK    5  A    between atoms: C_12  and  C_16 
REMARK    6  A    between atoms: C_16  and  O_17 
ROOT
HETATM    1  C   UNK N   1      31.338  16.651   7.419  0.00  0.00     0.200 A 
HETATM    2  C   UNK N   1      30.173  16.578   6.278  0.00  0.00     0.125 A 
HETATM    3  C   UNK N   1      30.449  17.137   4.893  0.00  0.00     0.034 C 
HETATM    4  C   UNK N   1      29.091  17.528   4.274  0.00  0.00     0.056 C 
HETATM    5  C   UNK N   1      28.239  18.418   5.176  0.00  0.00     0.045 C 
HETATM    6 Cl   UNK N   1      27.016  19.403   4.372  0.00  0.00    -0.086 Cl
HETATM    7  C   UNK N   1      28.472  18.454   6.523  0.00  0.00     0.129 C 
HETATM    8  N   UNK N   1      29.512  17.605   6.997  0.00  0.00    -0.302 N 
HETATM    9  C   UNK N   1      30.384  17.664   7.959  0.00  0.00     0.250 A 
HETATM   10  O   UNK N   1      30.480  18.495   8.844  0.00  0.00    -0.271 OA
ENDROOT
BRANCH   1  11
HETATM   11  N   UNK N   1      32.501  17.352   6.919  0.00  0.00    -0.344 N 
HETATM   12  C   UNK N   1      33.761  16.842   6.840  0.00  0.00     0.245 C 
HETATM   13  O   UNK N   1      34.627  17.522   6.314  0.00  0.00    -0.271 OA
HETATM   14  H   UNK N   1      32.370  18.277   6.609  0.00  0.00     0.163 HD
BRANCH  12  15
HETATM   15  C   UNK N   1      34.151  15.460   7.345  0.00  0.00     0.201 C 
BRANCH  15  16
HETATM   16  N   UNK N   1      34.901  14.665   6.389  0.00  0.00    -0.415 N 
HETATM   17  H   UNK N   1      35.635  14.588   5.684  0.00  0.00     0.151 HD
HETATM   18  H   UNK N   1      34.498  13.729   6.452  0.00  0.00     0.151 HD
ENDBRANCH  15  16
BRANCH  15  19
HETATM   19  C   UNK N   1      34.888  15.531   8.647  0.00  0.00    -0.027 A 
HETATM   20  C   UNK N   1      35.935  14.640   8.900  0.00  0.00     0.010 A 
HETATM   21  C   UNK N   1      36.653  14.723  10.098  0.00  0.00     0.001 A 
HETATM   22  C   UNK N   1      36.319  15.693  11.049  0.00  0.00     0.000 A 
HETATM   23  C   UNK N   1      35.270  16.583  10.801  0.00  0.00     0.001 A 
HETATM   24  C   UNK N   1      34.561  16.507   9.601  0.00  0.00     0.010 A 
ENDBRANCH  15  19
ENDBRANCH  12  15
ENDBRANCH   1  11
BRANCH   7  25
HETATM   25  C   UNK N   1      27.739  19.360   7.464  0.00  0.00     0.195 C 
HETATM   26  O   UNK N   1      27.411  20.486   7.129  0.00  0.00    -0.645 OA
BRANCH  25  27
HETATM   27  O   UNK N   1      27.414  18.932   8.698  0.00  0.00    -0.772 OA
HETATM   28  H   UNK N   1      26.876  18.173   8.809  0.00  0.00     0.167 HD
ENDBRANCH  25  27
ENDBRANCH   7  25
TORSDOF 6
ENDMDL
MODEL 8
REMARK VINA RESULT:      -6.4      8.366      9.735
REMARK  6 active torsions:
REMARK  status: ('A' for Active; 'I' for Inactive)
REMARK    1  A    between atoms: C_2  and  N_1 
REMARK    2  A    between atoms: C_2  and  C_3 
REMARK    3  A    between atoms: C_2  and  C_19 
REMARK       I    between atoms: C_3  and  N_5 
REMARK    4  A    between atoms: C_6  and  N_5 
REMARK    5  A    between atoms: C_12  and  C_16 
REMARK    6  A    between atoms: C_16  and  O_17 
ROOT
HETATM    1  C   UNK N   1      31.849  17.157   6.356  0.00  0.00     0.200 A 
HETATM    2  C   UNK N   1      33.005  16.007   6.305  0.00  0.00     0.125 A 
HETATM    3  C   UNK N   1      32.613  14.546   6.455  0.00  0.00     0.034 C 
HETATM    4  C   UNK N   1      33.841  13.793   7.004  0.00  0.00     0.056 C 
HETATM    5  C   UNK N   1      34.447  14.434   8.250  0.00  0.00     0.045 C 
HETATM    6 Cl   UNK N   1      35.403  13.374   9.288  0.00  0.00    -0.086 Cl
HETATM    7  C   UNK N   1      34.203  15.749   8.534  0.00  0.00     0.129 C 
HETATM    8  N   UNK N   1      33.394  16.448   7.593  0.00  0.00    -0.302 N 
HETATM    9  C   UNK N   1      32.528  17.414   7.660  0.00  0.00     0.250 A 
HETATM   10  O   UNK N   1      32.228  18.097   8.623  0.00  0.00    -0.271 OA
ENDROOT
BRANCH   1  11
HETATM   11  N   UNK N   1      30.555  16.571   6.631  0.00  0.00    -0.344 N 
HETATM   12  C   UNK N   1      29.405  16.834   5.951  0.00  0.00     0.245 C 
HETATM   13  O   UNK N   1      28.406  16.196   6.241  0.00  0.00    -0.271 OA
HETATM   14  H   UNK N   1      30.502  15.926   7.373  0.00  0.00     0.163 HD
BRANCH  12  15
HETATM   15  C   UNK N   1      29.296  17.858   4.831  0.00  0.00     0.201 C 
BRANCH  15  16
HETATM   16  N   UNK N   1      29.034  17.285   3.522  0.00  0.00    -0.415 N 
HETATM   17  H   UNK N   1      28.396  17.104   2.747  0.00  0.00     0.151 HD
HETATM   18  H   UNK N   1      29.916  16.854   3.242  0.00  0.00     0.151 HD
ENDBRANCH  15  16
BRANCH  15  19
HETATM   19  C   UNK N   1      28.284  18.917   5.142  0.00  0.00    -0.027 A 
HETATM   20  C   UNK N   1      28.158  19.393   6.450  0.00  0.00     0.010 A 
HETATM   21  C   UNK N   1      27.240  20.407   6.743  0.00  0.00     0.001 A 
HETATM   22  C   UNK N   1      26.441  20.943   5.728  0.00  0.00     0.000 A 
HETATM   23  C   UNK N   1      26.560  20.466   4.419  0.00  0.00     0.001 A 
HETATM   24  C   UNK N   1      27.484  19.461   4.126  0.00  0.00     0.010 A 
ENDBRANCH  15  19
ENDBRANCH  12  15
ENDBRANCH   1  11
BRANCH   7  25
HETATM   25  C   UNK N   1      34.690  16.431   9.776  0.00  0.00     0.195 C 
HETATM   26  O   UNK N   1      34.626  15.881  10.863  0.00  0.00    -0.645 OA
BRANCH  25  27
HETATM   27  O   UNK N   1      35.225  17.663   9.704  0.00  0.00    -0.772 OA
HETATM   28  H   UNK N   1      35.365  18.164  10.483  0.00  0.00     0.167 HD
ENDBRANCH  25  27
ENDBRANCH   7  25
TORSDOF 6
ENDMDL
MODEL 9
REMARK VINA RESULT:      -6.3     14.902     17.060
REMARK  6 active torsions:
REMARK  status: ('A' for Active; 'I' for Inactive)
REMARK    1  A    between atoms: C_2  and  N_1 
REMARK    2  A    between atoms: C_2  and  C_3 
REMARK    3  A    between atoms: C_2  and  C_19 
REMARK       I    between atoms: C_3  and  N_5 
REMARK    4  A    between atoms: C_6  and  N_5 
REMARK    5  A    between atoms: C_12  and  C_16 
REMARK    6  A    between atoms: C_16  and  O_17 
ROOT
HETATM    1  C   UNK N   1      28.589  23.927  -4.159  0.00  0.00     0.200 A 
HETATM    2  C   UNK N   1      28.984  25.357  -4.839  0.00  0.00     0.125 A 
HETATM    3  C   UNK N   1      30.006  26.252  -4.158  0.00  0.00     0.034 C 
HETATM    4  C   UNK N   1      29.718  27.701  -4.599  0.00  0.00     0.056 C 
HETATM    5  C   UNK N   1      28.262  28.121  -4.413  0.00  0.00     0.045 C 
HETATM    6 Cl   UNK N   1      27.958  29.853  -4.283  0.00  0.00    -0.086 Cl
HETATM    7  C   UNK N   1      27.281  27.173  -4.313  0.00  0.00     0.129 C 
HETATM    8  N   UNK N   1      27.711  25.819  -4.423  0.00  0.00    -0.302 N 
HETATM    9  C   UNK N   1      27.328  24.687  -3.916  0.00  0.00     0.250 A 
HETATM   10  O   UNK N   1      26.350  24.457  -3.227  0.00  0.00    -0.271 OA
ENDROOT
BRANCH   1  11
HETATM   11  N   UNK N   1      29.265  23.760  -2.890  0.00  0.00    -0.344 N 
HETATM   12  C   UNK N   1      30.202  22.814  -2.610  0.00  0.00     0.245 C 
HETATM   13  O   UNK N   1      30.750  22.850  -1.520  0.00  0.00    -0.271 OA
HETATM   14  H   UNK N   1      29.025  24.384  -2.168  0.00  0.00     0.163 HD
BRANCH  12  15
HETATM   15  C   UNK N   1      30.631  21.728  -3.585  0.00  0.00     0.201 C 
BRANCH  15  16
HETATM   16  N   UNK N   1      29.813  21.643  -4.783  0.00  0.00    -0.415 N 
HETATM   17  H   UNK N   1      29.328  22.096  -5.557  0.00  0.00     0.151 HD
HETATM   18  H   UNK N   1      29.638  20.645  -4.911  0.00  0.00     0.151 HD
ENDBRANCH  15  16
BRANCH  15  19
HETATM   19  C   UNK N   1      32.077  21.852  -3.957  0.00  0.00    -0.027 A 
HETATM   20  C   UNK N   1      33.003  20.932  -3.457  0.00  0.00     0.010 A 
HETATM   21  C   UNK N   1      34.349  21.019  -3.827  0.00  0.00     0.001 A 
HETATM   22  C   UNK N   1      34.773  22.032  -4.694  0.00  0.00     0.000 A 
HETATM   23  C   UNK N   1      33.851  22.956  -5.193  0.00  0.00     0.001 A 
HETATM   24  C   UNK N   1      32.505  22.863  -4.831  0.00  0.00     0.010 A 
ENDBRANCH  15  19
ENDBRANCH  12  15
ENDBRANCH   1  11
BRANCH   7  25
HETATM   25  C   UNK N   1      25.843  27.496  -4.049  0.00  0.00     0.195 C 
HETATM   26  O   UNK N   1      25.463  27.815  -2.933  0.00  0.00    -0.645 OA
BRANCH  25  27
HETATM   27  O   UNK N   1      24.946  27.456  -5.050  0.00  0.00    -0.772 OA
HETATM   28  H   UNK N   1      24.044  27.650  -4.886  0.00  0.00     0.167 HD
ENDBRANCH  25  27
ENDBRANCH   7  25
TORSDOF 6
ENDMDL
