MODEL 1
REMARK VINA RESULT:      -7.4      0.000      0.000
REMARK  14 active torsions:
REMARK  status: ('A' for Active; 'I' for Inactive)
REMARK    1  A    between atoms: C_9  and  C_4 
REMARK    2  A    between atoms: O_22  and  C_4 
REMARK    3  A    between atoms: C_10  and  C_5 
REMARK    4  A    between atoms: O_23  and  C_5 
REMARK    5  A    between atoms: N_20  and  C_6 
REMARK    6  A    between atoms: N_21  and  C_7 
REMARK    7  A    between atoms: O_32  and  C_8 
REMARK    8  A    between atoms: C_12  and  O_24 
REMARK    9  A    between atoms: C_13  and  O_25 
REMARK   10  A    between atoms: C_14  and  O_26 
REMARK   11  A    between atoms: C_15  and  O_27 
REMARK   12  A    between atoms: C_16  and  O_35 
REMARK   13  A    between atoms: C_17  and  O_32 
REMARK   14  A    between atoms: C_18  and  O_35 
ROOT
HETATM    1  C   UNK N   1      20.992  16.041   6.454  0.00  0.00     0.180 C 
HETATM    2  C   UNK N   1      22.948  14.141   5.655  0.00  0.00     0.256 C 
HETATM    3  C   UNK N   1      21.803  14.472   4.683  0.00  0.00     0.188 C 
HETATM    4  C   UNK N   1      21.350  15.932   4.936  0.00  0.00     0.187 C 
HETATM    5  C   UNK N   1      22.451  14.393   7.110  0.00  0.00     0.303 C 
HETATM    6  F   UNK N   1      23.434  12.864   5.457  0.00  0.00    -0.241 F 
HETATM    7  O   UNK N   1      22.114  15.740   7.248  0.00  0.00    -0.348 OA
ENDROOT
BRANCH   4   8
HETATM    8  O   UNK N   1      22.453  16.752   4.620  0.00  0.00    -0.348 OA
BRANCH   8   9
HETATM    9  C   UNK N   1      22.377  17.545   3.449  0.00  0.00     0.292 C 
HETATM   10  C   UNK N   1      20.991  18.127   2.999  0.00  0.00     0.204 C 
HETATM   11  C   UNK N   1      20.875  19.648   3.183  0.00  0.00     0.183 C 
HETATM   12  C   UNK N   1      22.172  20.312   2.707  0.00  0.00     0.180 C 
HETATM   13  C   UNK N   1      23.331  19.734   3.517  0.00  0.00     0.179 C 
HETATM   14  O   UNK N   1      23.525  18.355   3.239  0.00  0.00    -0.348 OA
BRANCH  10  15
HETATM   15  O   UNK N   1      20.842  17.882   1.627  0.00  0.00    -0.388 OA
HETATM   16  H   UNK N   1      20.782  17.102   1.054  0.00  0.00     0.210 HD
ENDBRANCH  10  15
BRANCH  11  17
HETATM   17  O   UNK N   1      20.619  19.982   4.515  0.00  0.00    -0.390 OA
HETATM   18  H   UNK N   1      20.579  20.676   5.191  0.00  0.00     0.210 HD
ENDBRANCH  11  17
BRANCH  12  19
HETATM   19  O   UNK N   1      22.087  21.695   2.896  0.00  0.00    -0.390 OA
HETATM   20  H   UNK N   1      22.141  22.529   2.402  0.00  0.00     0.210 HD
ENDBRANCH  12  19
BRANCH  13  21
HETATM   21  C   UNK N   1      24.624  20.466   3.156  0.00  0.00     0.198 C 
BRANCH  21  22
HETATM   22  O   UNK N   1      24.645  20.828   1.807  0.00  0.00    -0.398 OA
HETATM   23  H   UNK N   1      24.903  20.218   1.099  0.00  0.00     0.209 HD
ENDBRANCH  21  22
ENDBRANCH  13  21
ENDBRANCH   8   9
ENDBRANCH   4   8
BRANCH   1  24
HETATM   24  C   UNK N   1      20.528  17.385   6.933  0.00  0.00     0.198 C 
BRANCH  24  25
HETATM   25  O   UNK N   1      21.535  18.340   6.764  0.00  0.00    -0.398 OA
HETATM   26  H   UNK N   1      21.317  19.285   6.774  0.00  0.00     0.209 HD
ENDBRANCH  24  25
ENDBRANCH   1  24
BRANCH   3  27
HETATM   27  O   UNK N   1      22.235  14.308   3.363  0.00  0.00    -0.390 OA
HETATM   28  H   UNK N   1      23.095  14.663   3.085  0.00  0.00     0.210 HD
ENDBRANCH   3  27
BRANCH   5  29
HETATM   29  O   UNK N   1      21.382  13.576   7.514  0.00  0.00    -0.315 OA
BRANCH  29  30
HETATM   30  C   UNK N   1      21.612  12.815   8.579  0.00  0.00     0.105 C 
HETATM   31  C   UNK N   1      22.612  11.851   8.491  0.00  0.00     0.042 C 
HETATM   32  C   UNK N   1      23.290  11.480   9.636  0.00  0.00     0.039 C 
HETATM   33  C   UNK N   1      22.955  12.064  10.862  0.00  0.00     0.105 C 
HETATM   34  C   UNK N   1      21.800  12.861  10.967  0.00  0.00     0.075 C 
HETATM   35  C   UNK N   1      21.095  13.228   9.820  0.00  0.00     0.138 C 
BRANCH  33  36
HETATM   36  N   UNK N   1      23.885  12.027  11.932  0.00  0.00    -0.116 N 
HETATM   37  O   UNK N   1      23.485  11.859  13.049  0.00  0.00    -0.532 OA
HETATM   38  O   UNK N   1      25.044  11.875  11.703  0.00  0.00    -0.532 OA
ENDBRANCH  33  36
BRANCH  35  39
HETATM   39  N   UNK N   1      19.995  14.144   9.909  0.00  0.00    -0.113 N 
HETATM   40  O   UNK N   1      20.138  15.295   9.610  0.00  0.00    -0.532 OA
HETATM   41  O   UNK N   1      18.905  13.749  10.185  0.00  0.00    -0.532 OA
ENDBRANCH  35  39
ENDBRANCH  29  30
ENDBRANCH   5  29
TORSDOF 14
ENDMDL
MODEL 2
REMARK VINA RESULT:      -7.3      2.920      8.997
REMARK  14 active torsions:
REMARK  status: ('A' for Active; 'I' for Inactive)
REMARK    1  A    between atoms: C_9  and  C_4 
REMARK    2  A    between atoms: O_22  and  C_4 
REMARK    3  A    between atoms: C_10  and  C_5 
REMARK    4  A    between atoms: O_23  and  C_5 
REMARK    5  A    between atoms: N_20  and  C_6 
REMARK    6  A    between atoms: N_21  and  C_7 
REMARK    7  A    between atoms: O_32  and  C_8 
REMARK    8  A    between atoms: C_12  and  O_24 
REMARK    9  A    between atoms: C_13  and  O_25 
REMARK   10  A    between atoms: C_14  and  O_26 
REMARK   11  A    between atoms: C_15  and  O_27 
REMARK   12  A    between atoms: C_16  and  O_35 
REMARK   13  A    between atoms: C_17  and  O_32 
REMARK   14  A    between atoms: C_18  and  O_35 
ROOT
HETATM    1  C   UNK N   1      23.455  14.419   5.182  0.00  0.00     0.180 C 
HETATM    2  C   UNK N   1      21.795  16.274   6.551  0.00  0.00     0.256 C 
HETATM    3  C   UNK N   1      21.217  14.894   6.193  0.00  0.00     0.188 C 
HETATM    4  C   UNK N   1      22.378  13.867   6.170  0.00  0.00     0.187 C 
HETATM    5  C   UNK N   1      22.914  16.624   5.526  0.00  0.00     0.303 C 
HETATM    6  F   UNK N   1      20.807  17.235   6.633  0.00  0.00    -0.241 F 
HETATM    7  O   UNK N   1      23.929  15.671   5.617  0.00  0.00    -0.348 OA
ENDROOT
BRANCH   4   8
HETATM    8  O   UNK N   1      22.885  13.809   7.485  0.00  0.00    -0.348 OA
BRANCH   8   9
HETATM    9  C   UNK N   1      22.772  12.584   8.187  0.00  0.00     0.292 C 
HETATM   10  C   UNK N   1      24.070  11.845   8.666  0.00  0.00     0.204 C 
HETATM   11  C   UNK N   1      24.272  11.883  10.189  0.00  0.00     0.183 C 
HETATM   12  C   UNK N   1      22.934  11.598  10.880  0.00  0.00     0.180 C 
HETATM   13  C   UNK N   1      21.924  12.648  10.420  0.00  0.00     0.179 C 
HETATM   14  O   UNK N   1      21.634  12.521   9.034  0.00  0.00    -0.348 OA
BRANCH  10  15
HETATM   15  O   UNK N   1      23.956  10.493   8.315  0.00  0.00    -0.388 OA
HETATM   16  H   UNK N   1      23.981   9.642   8.779  0.00  0.00     0.210 HD
ENDBRANCH  10  15
BRANCH  11  17
HETATM   17  O   UNK N   1      24.781  13.115  10.605  0.00  0.00    -0.390 OA
HETATM   18  H   UNK N   1      24.853  13.772  11.315  0.00  0.00     0.210 HD
ENDBRANCH  11  17
BRANCH  12  19
HETATM   19  O   UNK N   1      23.100  11.657  12.267  0.00  0.00    -0.390 OA
HETATM   20  H   UNK N   1      22.858  11.180  13.077  0.00  0.00     0.210 HD
ENDBRANCH  12  19
BRANCH  13  21
HETATM   21  C   UNK N   1      20.613  12.470  11.186  0.00  0.00     0.198 C 
BRANCH  21  22
HETATM   22  O   UNK N   1      19.549  13.093  10.529  0.00  0.00    -0.398 OA
HETATM   23  H   UNK N   1      18.751  13.401  10.986  0.00  0.00     0.209 HD
ENDBRANCH  21  22
ENDBRANCH  13  21
ENDBRANCH   8   9
ENDBRANCH   4   8
BRANCH   1  24
HETATM   24  C   UNK N   1      24.687  13.580   5.004  0.00  0.00     0.198 C 
BRANCH  24  25
HETATM   25  O   UNK N   1      25.566  13.768   6.074  0.00  0.00    -0.398 OA
HETATM   26  H   UNK N   1      25.546  14.595   6.582  0.00  0.00     0.209 HD
ENDBRANCH  24  25
ENDBRANCH   1  24
BRANCH   3  27
HETATM   27  O   UNK N   1      20.246  14.524   7.129  0.00  0.00    -0.390 OA
HETATM   28  H   UNK N   1      19.342  14.325   6.839  0.00  0.00     0.210 HD
ENDBRANCH   3  27
BRANCH   5  29
HETATM   29  O   UNK N   1      22.474  16.747   4.197  0.00  0.00    -0.315 OA
BRANCH  29  30
HETATM   30  C   UNK N   1      21.847  17.882   3.903  0.00  0.00     0.105 C 
HETATM   31  C   UNK N   1      22.607  19.045   3.813  0.00  0.00     0.042 C 
HETATM   32  C   UNK N   1      22.189  20.056   2.971  0.00  0.00     0.039 C 
HETATM   33  C   UNK N   1      21.009  19.905   2.235  0.00  0.00     0.105 C 
HETATM   34  C   UNK N   1      20.145  18.829   2.508  0.00  0.00     0.075 C 
HETATM   35  C   UNK N   1      20.547  17.808   3.372  0.00  0.00     0.138 C 
BRANCH  33  36
HETATM   36  N   UNK N   1      20.794  20.706   1.084  0.00  0.00    -0.116 N 
HETATM   37  O   UNK N   1      20.837  21.899   1.185  0.00  0.00    -0.532 OA
HETATM   38  O   UNK N   1      20.861  20.214   0.001  0.00  0.00    -0.532 OA
ENDBRANCH  33  36
BRANCH  35  39
HETATM   39  N   UNK N   1      19.725  16.648   3.552  0.00  0.00    -0.113 N 
HETATM   40  O   UNK N   1      18.862  16.638   4.383  0.00  0.00    -0.532 OA
HETATM   41  O   UNK N   1      19.825  15.720   2.811  0.00  0.00    -0.532 OA
ENDBRANCH  35  39
ENDBRANCH  29  30
ENDBRANCH   5  29
TORSDOF 14
ENDMDL
MODEL 3
REMARK VINA RESULT:      -7.2      9.548     12.933
REMARK  14 active torsions:
REMARK  status: ('A' for Active; 'I' for Inactive)
REMARK    1  A    between atoms: C_9  and  C_4 
REMARK    2  A    between atoms: O_22  and  C_4 
REMARK    3  A    between atoms: C_10  and  C_5 
REMARK    4  A    between atoms: O_23  and  C_5 
REMARK    5  A    between atoms: N_20  and  C_6 
REMARK    6  A    between atoms: N_21  and  C_7 
REMARK    7  A    between atoms: O_32  and  C_8 
REMARK    8  A    between atoms: C_12  and  O_24 
REMARK    9  A    between atoms: C_13  and  O_25 
REMARK   10  A    between atoms: C_14  and  O_26 
REMARK   11  A    between atoms: C_15  and  O_27 
REMARK   12  A    between atoms: C_16  and  O_35 
REMARK   13  A    between atoms: C_17  and  O_32 
REMARK   14  A    between atoms: C_18  and  O_35 
ROOT
HETATM    1  C   UNK N   1      32.702  16.190   6.760  0.00  0.00     0.180 C 
HETATM    2  C   UNK N   1      31.120  16.793   9.042  0.00  0.00     0.256 C 
HETATM    3  C   UNK N   1      31.773  15.404   8.945  0.00  0.00     0.188 C 
HETATM    4  C   UNK N   1      33.083  15.533   8.127  0.00  0.00     0.187 C 
HETATM    5  C   UNK N   1      30.898  17.338   7.600  0.00  0.00     0.303 C 
HETATM    6  F   UNK N   1      29.965  16.763   9.799  0.00  0.00    -0.241 F 
HETATM    7  O   UNK N   1      32.135  17.462   6.966  0.00  0.00    -0.348 OA
ENDROOT
BRANCH   4   8
HETATM    8  O   UNK N   1      33.935  16.376   8.870  0.00  0.00    -0.348 OA
BRANCH   8   9
HETATM    9  C   UNK N   1      35.164  15.840   9.326  0.00  0.00     0.292 C 
HETATM   10  C   UNK N   1      35.525  15.922  10.851  0.00  0.00     0.204 C 
HETATM   11  C   UNK N   1      35.480  14.563  11.566  0.00  0.00     0.183 C 
HETATM   12  C   UNK N   1      36.149  13.506  10.680  0.00  0.00     0.180 C 
HETATM   13  C   UNK N   1      35.409  13.463   9.344  0.00  0.00     0.179 C 
HETATM   14  O   UNK N   1      35.570  14.676   8.620  0.00  0.00    -0.348 OA
BRANCH  10  15
HETATM   15  O   UNK N   1      36.843  16.383  10.962  0.00  0.00    -0.388 OA
HETATM   16  H   UNK N   1      37.730  15.990  10.947  0.00  0.00     0.210 HD
ENDBRANCH  10  15
BRANCH  11  17
HETATM   17  O   UNK N   1      34.167  14.186  11.863  0.00  0.00    -0.390 OA
HETATM   18  H   UNK N   1      33.401  14.286  12.448  0.00  0.00     0.210 HD
ENDBRANCH  11  17
BRANCH  12  19
HETATM   19  O   UNK N   1      36.089  12.259  11.310  0.00  0.00    -0.390 OA
HETATM   20  H   UNK N   1      35.448  11.592  11.604  0.00  0.00     0.210 HD
ENDBRANCH  12  19
BRANCH  13  21
HETATM   21  C   UNK N   1      35.971  12.332   8.482  0.00  0.00     0.198 C 
BRANCH  21  22
HETATM   22  O   UNK N   1      35.297  11.130   8.716  0.00  0.00    -0.398 OA
HETATM   23  H   UNK N   1      35.412  10.608   9.525  0.00  0.00     0.209 HD
ENDBRANCH  21  22
ENDBRANCH  13  21
ENDBRANCH   8   9
ENDBRANCH   4   8
BRANCH   1  24
HETATM   24  C   UNK N   1      33.829  16.421   5.796  0.00  0.00     0.198 C 
BRANCH  24  25
HETATM   25  O   UNK N   1      34.565  17.551   6.164  0.00  0.00    -0.398 OA
HETATM   26  H   UNK N   1      34.474  17.924   7.055  0.00  0.00     0.209 HD
ENDBRANCH  24  25
ENDBRANCH   1  24
BRANCH   3  27
HETATM   27  O   UNK N   1      32.036  14.910  10.227  0.00  0.00    -0.390 OA
HETATM   28  H   UNK N   1      32.207  15.523  10.960  0.00  0.00     0.210 HD
ENDBRANCH   3  27
BRANCH   5  29
HETATM   29  O   UNK N   1      30.019  16.575   6.814  0.00  0.00    -0.315 OA
BRANCH  29  30
HETATM   30  C   UNK N   1      28.955  17.223   6.349  0.00  0.00     0.105 C 
HETATM   31  C   UNK N   1      28.184  17.947   7.253  0.00  0.00     0.042 C 
HETATM   32  C   UNK N   1      27.497  19.060   6.810  0.00  0.00     0.039 C 
HETATM   33  C   UNK N   1      27.574  19.434   5.464  0.00  0.00     0.105 C 
HETATM   34  C   UNK N   1      28.169  18.568   4.529  0.00  0.00     0.075 C 
HETATM   35  C   UNK N   1      28.851  17.429   4.962  0.00  0.00     0.138 C 
BRANCH  33  36
HETATM   36  N   UNK N   1      27.249  20.762   5.086  0.00  0.00    -0.116 N 
HETATM   37  O   UNK N   1      26.708  20.955   4.035  0.00  0.00    -0.532 OA
HETATM   38  O   UNK N   1      27.244  21.625   5.907  0.00  0.00    -0.532 OA
ENDBRANCH  33  36
BRANCH  35  39
HETATM   39  N   UNK N   1      29.568  16.615   4.025  0.00  0.00    -0.113 N 
HETATM   40  O   UNK N   1      30.692  16.890   3.717  0.00  0.00    -0.532 OA
HETATM   41  O   UNK N   1      29.089  15.601   3.621  0.00  0.00    -0.532 OA
ENDBRANCH  35  39
ENDBRANCH  29  30
ENDBRANCH   5  29
TORSDOF 14
ENDMDL
MODEL 4
REMARK VINA RESULT:      -7.2     10.910     14.572
REMARK  14 active torsions:
REMARK  status: ('A' for Active; 'I' for Inactive)
REMARK    1  A    between atoms: C_9  and  C_4 
REMARK    2  A    between atoms: O_22  and  C_4 
REMARK    3  A    between atoms: C_10  and  C_5 
REMARK    4  A    between atoms: O_23  and  C_5 
REMARK    5  A    between atoms: N_20  and  C_6 
REMARK    6  A    between atoms: N_21  and  C_7 
REMARK    7  A    between atoms: O_32  and  C_8 
REMARK    8  A    between atoms: C_12  and  O_24 
REMARK    9  A    between atoms: C_13  and  O_25 
REMARK   10  A    between atoms: C_14  and  O_26 
REMARK   11  A    between atoms: C_15  and  O_27 
REMARK   12  A    between atoms: C_16  and  O_35 
REMARK   13  A    between atoms: C_17  and  O_32 
REMARK   14  A    between atoms: C_18  and  O_35 
ROOT
HETATM    1  C   UNK N   1      34.180  14.531   9.618  0.00  0.00     0.180 C 
HETATM    2  C   UNK N   1      33.526  12.889   7.393  0.00  0.00     0.256 C 
HETATM    3  C   UNK N   1      35.006  13.046   7.783  0.00  0.00     0.188 C 
HETATM    4  C   UNK N   1      35.087  13.296   9.310  0.00  0.00     0.187 C 
HETATM    5  C   UNK N   1      32.755  14.160   7.856  0.00  0.00     0.303 C 
HETATM    6  F   UNK N   1      33.378  12.618   6.047  0.00  0.00    -0.241 F 
HETATM    7  O   UNK N   1      32.848  14.269   9.243  0.00  0.00    -0.348 OA
ENDROOT
BRANCH   4   8
HETATM    8  O   UNK N   1      34.584  12.134   9.932  0.00  0.00    -0.348 OA
BRANCH   8   9
HETATM    9  C   UNK N   1      35.403  11.485  10.887  0.00  0.00     0.292 C 
HETATM   10  C   UNK N   1      36.957  11.701  10.848  0.00  0.00     0.204 C 
HETATM   11  C   UNK N   1      37.489  12.549  12.013  0.00  0.00     0.183 C 
HETATM   12  C   UNK N   1      36.815  12.096  13.313  0.00  0.00     0.180 C 
HETATM   13  C   UNK N   1      35.304  12.250  13.149  0.00  0.00     0.179 C 
HETATM   14  O   UNK N   1      34.793  11.362  12.164  0.00  0.00    -0.348 OA
BRANCH  10  15
HETATM   15  O   UNK N   1      37.573  10.447  10.957  0.00  0.00    -0.388 OA
HETATM   16  H   UNK N   1      38.330  10.074  11.436  0.00  0.00     0.210 HD
ENDBRANCH  10  15
BRANCH  11  17
HETATM   17  O   UNK N   1      37.262  13.910  11.798  0.00  0.00    -0.390 OA
HETATM   18  H   UNK N   1      37.549  14.822  11.958  0.00  0.00     0.210 HD
ENDBRANCH  11  17
BRANCH  12  19
HETATM   19  O   UNK N   1      37.273  12.880  14.377  0.00  0.00    -0.390 OA
HETATM   20  H   UNK N   1      37.717  13.724  14.555  0.00  0.00     0.210 HD
ENDBRANCH  12  19
BRANCH  13  21
HETATM   21  C   UNK N   1      34.609  11.926  14.471  0.00  0.00     0.198 C 
BRANCH  21  22
HETATM   22  O   UNK N   1      34.358  13.084  15.212  0.00  0.00    -0.398 OA
HETATM   23  H   UNK N   1      34.060  13.068  16.135  0.00  0.00     0.209 HD
ENDBRANCH  21  22
ENDBRANCH  13  21
ENDBRANCH   8   9
ENDBRANCH   4   8
BRANCH   1  24
HETATM   24  C   UNK N   1      34.100  14.956  11.055  0.00  0.00     0.198 C 
BRANCH  24  25
HETATM   25  O   UNK N   1      34.942  16.047  11.291  0.00  0.00    -0.398 OA
HETATM   26  H   UNK N   1      35.248  16.241  12.190  0.00  0.00     0.209 HD
ENDBRANCH  24  25
ENDBRANCH   1  24
BRANCH   3  27
HETATM   27  O   UNK N   1      35.717  11.894   7.430  0.00  0.00    -0.390 OA
HETATM   28  H   UNK N   1      36.539  11.669   7.895  0.00  0.00     0.210 HD
ENDBRANCH   3  27
BRANCH   5  29
HETATM   29  O   UNK N   1      33.169  15.353   7.241  0.00  0.00    -0.315 OA
BRANCH  29  30
HETATM   30  C   UNK N   1      32.285  16.347   7.261  0.00  0.00     0.105 C 
HETATM   31  C   UNK N   1      30.958  16.047   6.971  0.00  0.00     0.042 C 
HETATM   32  C   UNK N   1      29.958  16.815   7.534  0.00  0.00     0.039 C 
HETATM   33  C   UNK N   1      30.291  17.886   8.371  0.00  0.00     0.105 C 
HETATM   34  C   UNK N   1      31.629  18.309   8.469  0.00  0.00     0.075 C 
HETATM   35  C   UNK N   1      32.649  17.551   7.889  0.00  0.00     0.138 C 
BRANCH  33  36
HETATM   36  N   UNK N   1      29.323  18.398   9.272  0.00  0.00    -0.116 N 
HETATM   37  O   UNK N   1      29.686  18.904  10.295  0.00  0.00    -0.532 OA
HETATM   38  O   UNK N   1      28.208  18.586   8.898  0.00  0.00    -0.532 OA
ENDBRANCH  33  36
BRANCH  35  39
HETATM   39  N   UNK N   1      34.022  17.908   8.096  0.00  0.00    -0.113 N 
HETATM   40  O   UNK N   1      34.684  18.324   7.188  0.00  0.00    -0.532 OA
HETATM   41  O   UNK N   1      34.488  17.890   9.192  0.00  0.00    -0.532 OA
ENDBRANCH  35  39
ENDBRANCH  29  30
ENDBRANCH   5  29
TORSDOF 14
ENDMDL
MODEL 5
REMARK VINA RESULT:      -7.2      7.006     10.097
REMARK  14 active torsions:
REMARK  status: ('A' for Active; 'I' for Inactive)
REMARK    1  A    between atoms: C_9  and  C_4 
REMARK    2  A    between atoms: O_22  and  C_4 
REMARK    3  A    between atoms: C_10  and  C_5 
REMARK    4  A    between atoms: O_23  and  C_5 
REMARK    5  A    between atoms: N_20  and  C_6 
REMARK    6  A    between atoms: N_21  and  C_7 
REMARK    7  A    between atoms: O_32  and  C_8 
REMARK    8  A    between atoms: C_12  and  O_24 
REMARK    9  A    between atoms: C_13  and  O_25 
REMARK   10  A    between atoms: C_14  and  O_26 
REMARK   11  A    between atoms: C_15  and  O_27 
REMARK   12  A    between atoms: C_16  and  O_35 
REMARK   13  A    between atoms: C_17  and  O_32 
REMARK   14  A    between atoms: C_18  and  O_35 
ROOT
HETATM    1  C   UNK N   1      28.366  17.641   7.260  0.00  0.00     0.180 C 
HETATM    2  C   UNK N   1      28.011  16.663   4.616  0.00  0.00     0.256 C 
HETATM    3  C   UNK N   1      29.104  17.715   4.871  0.00  0.00     0.188 C 
HETATM    4  C   UNK N   1      29.616  17.549   6.325  0.00  0.00     0.187 C 
HETATM    5  C   UNK N   1      26.896  16.837   5.690  0.00  0.00     0.303 C 
HETATM    6  F   UNK N   1      27.537  16.723   3.320  0.00  0.00    -0.241 F 
HETATM    7  O   UNK N   1      27.445  16.622   6.954  0.00  0.00    -0.348 OA
ENDROOT
BRANCH   4   8
HETATM    8  O   UNK N   1      30.204  16.269   6.396  0.00  0.00    -0.348 OA
BRANCH   8   9
HETATM    9  C   UNK N   1      31.607  16.193   6.573  0.00  0.00     0.292 C 
HETATM   10  C   UNK N   1      32.470  17.499   6.478  0.00  0.00     0.204 C 
HETATM   11  C   UNK N   1      33.037  17.960   7.830  0.00  0.00     0.183 C 
HETATM   12  C   UNK N   1      33.578  16.743   8.589  0.00  0.00     0.180 C 
HETATM   13  C   UNK N   1      32.435  15.744   8.768  0.00  0.00     0.179 C 
HETATM   14  O   UNK N   1      32.005  15.214   7.522  0.00  0.00    -0.348 OA
BRANCH  10  15
HETATM   15  O   UNK N   1      33.573  17.233   5.656  0.00  0.00    -0.388 OA
HETATM   16  H   UNK N   1      33.721  16.837   4.783  0.00  0.00     0.210 HD
ENDBRANCH  10  15
BRANCH  11  17
HETATM   17  O   UNK N   1      32.069  18.616   8.592  0.00  0.00    -0.390 OA
HETATM   18  H   UNK N   1      31.650  18.731   9.459  0.00  0.00     0.210 HD
ENDBRANCH  11  17
BRANCH  12  19
HETATM   19  O   UNK N   1      34.072  17.147   9.833  0.00  0.00    -0.390 OA
HETATM   20  H   UNK N   1      33.821  17.670  10.610  0.00  0.00     0.210 HD
ENDBRANCH  12  19
BRANCH  13  21
HETATM   21  C   UNK N   1      32.907  14.574   9.632  0.00  0.00     0.198 C 
BRANCH  21  22
HETATM   22  O   UNK N   1      32.956  14.925  10.983  0.00  0.00    -0.398 OA
HETATM   23  H   UNK N   1      33.756  15.264  11.414  0.00  0.00     0.209 HD
ENDBRANCH  21  22
ENDBRANCH  13  21
ENDBRANCH   8   9
ENDBRANCH   4   8
BRANCH   1  24
HETATM   24  C   UNK N   1      28.625  17.500   8.732  0.00  0.00     0.198 C 
BRANCH  24  25
HETATM   25  O   UNK N   1      27.525  17.947   9.468  0.00  0.00    -0.398 OA
HETATM   26  H   UNK N   1      27.075  18.770   9.221  0.00  0.00     0.209 HD
ENDBRANCH  24  25
ENDBRANCH   1  24
BRANCH   3  27
HETATM   27  O   UNK N   1      30.149  17.550   3.956  0.00  0.00    -0.390 OA
HETATM   28  H   UNK N   1      30.979  17.130   4.235  0.00  0.00     0.210 HD
ENDBRANCH   3  27
BRANCH   5  29
HETATM   29  O   UNK N   1      26.230  18.073   5.648  0.00  0.00    -0.315 OA
BRANCH  29  30
HETATM   30  C   UNK N   1      25.303  18.194   4.702  0.00  0.00     0.105 C 
HETATM   31  C   UNK N   1      24.308  17.223   4.633  0.00  0.00     0.042 C 
HETATM   32  C   UNK N   1      23.065  17.568   4.143  0.00  0.00     0.039 C 
HETATM   33  C   UNK N   1      22.826  18.878   3.713  0.00  0.00     0.105 C 
HETATM   34  C   UNK N   1      23.899  19.779   3.580  0.00  0.00     0.075 C 
HETATM   35  C   UNK N   1      25.167  19.435   4.055  0.00  0.00     0.138 C 
BRANCH  33  36
HETATM   36  N   UNK N   1      21.493  19.353   3.619  0.00  0.00    -0.116 N 
HETATM   37  O   UNK N   1      20.929  19.713   4.612  0.00  0.00    -0.532 OA
HETATM   38  O   UNK N   1      21.050  19.662   2.557  0.00  0.00    -0.532 OA
ENDBRANCH  33  36
BRANCH  35  39
HETATM   39  N   UNK N   1      26.231  20.396   4.039  0.00  0.00    -0.113 N 
HETATM   40  O   UNK N   1      26.432  21.094   4.991  0.00  0.00    -0.532 OA
HETATM   41  O   UNK N   1      26.987  20.439   3.119  0.00  0.00    -0.532 OA
ENDBRANCH  35  39
ENDBRANCH  29  30
ENDBRANCH   5  29
TORSDOF 14
ENDMDL
MODEL 6
REMARK VINA RESULT:      -7.1     11.375     15.200
REMARK  14 active torsions:
REMARK  status: ('A' for Active; 'I' for Inactive)
REMARK    1  A    between atoms: C_9  and  C_4 
REMARK    2  A    between atoms: O_22  and  C_4 
REMARK    3  A    between atoms: C_10  and  C_5 
REMARK    4  A    between atoms: O_23  and  C_5 
REMARK    5  A    between atoms: N_20  and  C_6 
REMARK    6  A    between atoms: N_21  and  C_7 
REMARK    7  A    between atoms: O_32  and  C_8 
REMARK    8  A    between atoms: C_12  and  O_24 
REMARK    9  A    between atoms: C_13  and  O_25 
REMARK   10  A    between atoms: C_14  and  O_26 
REMARK   11  A    between atoms: C_15  and  O_27 
REMARK   12  A    between atoms: C_16  and  O_35 
REMARK   13  A    between atoms: C_17  and  O_32 
REMARK   14  A    between atoms: C_18  and  O_35 
ROOT
HETATM    1  C   UNK N   1      35.225  15.499   9.797  0.00  0.00     0.180 C 
HETATM    2  C   UNK N   1      34.097  12.996   9.066  0.00  0.00     0.256 C 
HETATM    3  C   UNK N   1      35.628  13.112   9.168  0.00  0.00     0.188 C 
HETATM    4  C   UNK N   1      35.969  14.192  10.226  0.00  0.00     0.187 C 
HETATM    5  C   UNK N   1      33.515  14.400   8.728  0.00  0.00     0.303 C 
HETATM    6  F   UNK N   1      33.718  12.016   8.170  0.00  0.00    -0.241 F 
HETATM    7  O   UNK N   1      33.834  15.284   9.759  0.00  0.00    -0.348 OA
ENDROOT
BRANCH   4   8
HETATM    8  O   UNK N   1      35.475  13.713  11.457  0.00  0.00    -0.348 OA
BRANCH   8   9
HETATM    9  C   UNK N   1      36.377  13.632  12.546  0.00  0.00     0.292 C 
HETATM   10  C   UNK N   1      35.992  14.285  13.920  0.00  0.00     0.204 C 
HETATM   11  C   UNK N   1      35.678  13.260  15.021  0.00  0.00     0.183 C 
HETATM   12  C   UNK N   1      36.722  12.139  14.976  0.00  0.00     0.180 C 
HETATM   13  C   UNK N   1      36.683  11.503  13.587  0.00  0.00     0.179 C 
HETATM   14  O   UNK N   1      37.109  12.415  12.584  0.00  0.00    -0.348 OA
BRANCH  10  15
HETATM   15  O   UNK N   1      37.091  15.027  14.372  0.00  0.00    -0.388 OA
HETATM   16  H   UNK N   1      37.325  15.521  15.174  0.00  0.00     0.210 HD
ENDBRANCH  10  15
BRANCH  11  17
HETATM   17  O   UNK N   1      34.393  12.733  14.874  0.00  0.00    -0.390 OA
HETATM   18  H   UNK N   1      33.814  11.958  14.945  0.00  0.00     0.210 HD
ENDBRANCH  11  17
BRANCH  12  19
HETATM   19  O   UNK N   1      36.430  11.186  15.957  0.00  0.00    -0.390 OA
HETATM   20  H   UNK N   1      36.865  10.634  16.626  0.00  0.00     0.210 HD
ENDBRANCH  12  19
BRANCH  13  21
HETATM   21  C   UNK N   1      37.624  10.299  13.548  0.00  0.00     0.198 C 
BRANCH  21  22
HETATM   22  O   UNK N   1      38.644  10.418  14.495  0.00  0.00    -0.398 OA
HETATM   23  H   UNK N   1      38.481  10.427  15.451  0.00  0.00     0.209 HD
ENDBRANCH  21  22
ENDBRANCH  13  21
ENDBRANCH   8   9
ENDBRANCH   4   8
BRANCH   1  24
HETATM   24  C   UNK N   1      35.408  16.691  10.691  0.00  0.00     0.198 C 
BRANCH  24  25
HETATM   25  O   UNK N   1      35.523  17.859   9.931  0.00  0.00    -0.398 OA
HETATM   26  H   UNK N   1      34.785  18.488   9.890  0.00  0.00     0.209 HD
ENDBRANCH  24  25
ENDBRANCH   1  24
BRANCH   3  27
HETATM   27  O   UNK N   1      36.178  11.877   9.525  0.00  0.00    -0.390 OA
HETATM   28  H   UNK N   1      37.137  11.788   9.647  0.00  0.00     0.210 HD
ENDBRANCH   3  27
BRANCH   5  29
HETATM   29  O   UNK N   1      33.925  14.922   7.490  0.00  0.00    -0.315 OA
BRANCH  29  30
HETATM   30  C   UNK N   1      32.947  15.350   6.696  0.00  0.00     0.105 C 
HETATM   31  C   UNK N   1      32.132  14.398   6.090  0.00  0.00     0.042 C 
HETATM   32  C   UNK N   1      30.826  14.728   5.787  0.00  0.00     0.039 C 
HETATM   33  C   UNK N   1      30.347  16.010   6.079  0.00  0.00     0.105 C 
HETATM   34  C   UNK N   1      31.242  17.019   6.478  0.00  0.00     0.075 C 
HETATM   35  C   UNK N   1      32.570  16.702   6.771  0.00  0.00     0.138 C 
BRANCH  33  36
HETATM   36  N   UNK N   1      28.949  16.230   6.176  0.00  0.00    -0.116 N 
HETATM   37  O   UNK N   1      28.195  15.374   5.811  0.00  0.00    -0.532 OA
HETATM   38  O   UNK N   1      28.536  17.109   6.866  0.00  0.00    -0.532 OA
ENDBRANCH  33  36
BRANCH  35  39
HETATM   39  N   UNK N   1      33.452  17.701   7.302  0.00  0.00    -0.113 N 
HETATM   40  O   UNK N   1      33.158  18.303   8.295  0.00  0.00    -0.532 OA
HETATM   41  O   UNK N   1      34.528  17.870   6.819  0.00  0.00    -0.532 OA
ENDBRANCH  35  39
ENDBRANCH  29  30
ENDBRANCH   5  29
TORSDOF 14
ENDMDL
MODEL 7
REMARK VINA RESULT:      -7.0     12.719     16.119
REMARK  14 active torsions:
REMARK  status: ('A' for Active; 'I' for Inactive)
REMARK    1  A    between atoms: C_9  and  C_4 
REMARK    2  A    between atoms: O_22  and  C_4 
REMARK    3  A    between atoms: C_10  and  C_5 
REMARK    4  A    between atoms: O_23  and  C_5 
REMARK    5  A    between atoms: N_20  and  C_6 
REMARK    6  A    between atoms: N_21  and  C_7 
REMARK    7  A    between atoms: O_32  and  C_8 
REMARK    8  A    between atoms: C_12  and  O_24 
REMARK    9  A    between atoms: C_13  and  O_25 
REMARK   10  A    between atoms: C_14  and  O_26 
REMARK   11  A    between atoms: C_15  and  O_27 
REMARK   12  A    between atoms: C_16  and  O_35 
REMARK   13  A    between atoms: C_17  and  O_32 
REMARK   14  A    between atoms: C_18  and  O_35 
ROOT
HETATM    1  C   UNK N   1      35.803  11.665  13.758  0.00  0.00     0.180 C 
HETATM    2  C   UNK N   1      35.602  13.606  15.823  0.00  0.00     0.256 C 
HETATM    3  C   UNK N   1      36.708  13.768  14.767  0.00  0.00     0.188 C 
HETATM    4  C   UNK N   1      36.214  13.140  13.439  0.00  0.00     0.187 C 
HETATM    5  C   UNK N   1      35.251  12.093  15.945  0.00  0.00     0.303 C 
HETATM    6  F   UNK N   1      35.956  14.184  17.026  0.00  0.00    -0.241 F 
HETATM    7  O   UNK N   1      34.773  11.637  14.717  0.00  0.00    -0.348 OA
ENDROOT
BRANCH   4   8
HETATM    8  O   UNK N   1      35.095  13.896  13.032  0.00  0.00    -0.348 OA
BRANCH   8   9
HETATM    9  C   UNK N   1      35.245  14.755  11.916  0.00  0.00     0.292 C 
HETATM   10  C   UNK N   1      36.535  14.651  11.028  0.00  0.00     0.204 C 
HETATM   11  C   UNK N   1      36.277  14.051   9.638  0.00  0.00     0.183 C 
HETATM   12  C   UNK N   1      34.999  14.664   9.055  0.00  0.00     0.180 C 
HETATM   13  C   UNK N   1      33.847  14.373  10.016  0.00  0.00     0.179 C 
HETATM   14  O   UNK N   1      34.021  15.044  11.256  0.00  0.00    -0.348 OA
BRANCH  10  15
HETATM   15  O   UNK N   1      37.022  15.947  10.816  0.00  0.00    -0.388 OA
HETATM   16  H   UNK N   1      37.215  16.725  11.363  0.00  0.00     0.210 HD
ENDBRANCH  10  15
BRANCH  11  17
HETATM   17  O   UNK N   1      36.166  12.660   9.695  0.00  0.00    -0.390 OA
HETATM   18  H   UNK N   1      35.633  11.874   9.500  0.00  0.00     0.210 HD
ENDBRANCH  11  17
BRANCH  12  19
HETATM   19  O   UNK N   1      34.740  14.105   7.800  0.00  0.00    -0.390 OA
HETATM   20  H   UNK N   1      35.182  13.892   6.963  0.00  0.00     0.210 HD
ENDBRANCH  12  19
BRANCH  13  21
HETATM   21  C   UNK N   1      32.533  14.861   9.405  0.00  0.00     0.198 C 
BRANCH  21  22
HETATM   22  O   UNK N   1      31.642  15.293  10.391  0.00  0.00    -0.398 OA
HETATM   23  H   UNK N   1      30.919  14.742  10.729  0.00  0.00     0.209 HD
ENDBRANCH  21  22
ENDBRANCH  13  21
ENDBRANCH   8   9
ENDBRANCH   4   8
BRANCH   1  24
HETATM   24  C   UNK N   1      35.282  10.856  12.606  0.00  0.00     0.198 C 
BRANCH  24  25
HETATM   25  O   UNK N   1      34.244  11.534  11.961  0.00  0.00    -0.398 OA
HETATM   26  H   UNK N   1      33.407  11.080  11.774  0.00  0.00     0.209 HD
ENDBRANCH  24  25
ENDBRANCH   1  24
BRANCH   3  27
HETATM   27  O   UNK N   1      37.008  15.122  14.593  0.00  0.00    -0.390 OA
HETATM   28  H   UNK N   1      36.468  15.801  15.029  0.00  0.00     0.210 HD
ENDBRANCH   3  27
BRANCH   5  29
HETATM   29  O   UNK N   1      36.306  11.281  16.394  0.00  0.00    -0.315 OA
BRANCH  29  30
HETATM   30  C   UNK N   1      36.050  10.554  17.478  0.00  0.00     0.105 C 
HETATM   31  C   UNK N   1      35.761  11.225  18.662  0.00  0.00     0.042 C 
HETATM   32  C   UNK N   1      34.939  10.621  19.593  0.00  0.00     0.039 C 
HETATM   33  C   UNK N   1      34.422   9.345  19.340  0.00  0.00     0.105 C 
HETATM   34  C   UNK N   1      34.904   8.597  18.250  0.00  0.00     0.075 C 
HETATM   35  C   UNK N   1      35.751   9.191  17.312  0.00  0.00     0.138 C 
BRANCH  33  36
HETATM   36  N   UNK N   1      33.275   8.901  20.047  0.00  0.00    -0.116 N 
HETATM   37  O   UNK N   1      33.095   9.282  21.168  0.00  0.00    -0.532 OA
HETATM   38  O   UNK N   1      32.371   8.404  19.452  0.00  0.00    -0.532 OA
ENDBRANCH  33  36
BRANCH  35  39
HETATM   39  N   UNK N   1      36.139   8.473  16.133  0.00  0.00    -0.113 N 
HETATM   40  O   UNK N   1      37.182   7.884  16.097  0.00  0.00    -0.532 OA
HETATM   41  O   UNK N   1      35.385   8.371  15.216  0.00  0.00    -0.532 OA
ENDBRANCH  35  39
ENDBRANCH  29  30
ENDBRANCH   5  29
TORSDOF 14
ENDMDL
MODEL 8
REMARK VINA RESULT:      -7.0      6.606      9.761
REMARK  14 active torsions:
REMARK  status: ('A' for Active; 'I' for Inactive)
REMARK    1  A    between atoms: C_9  and  C_4 
REMARK    2  A    between atoms: O_22  and  C_4 
REMARK    3  A    between atoms: C_10  and  C_5 
REMARK    4  A    between atoms: O_23  and  C_5 
REMARK    5  A    between atoms: N_20  and  C_6 
REMARK    6  A    between atoms: N_21  and  C_7 
REMARK    7  A    between atoms: O_32  and  C_8 
REMARK    8  A    between atoms: C_12  and  O_24 
REMARK    9  A    between atoms: C_13  and  O_25 
REMARK   10  A    between atoms: C_14  and  O_26 
REMARK   11  A    between atoms: C_15  and  O_27 
REMARK   12  A    between atoms: C_16  and  O_35 
REMARK   13  A    between atoms: C_17  and  O_32 
REMARK   14  A    between atoms: C_18  and  O_35 
ROOT
HETATM    1  C   UNK N   1      27.810  17.628   6.468  0.00  0.00     0.180 C 
HETATM    2  C   UNK N   1      27.091  16.633   3.906  0.00  0.00     0.256 C 
HETATM    3  C   UNK N   1      28.367  17.482   4.034  0.00  0.00     0.188 C 
HETATM    4  C   UNK N   1      28.950  17.280   5.456  0.00  0.00     0.187 C 
HETATM    5  C   UNK N   1      26.108  17.041   5.043  0.00  0.00     0.303 C 
HETATM    6  F   UNK N   1      26.538  16.728   2.644  0.00  0.00    -0.241 F 
HETATM    7  O   UNK N   1      26.704  16.778   6.276  0.00  0.00    -0.348 OA
ENDROOT
BRANCH   4   8
HETATM    8  O   UNK N   1      29.309  15.920   5.551  0.00  0.00    -0.348 OA
BRANCH   8   9
HETATM    9  C   UNK N   1      30.665  15.608   5.815  0.00  0.00     0.292 C 
HETATM   10  C   UNK N   1      31.684  15.521   4.626  0.00  0.00     0.204 C 
HETATM   11  C   UNK N   1      32.693  16.680   4.596  0.00  0.00     0.183 C 
HETATM   12  C   UNK N   1      33.201  16.941   6.019  0.00  0.00     0.180 C 
HETATM   13  C   UNK N   1      31.999  17.264   6.905  0.00  0.00     0.179 C 
HETATM   14  O   UNK N   1      31.138  16.142   7.044  0.00  0.00    -0.348 OA
BRANCH  10  15
HETATM   15  O   UNK N   1      32.434  14.348   4.781  0.00  0.00    -0.388 OA
HETATM   16  H   UNK N   1      33.097  13.863   4.264  0.00  0.00     0.210 HD
ENDBRANCH  10  15
BRANCH  11  17
HETATM   17  O   UNK N   1      32.122  17.839   4.065  0.00  0.00    -0.390 OA
HETATM   18  H   UNK N   1      32.108  18.808   4.045  0.00  0.00     0.210 HD
ENDBRANCH  11  17
BRANCH  12  19
HETATM   19  O   UNK N   1      34.100  18.012   6.007  0.00  0.00    -0.390 OA
HETATM   20  H   UNK N   1      35.015  18.232   6.243  0.00  0.00     0.210 HD
ENDBRANCH  12  19
BRANCH  13  21
HETATM   21  C   UNK N   1      32.483  17.652   8.303  0.00  0.00     0.198 C 
BRANCH  21  22
HETATM   22  O   UNK N   1      31.427  17.678   9.218  0.00  0.00    -0.398 OA
HETATM   23  H   UNK N   1      30.973  16.877   9.525  0.00  0.00     0.209 HD
ENDBRANCH  21  22
ENDBRANCH  13  21
ENDBRANCH   8   9
ENDBRANCH   4   8
BRANCH   1  24
HETATM   24  C   UNK N   1      28.150  17.496   7.924  0.00  0.00     0.198 C 
BRANCH  24  25
HETATM   25  O   UNK N   1      28.936  18.573   8.343  0.00  0.00    -0.398 OA
HETATM   26  H   UNK N   1      29.892  18.460   8.468  0.00  0.00     0.209 HD
ENDBRANCH  24  25
ENDBRANCH   1  24
BRANCH   3  27
HETATM   27  O   UNK N   1      29.295  17.100   3.060  0.00  0.00    -0.390 OA
HETATM   28  H   UNK N   1      30.230  16.988   3.295  0.00  0.00     0.210 HD
ENDBRANCH   3  27
BRANCH   5  29
HETATM   29  O   UNK N   1      25.667  18.374   4.985  0.00  0.00    -0.315 OA
BRANCH  29  30
HETATM   30  C   UNK N   1      24.720  18.627   4.086  0.00  0.00     0.105 C 
HETATM   31  C   UNK N   1      23.545  17.883   4.146  0.00  0.00     0.042 C 
HETATM   32  C   UNK N   1      22.367  18.450   3.701  0.00  0.00     0.039 C 
HETATM   33  C   UNK N   1      22.373  19.752   3.188  0.00  0.00     0.105 C 
HETATM   34  C   UNK N   1      23.596  20.397   2.928  0.00  0.00     0.075 C 
HETATM   35  C   UNK N   1      24.796  19.826   3.356  0.00  0.00     0.138 C 
BRANCH  33  36
HETATM   36  N   UNK N   1      21.163  20.489   3.132  0.00  0.00    -0.116 N 
HETATM   37  O   UNK N   1      20.789  20.921   2.080  0.00  0.00    -0.532 OA
HETATM   38  O   UNK N   1      20.394  20.431   4.041  0.00  0.00    -0.532 OA
ENDBRANCH  33  36
BRANCH  35  39
HETATM   39  N   UNK N   1      26.031  20.540   3.208  0.00  0.00    -0.113 N 
HETATM   40  O   UNK N   1      26.244  21.185   2.222  0.00  0.00    -0.532 OA
HETATM   41  O   UNK N   1      26.812  20.581   4.107  0.00  0.00    -0.532 OA
ENDBRANCH  35  39
ENDBRANCH  29  30
ENDBRANCH   5  29
TORSDOF 14
ENDMDL
MODEL 9
REMARK VINA RESULT:      -7.0     11.762     13.916
REMARK  14 active torsions:
REMARK  status: ('A' for Active; 'I' for Inactive)
REMARK    1  A    between atoms: C_9  and  C_4 
REMARK    2  A    between atoms: O_22  and  C_4 
REMARK    3  A    between atoms: C_10  and  C_5 
REMARK    4  A    between atoms: O_23  and  C_5 
REMARK    5  A    between atoms: N_20  and  C_6 
REMARK    6  A    between atoms: N_21  and  C_7 
REMARK    7  A    between atoms: O_32  and  C_8 
REMARK    8  A    between atoms: C_12  and  O_24 
REMARK    9  A    between atoms: C_13  and  O_25 
REMARK   10  A    between atoms: C_14  and  O_26 
REMARK   11  A    between atoms: C_15  and  O_27 
REMARK   12  A    between atoms: C_16  and  O_35 
REMARK   13  A    between atoms: C_17  and  O_32 
REMARK   14  A    between atoms: C_18  and  O_35 
ROOT
HETATM    1  C   UNK N   1      35.234  14.883  11.037  0.00  0.00     0.180 C 
HETATM    2  C   UNK N   1      35.236  12.055  10.764  0.00  0.00     0.256 C 
HETATM    3  C   UNK N   1      34.062  12.851  10.169  0.00  0.00     0.188 C 
HETATM    4  C   UNK N   1      34.577  14.256   9.765  0.00  0.00     0.187 C 
HETATM    5  C   UNK N   1      35.830  12.864  11.955  0.00  0.00     0.303 C 
HETATM    6  F   UNK N   1      34.860  10.771  11.108  0.00  0.00    -0.241 F 
HETATM    7  O   UNK N   1      36.307  14.087  11.481  0.00  0.00    -0.348 OA
ENDROOT
BRANCH   4   8
HETATM    8  O   UNK N   1      35.536  14.053   8.752  0.00  0.00    -0.348 OA
BRANCH   8   9
HETATM    9  C   UNK N   1      35.303  14.648   7.488  0.00  0.00     0.292 C 
HETATM   10  C   UNK N   1      34.602  13.815   6.358  0.00  0.00     0.204 C 
HETATM   11  C   UNK N   1      33.169  14.279   6.051  0.00  0.00     0.183 C 
HETATM   12  C   UNK N   1      33.138  15.811   6.000  0.00  0.00     0.180 C 
HETATM   13  C   UNK N   1      33.627  16.346   7.345  0.00  0.00     0.179 C 
HETATM   14  O   UNK N   1      34.996  16.033   7.564  0.00  0.00    -0.348 OA
BRANCH  10  15
HETATM   15  O   UNK N   1      35.334  13.983   5.176  0.00  0.00    -0.388 OA
HETATM   16  H   UNK N   1      35.868  13.421   4.593  0.00  0.00     0.210 HD
ENDBRANCH  10  15
BRANCH  11  17
HETATM   17  O   UNK N   1      32.265  13.808   7.006  0.00  0.00    -0.390 OA
HETATM   18  H   UNK N   1      32.104  13.219   7.759  0.00  0.00     0.210 HD
ENDBRANCH  11  17
BRANCH  12  19
HETATM   19  O   UNK N   1      31.833  16.246   5.748  0.00  0.00    -0.390 OA
HETATM   20  H   UNK N   1      31.237  16.988   5.932  0.00  0.00     0.210 HD
ENDBRANCH  12  19
BRANCH  13  21
HETATM   21  C   UNK N   1      33.490  17.868   7.372  0.00  0.00     0.198 C 
BRANCH  21  22
HETATM   22  O   UNK N   1      34.718  18.487   7.618  0.00  0.00    -0.398 OA
HETATM   23  H   UNK N   1      35.550  18.191   7.217  0.00  0.00     0.209 HD
ENDBRANCH  21  22
ENDBRANCH  13  21
ENDBRANCH   8   9
ENDBRANCH   4   8
BRANCH   1  24
HETATM   24  C   UNK N   1      35.814  16.258  10.877  0.00  0.00     0.198 C 
BRANCH  24  25
HETATM   25  O   UNK N   1      34.832  17.159  10.456  0.00  0.00    -0.398 OA
HETATM   26  H   UNK N   1      34.056  16.840   9.968  0.00  0.00     0.209 HD
ENDBRANCH  24  25
ENDBRANCH   1  24
BRANCH   3  27
HETATM   27  O   UNK N   1      33.540  12.177   9.061  0.00  0.00    -0.390 OA
HETATM   28  H   UNK N   1      33.107  12.674   8.348  0.00  0.00     0.210 HD
ENDBRANCH   3  27
BRANCH   5  29
HETATM   29  O   UNK N   1      34.945  13.065  13.027  0.00  0.00    -0.315 OA
BRANCH  29  30
HETATM   30  C   UNK N   1      35.480  12.962  14.240  0.00  0.00     0.105 C 
HETATM   31  C   UNK N   1      36.286  14.003  14.691  0.00  0.00     0.042 C 
HETATM   32  C   UNK N   1      36.361  14.256  16.046  0.00  0.00     0.039 C 
HETATM   33  C   UNK N   1      35.641  13.460  16.943  0.00  0.00     0.105 C 
HETATM   34  C   UNK N   1      35.018  12.282  16.491  0.00  0.00     0.075 C 
HETATM   35  C   UNK N   1      34.951  12.005  15.124  0.00  0.00     0.138 C 
BRANCH  33  36
HETATM   36  N   UNK N   1      35.364  13.947  18.246  0.00  0.00    -0.116 N 
HETATM   37  O   UNK N   1      35.280  13.171  19.155  0.00  0.00    -0.532 OA
HETATM   38  O   UNK N   1      35.500  15.106  18.485  0.00  0.00    -0.532 OA
ENDBRANCH  33  36
BRANCH  35  39
HETATM   39  N   UNK N   1      34.205  10.874  14.651  0.00  0.00    -0.113 N 
HETATM   40  O   UNK N   1      33.008  10.878  14.689  0.00  0.00    -0.532 OA
HETATM   41  O   UNK N   1      34.765   9.965  14.124  0.00  0.00    -0.532 OA
ENDBRANCH  35  39
ENDBRANCH  29  30
ENDBRANCH   5  29
TORSDOF 14
ENDMDL
