MODEL 1
REMARK VINA RESULT:      -2.7      0.000      0.000
REMARK  0 active torsions:
REMARK  status: ('A' for Active; 'I' for Inactive)
ROOT
HETATM    1  O   UNK N   1      35.317  19.242   8.498  0.00  0.00    -0.671 OA
HETATM    2  P   UNK N   1      34.149  18.016   8.126  0.00  0.00     0.088 P 
HETATM    3  O   UNK N   1      34.500  18.004   6.616  0.00  0.00    -0.671 OA
HETATM    4  H   UNK N   1      33.241  17.312   8.890  0.00  0.00     0.127 HD
HETATM    5  H   UNK N   1      33.400  17.115   7.395  0.00  0.00     0.127 HD
ENDROOT
TORSDOF 0
ENDMDL
MODEL 2
REMARK VINA RESULT:      -2.5     11.246     11.395
REMARK  0 active torsions:
REMARK  status: ('A' for Active; 'I' for Inactive)
ROOT
HETATM    1  O   UNK N   1      32.195  21.668  -2.223  0.00  0.00    -0.671 OA
HETATM    2  P   UNK N   1      30.868  22.595  -2.841  0.00  0.00     0.088 P 
HETATM    3  O   UNK N   1      30.401  23.044  -1.433  0.00  0.00    -0.671 OA
HETATM    4  H   UNK N   1      30.400  22.843  -4.115  0.00  0.00     0.127 HD
HETATM    5  H   UNK N   1      29.754  23.411  -2.866  0.00  0.00     0.127 HD
ENDROOT
TORSDOF 0
ENDMDL
MODEL 3
REMARK VINA RESULT:      -2.4     14.319     14.819
REMARK  0 active torsions:
REMARK  status: ('A' for Active; 'I' for Inactive)
ROOT
HETATM    1  O   UNK N   1      21.420  20.761   0.401  0.00  0.00    -0.671 OA
HETATM    2  P   UNK N   1      20.954  20.422   2.036  0.00  0.00     0.088 P 
HETATM    3  O   UNK N   1      22.082  21.296   2.640  0.00  0.00    -0.671 OA
HETATM    4  H   UNK N   1      19.950  19.657   2.594  0.00  0.00     0.127 HD
HETATM    5  H   UNK N   1      20.955  20.439   3.417  0.00  0.00     0.127 HD
ENDROOT
TORSDOF 0
ENDMDL
MODEL 4
REMARK VINA RESULT:      -2.3     14.090     14.471
REMARK  0 active torsions:
REMARK  status: ('A' for Active; 'I' for Inactive)
ROOT
HETATM    1  O   UNK N   1      20.360  20.611   3.889  0.00  0.00    -0.671 OA
HETATM    2  P   UNK N   1      21.174  20.485   2.364  0.00  0.00     0.088 P 
HETATM    3  O   UNK N   1      22.346  21.398   2.805  0.00  0.00    -0.671 OA
HETATM    4  H   UNK N   1      20.885  19.818   1.190  0.00  0.00     0.127 HD
HETATM    5  H   UNK N   1      22.125  20.669   1.380  0.00  0.00     0.127 HD
ENDROOT
TORSDOF 0
ENDMDL
MODEL 5
REMARK VINA RESULT:      -2.1     14.516     14.670
REMARK  0 active torsions:
REMARK  status: ('A' for Active; 'I' for Inactive)
ROOT
HETATM    1  O   UNK N   1      19.867  19.301  10.044  0.00  0.00    -0.671 OA
HETATM    2  P   UNK N   1      19.727  18.053   8.849  0.00  0.00     0.088 P 
HETATM    3  O   UNK N   1      20.572  18.826   7.804  0.00  0.00    -0.671 OA
HETATM    4  H   UNK N   1      19.097  16.826   8.833  0.00  0.00     0.127 HD
HETATM    5  H   UNK N   1      19.881  17.374   7.657  0.00  0.00     0.127 HD
ENDROOT
TORSDOF 0
ENDMDL
MODEL 6
REMARK VINA RESULT:      -2.0      3.565      3.947
REMARK  0 active torsions:
REMARK  status: ('A' for Active; 'I' for Inactive)
ROOT
HETATM    1  O   UNK N   1      36.898  15.548  10.335  0.00  0.00    -0.671 OA
HETATM    2  P   UNK N   1      35.370  16.155  10.888  0.00  0.00     0.088 P 
HETATM    3  O   UNK N   1      35.588  17.553  10.255  0.00  0.00    -0.671 OA
HETATM    4  H   UNK N   1      34.341  15.599  11.620  0.00  0.00     0.127 HD
HETATM    5  H   UNK N   1      34.318  17.023  11.100  0.00  0.00     0.127 HD
ENDROOT
TORSDOF 0
ENDMDL
MODEL 7
REMARK VINA RESULT:      -1.9     18.725     18.805
REMARK  0 active torsions:
REMARK  status: ('A' for Active; 'I' for Inactive)
ROOT
HETATM    1  O   UNK N   1      47.585  18.759  20.626  0.00  0.00    -0.671 OA
HETATM    2  P   UNK N   1      49.209  19.363  20.672  0.00  0.00     0.088 P 
HETATM    3  O   UNK N   1      49.216  19.732  19.166  0.00  0.00    -0.671 OA
HETATM    4  H   UNK N   1      50.149  19.474  21.676  0.00  0.00     0.127 HD
HETATM    5  H   UNK N   1      50.401  19.916  20.248  0.00  0.00     0.127 HD
ENDROOT
TORSDOF 0
ENDMDL
MODEL 8
REMARK VINA RESULT:      -1.9     10.809     11.056
REMARK  0 active torsions:
REMARK  status: ('A' for Active; 'I' for Inactive)
ROOT
HETATM    1  O   UNK N   1      44.133  24.012   3.374  0.00  0.00    -0.671 OA
HETATM    2  P   UNK N   1      43.700  22.390   3.807  0.00  0.00     0.088 P 
HETATM    3  O   UNK N   1      43.866  22.650   5.326  0.00  0.00    -0.671 OA
HETATM    4  H   UNK N   1      43.340  21.279   3.073  0.00  0.00     0.127 HD
HETATM    5  H   UNK N   1      43.433  21.282   4.586  0.00  0.00     0.127 HD
ENDROOT
TORSDOF 0
ENDMDL
MODEL 9
REMARK VINA RESULT:      -1.9     14.885     15.193
REMARK  0 active torsions:
REMARK  status: ('A' for Active; 'I' for Inactive)
ROOT
HETATM    1  O   UNK N   1      19.382  14.167   9.834  0.00  0.00    -0.671 OA
HETATM    2  P   UNK N   1      21.048  13.710   9.687  0.00  0.00     0.088 P 
HETATM    3  O   UNK N   1      20.790  12.804   8.456  0.00  0.00    -0.671 OA
HETATM    4  H   UNK N   1      22.183  14.034  10.401  0.00  0.00     0.127 HD
HETATM    5  H   UNK N   1      22.189  13.101   9.206  0.00  0.00     0.127 HD
ENDROOT
TORSDOF 0
ENDMDL
