MODEL 1
REMARK VINA RESULT:      -5.2      0.000      0.000
REMARK  4 active torsions:
REMARK  status: ('A' for Active; 'I' for Inactive)
REMARK    1  A    between atoms: C_4  and  O_5 
REMARK    2  A    between atoms: C_6  and  O_7 
REMARK    3  A    between atoms: C_8  and  O_9 
REMARK    4  A    between atoms: C_10  and  O_11 
ROOT
HETATM    1  C   UNK N   1      20.213  15.814   2.160  0.00  0.00     0.042 C 
HETATM    2  C   UNK N   1      20.452  17.308   2.277  0.00  0.00     0.152 A 
HETATM    3  O   UNK N   1      20.670  17.802   3.595  0.00  0.00    -0.351 OA
HETATM    4  C   UNK N   1      20.893  19.201   3.697  0.00  0.00     0.288 A 
HETATM    5  C   UNK N   1      20.913  20.178   2.525  0.00  0.00     0.204 A 
HETATM    6  C   UNK N   1      20.684  19.658   1.150  0.00  0.00     0.182 A 
HETATM    7  C   UNK N   1      20.449  18.190   1.022  0.00  0.00     0.178 A 
ENDROOT
BRANCH   4   8
HETATM    8  O   UNK N   1      21.107  19.689   4.986  0.00  0.00    -0.369 OA
HETATM    9  H   UNK N   1      21.421  20.598   5.114  0.00  0.00     0.212 HD
ENDBRANCH   4   8
BRANCH   5  10
HETATM   10  O   UNK N   1      21.140  21.539   2.721  0.00  0.00    -0.388 OA
HETATM   11  H   UNK N   1      21.166  21.903   3.619  0.00  0.00     0.210 HD
ENDBRANCH   5  10
BRANCH   6  12
HETATM   12  O   UNK N   1      20.691  20.500   0.040  0.00  0.00    -0.390 OA
HETATM   13  H   UNK N   1      19.897  20.581  -0.513  0.00  0.00     0.210 HD
ENDBRANCH   6  12
BRANCH   7  14
HETATM   14  O   UNK N   1      20.228  17.641  -0.242  0.00  0.00    -0.390 OA
HETATM   15  H   UNK N   1      20.908  17.088  -0.656  0.00  0.00     0.210 HD
ENDBRANCH   7  14
TORSDOF 4
ENDMDL
MODEL 2
REMARK VINA RESULT:      -5.2      0.948      3.216
REMARK  4 active torsions:
REMARK  status: ('A' for Active; 'I' for Inactive)
REMARK    1  A    between atoms: C_4  and  O_5 
REMARK    2  A    between atoms: C_6  and  O_7 
REMARK    3  A    between atoms: C_8  and  O_9 
REMARK    4  A    between atoms: C_10  and  O_11 
ROOT
HETATM    1  C   UNK N   1      20.487  16.853   4.554  0.00  0.00     0.042 C 
HETATM    2  C   UNK N   1      20.557  17.825   3.392  0.00  0.00     0.152 A 
HETATM    3  O   UNK N   1      20.356  17.264   2.099  0.00  0.00    -0.351 OA
HETATM    4  C   UNK N   1      20.423  18.180   1.015  0.00  0.00     0.288 A 
HETATM    5  C   UNK N   1      20.687  19.677   1.142  0.00  0.00     0.204 A 
HETATM    6  C   UNK N   1      20.897  20.259   2.496  0.00  0.00     0.182 A 
HETATM    7  C   UNK N   1      20.831  19.313   3.646  0.00  0.00     0.178 A 
ENDROOT
BRANCH   4   8
HETATM    8  O   UNK N   1      20.226  17.635  -0.254  0.00  0.00    -0.369 OA
HETATM    9  H   UNK N   1      20.989  17.400  -0.804  0.00  0.00     0.212 HD
ENDBRANCH   4   8
BRANCH   5  10
HETATM   10  O   UNK N   1      20.736  20.501   0.020  0.00  0.00    -0.388 OA
HETATM   11  H   UNK N   1      21.495  20.461  -0.581  0.00  0.00     0.210 HD
ENDBRANCH   5  10
BRANCH   6  12
HETATM   12  O   UNK N   1      21.143  21.619   2.675  0.00  0.00    -0.390 OA
HETATM   13  H   UNK N   1      20.740  22.091   3.421  0.00  0.00     0.210 HD
ENDBRANCH   6  12
BRANCH   7  14
HETATM   14  O   UNK N   1      21.019  19.798   4.942  0.00  0.00    -0.390 OA
HETATM   15  H   UNK N   1      21.737  20.424   5.125  0.00  0.00     0.210 HD
ENDBRANCH   7  14
TORSDOF 4
ENDMDL
MODEL 3
REMARK VINA RESULT:      -5.2      0.996      2.521
REMARK  4 active torsions:
REMARK  status: ('A' for Active; 'I' for Inactive)
REMARK    1  A    between atoms: C_4  and  O_5 
REMARK    2  A    between atoms: C_6  and  O_7 
REMARK    3  A    between atoms: C_8  and  O_9 
REMARK    4  A    between atoms: C_10  and  O_11 
ROOT
HETATM    1  C   UNK N   1      21.066  17.754   5.255  0.00  0.00     0.042 C 
HETATM    2  C   UNK N   1      20.956  18.446   3.909  0.00  0.00     0.152 A 
HETATM    3  O   UNK N   1      21.329  19.821   3.885  0.00  0.00    -0.351 OA
HETATM    4  C   UNK N   1      21.224  20.462   2.622  0.00  0.00     0.288 A 
HETATM    5  C   UNK N   1      20.753  19.797   1.332  0.00  0.00     0.204 A 
HETATM    6  C   UNK N   1      20.364  18.361   1.362  0.00  0.00     0.182 A 
HETATM    7  C   UNK N   1      20.468  17.670   2.680  0.00  0.00     0.178 A 
ENDROOT
BRANCH   4   8
HETATM    8  O   UNK N   1      21.588  21.809   2.592  0.00  0.00    -0.369 OA
HETATM    9  H   UNK N   1      22.477  22.064   2.299  0.00  0.00     0.212 HD
ENDBRANCH   4   8
BRANCH   5  10
HETATM   10  O   UNK N   1      20.681  20.507   0.135  0.00  0.00    -0.388 OA
HETATM   11  H   UNK N   1      19.832  20.864  -0.168  0.00  0.00     0.210 HD
ENDBRANCH   5  10
BRANCH   6  12
HETATM   12  O   UNK N   1      19.926  17.699   0.218  0.00  0.00    -0.390 OA
HETATM   13  H   UNK N   1      20.483  17.016  -0.192  0.00  0.00     0.210 HD
ENDBRANCH   6  12
BRANCH   7  14
HETATM   14  O   UNK N   1      20.118  16.322   2.774  0.00  0.00    -0.390 OA
HETATM   15  H   UNK N   1      19.758  15.859   2.001  0.00  0.00     0.210 HD
ENDBRANCH   7  14
TORSDOF 4
ENDMDL
MODEL 4
REMARK VINA RESULT:      -5.1     13.713     14.756
REMARK  4 active torsions:
REMARK  status: ('A' for Active; 'I' for Inactive)
REMARK    1  A    between atoms: C_4  and  O_5 
REMARK    2  A    between atoms: C_6  and  O_7 
REMARK    3  A    between atoms: C_8  and  O_9 
REMARK    4  A    between atoms: C_10  and  O_11 
ROOT
HETATM    1  C   UNK N   1      33.073  17.240   4.903  0.00  0.00     0.042 C 
HETATM    2  C   UNK N   1      33.487  17.193   6.362  0.00  0.00     0.152 A 
HETATM    3  O   UNK N   1      34.276  18.286   6.819  0.00  0.00    -0.351 OA
HETATM    4  C   UNK N   1      34.660  18.236   8.186  0.00  0.00     0.288 A 
HETATM    5  C   UNK N   1      34.294  17.124   9.164  0.00  0.00     0.204 A 
HETATM    6  C   UNK N   1      33.469  15.983   8.681  0.00  0.00     0.182 A 
HETATM    7  C   UNK N   1      33.056  16.018   7.248  0.00  0.00     0.178 A 
ENDROOT
BRANCH   4   8
HETATM    8  O   UNK N   1      35.434  19.305   8.639  0.00  0.00    -0.369 OA
HETATM    9  H   UNK N   1      35.495  19.490   9.589  0.00  0.00     0.212 HD
ENDBRANCH   4   8
BRANCH   5  10
HETATM   10  O   UNK N   1      34.717  17.158  10.491  0.00  0.00    -0.388 OA
HETATM   11  H   UNK N   1      34.744  16.343  11.014  0.00  0.00     0.210 HD
ENDBRANCH   5  10
BRANCH   6  12
HETATM   12  O   UNK N   1      33.103  14.938   9.526  0.00  0.00    -0.390 OA
HETATM   13  H   UNK N   1      33.691  14.173   9.636  0.00  0.00     0.210 HD
ENDBRANCH   6  12
BRANCH   7  14
HETATM   14  O   UNK N   1      32.281  14.977   6.735  0.00  0.00    -0.390 OA
HETATM   15  H   UNK N   1      31.748  15.116   5.937  0.00  0.00     0.210 HD
ENDBRANCH   7  14
TORSDOF 4
ENDMDL
MODEL 5
REMARK VINA RESULT:      -4.9     14.055     15.003
REMARK  4 active torsions:
REMARK  status: ('A' for Active; 'I' for Inactive)
REMARK    1  A    between atoms: C_4  and  O_5 
REMARK    2  A    between atoms: C_6  and  O_7 
REMARK    3  A    between atoms: C_8  and  O_9 
REMARK    4  A    between atoms: C_10  and  O_11 
ROOT
HETATM    1  C   UNK N   1      32.510  15.366   6.035  0.00  0.00     0.042 C 
HETATM    2  C   UNK N   1      33.175  15.903   7.288  0.00  0.00     0.152 A 
HETATM    3  O   UNK N   1      33.017  15.114   8.463  0.00  0.00    -0.351 OA
HETATM    4  C   UNK N   1      33.643  15.622   9.633  0.00  0.00     0.288 A 
HETATM    5  C   UNK N   1      34.447  16.917   9.710  0.00  0.00     0.204 A 
HETATM    6  C   UNK N   1      34.610  17.738   8.480  0.00  0.00     0.182 A 
HETATM    7  C   UNK N   1      33.960  17.220   7.241  0.00  0.00     0.178 A 
ENDROOT
BRANCH   4   8
HETATM    8  O   UNK N   1      33.491  14.853  10.786  0.00  0.00    -0.369 OA
HETATM    9  H   UNK N   1      33.842  13.949  10.816  0.00  0.00     0.212 HD
ENDBRANCH   4   8
BRANCH   5  10
HETATM   10  O   UNK N   1      35.027  17.338  10.905  0.00  0.00    -0.388 OA
HETATM   11  H   UNK N   1      35.918  17.720  10.905  0.00  0.00     0.210 HD
ENDBRANCH   5  10
BRANCH   6  12
HETATM   12  O   UNK N   1      35.333  18.929   8.488  0.00  0.00    -0.390 OA
HETATM   13  H   UNK N   1      36.303  18.908   8.489  0.00  0.00     0.210 HD
ENDBRANCH   6  12
BRANCH   7  14
HETATM   14  O   UNK N   1      34.076  17.946   6.055  0.00  0.00    -0.390 OA
HETATM   15  H   UNK N   1      33.288  18.136   5.522  0.00  0.00     0.210 HD
ENDBRANCH   7  14
TORSDOF 4
ENDMDL
MODEL 6
REMARK VINA RESULT:      -4.8      9.188     10.951
REMARK  4 active torsions:
REMARK  status: ('A' for Active; 'I' for Inactive)
REMARK    1  A    between atoms: C_4  and  O_5 
REMARK    2  A    between atoms: C_6  and  O_7 
REMARK    3  A    between atoms: C_8  and  O_9 
REMARK    4  A    between atoms: C_10  and  O_11 
ROOT
HETATM    1  C   UNK N   1      22.965  13.923   7.599  0.00  0.00     0.042 C 
HETATM    2  C   UNK N   1      22.857  13.279   8.969  0.00  0.00     0.152 A 
HETATM    3  O   UNK N   1      24.089  12.924   9.588  0.00  0.00    -0.351 OA
HETATM    4  C   UNK N   1      23.980  12.322  10.870  0.00  0.00     0.288 A 
HETATM    5  C   UNK N   1      22.672  12.040  11.603  0.00  0.00     0.204 A 
HETATM    6  C   UNK N   1      21.386  12.413  10.952  0.00  0.00     0.182 A 
HETATM    7  C   UNK N   1      21.480  13.047   9.605  0.00  0.00     0.178 A 
ENDROOT
BRANCH   4   8
HETATM    8  O   UNK N   1      25.185  11.973  11.481  0.00  0.00    -0.369 OA
HETATM    9  H   UNK N   1      25.858  12.651  11.649  0.00  0.00     0.212 HD
ENDBRANCH   4   8
BRANCH   5  10
HETATM   10  O   UNK N   1      22.662  11.444  12.863  0.00  0.00    -0.388 OA
HETATM   11  H   UNK N   1      23.322  10.771  13.087  0.00  0.00     0.210 HD
ENDBRANCH   5  10
BRANCH   6  12
HETATM   12  O   UNK N   1      20.160  12.181  11.571  0.00  0.00    -0.390 OA
HETATM   13  H   UNK N   1      19.363  12.635  11.255  0.00  0.00     0.210 HD
ENDBRANCH   6  12
BRANCH   7  14
HETATM   14  O   UNK N   1      20.310  13.419   8.942  0.00  0.00    -0.390 OA
HETATM   15  H   UNK N   1      19.730  14.096   9.325  0.00  0.00     0.210 HD
ENDBRANCH   7  14
TORSDOF 4
ENDMDL
MODEL 7
REMARK VINA RESULT:      -4.7      1.844      4.140
REMARK  4 active torsions:
REMARK  status: ('A' for Active; 'I' for Inactive)
REMARK    1  A    between atoms: C_4  and  O_5 
REMARK    2  A    between atoms: C_6  and  O_7 
REMARK    3  A    between atoms: C_8  and  O_9 
REMARK    4  A    between atoms: C_10  and  O_11 
ROOT
HETATM    1  C   UNK N   1      24.273  20.555   3.149  0.00  0.00     0.042 C 
HETATM    2  C   UNK N   1      22.845  20.091   2.929  0.00  0.00     0.152 A 
HETATM    3  O   UNK N   1      22.127  20.757   1.894  0.00  0.00    -0.351 OA
HETATM    4  C   UNK N   1      20.792  20.318   1.694  0.00  0.00     0.288 A 
HETATM    5  C   UNK N   1      20.098  19.216   2.488  0.00  0.00     0.204 A 
HETATM    6  C   UNK N   1      20.851  18.523   3.568  0.00  0.00     0.182 A 
HETATM    7  C   UNK N   1      22.256  18.970   3.794  0.00  0.00     0.178 A 
ENDROOT
BRANCH   4   8
HETATM    8  O   UNK N   1      20.085  20.967   0.681  0.00  0.00    -0.369 OA
HETATM    9  H   UNK N   1      20.348  20.852  -0.245  0.00  0.00     0.212 HD
ENDBRANCH   4   8
BRANCH   5  10
HETATM   10  O   UNK N   1      18.780  18.851   2.221  0.00  0.00    -0.388 OA
HETATM   11  H   UNK N   1      18.577  18.288   1.458  0.00  0.00     0.210 HD
ENDBRANCH   5  10
BRANCH   6  12
HETATM   12  O   UNK N   1      20.272  17.509   4.328  0.00  0.00    -0.390 OA
HETATM   13  H   UNK N   1      19.656  16.883   3.913  0.00  0.00     0.210 HD
ENDBRANCH   6  12
BRANCH   7  14
HETATM   14  O   UNK N   1      23.015  18.359   4.793  0.00  0.00    -0.390 OA
HETATM   15  H   UNK N   1      23.984  18.376   4.746  0.00  0.00     0.210 HD
ENDBRANCH   7  14
TORSDOF 4
ENDMDL
MODEL 8
REMARK VINA RESULT:      -4.7     14.326     15.390
REMARK  4 active torsions:
REMARK  status: ('A' for Active; 'I' for Inactive)
REMARK    1  A    between atoms: C_4  and  O_5 
REMARK    2  A    between atoms: C_6  and  O_7 
REMARK    3  A    between atoms: C_8  and  O_9 
REMARK    4  A    between atoms: C_10  and  O_11 
ROOT
HETATM    1  C   UNK N   1      32.954  13.709   7.854  0.00  0.00     0.042 C 
HETATM    2  C   UNK N   1      33.540  15.095   8.046  0.00  0.00     0.152 A 
HETATM    3  O   UNK N   1      33.547  15.932   6.893  0.00  0.00    -0.351 OA
HETATM    4  C   UNK N   1      34.097  17.228   7.080  0.00  0.00     0.288 A 
HETATM    5  C   UNK N   1      34.663  17.765   8.391  0.00  0.00     0.204 A 
HETATM    6  C   UNK N   1      34.654  16.887   9.593  0.00  0.00     0.182 A 
HETATM    7  C   UNK N   1      34.080  15.521   9.417  0.00  0.00     0.178 A 
ENDROOT
BRANCH   4   8
HETATM    8  O   UNK N   1      34.106  18.052   5.954  0.00  0.00    -0.369 OA
HETATM    9  H   UNK N   1      33.298  18.519   5.689  0.00  0.00     0.212 HD
ENDBRANCH   4   8
BRANCH   5  10
HETATM   10  O   UNK N   1      35.184  19.054   8.481  0.00  0.00    -0.388 OA
HETATM   11  H   UNK N   1      35.477  19.517   7.681  0.00  0.00     0.210 HD
ENDBRANCH   5  10
BRANCH   6  12
HETATM   12  O   UNK N   1      35.156  17.321  10.818  0.00  0.00    -0.390 OA
HETATM   13  H   UNK N   1      34.602  17.275  11.614  0.00  0.00     0.210 HD
ENDBRANCH   6  12
BRANCH   7  14
HETATM   14  O   UNK N   1      34.043  14.650  10.507  0.00  0.00    -0.390 OA
HETATM   15  H   UNK N   1      33.200  14.460  10.948  0.00  0.00     0.210 HD
ENDBRANCH   7  14
TORSDOF 4
ENDMDL
MODEL 9
REMARK VINA RESULT:      -4.6     22.301     22.766
REMARK  4 active torsions:
REMARK  status: ('A' for Active; 'I' for Inactive)
REMARK    1  A    between atoms: C_4  and  O_5 
REMARK    2  A    between atoms: C_6  and  O_7 
REMARK    3  A    between atoms: C_8  and  O_9 
REMARK    4  A    between atoms: C_10  and  O_11 
ROOT
HETATM    1  C   UNK N   1      42.649  18.758   2.781  0.00  0.00     0.042 C 
HETATM    2  C   UNK N   1      43.011  20.222   2.944  0.00  0.00     0.152 A 
HETATM    3  O   UNK N   1      44.281  20.488   3.530  0.00  0.00    -0.351 OA
HETATM    4  C   UNK N   1      44.613  21.860   3.680  0.00  0.00     0.288 A 
HETATM    5  C   UNK N   1      43.727  23.032   3.266  0.00  0.00     0.204 A 
HETATM    6  C   UNK N   1      42.400  22.750   2.653  0.00  0.00     0.182 A 
HETATM    7  C   UNK N   1      42.033  21.313   2.488  0.00  0.00     0.178 A 
ENDROOT
BRANCH   4   8
HETATM    8  O   UNK N   1      45.856  22.126   4.254  0.00  0.00    -0.369 OA
HETATM    9  H   UNK N   1      46.347  22.923   4.001  0.00  0.00     0.212 HD
ENDBRANCH   4   8
BRANCH   5  10
HETATM   10  O   UNK N   1      44.136  24.350   3.452  0.00  0.00    -0.388 OA
HETATM   11  H   UNK N   1      45.009  24.637   3.140  0.00  0.00     0.210 HD
ENDBRANCH   5  10
BRANCH   6  12
HETATM   12  O   UNK N   1      41.547  23.777   2.255  0.00  0.00    -0.390 OA
HETATM   13  H   UNK N   1      40.744  23.572   1.750  0.00  0.00     0.210 HD
ENDBRANCH   6  12
BRANCH   7  14
HETATM   14  O   UNK N   1      40.802  20.984   1.919  0.00  0.00    -0.390 OA
HETATM   15  H   UNK N   1      40.254  20.289   2.317  0.00  0.00     0.210 HD
ENDBRANCH   7  14
TORSDOF 4
ENDMDL
