REMARK  1 active torsions:
REMARK  status: ('A' for Active; 'I' for Inactive)
REMARK    1  A    between atoms: C_2  and  C_3 
ROOT
HETATM    1  C   UNK N   1       1.860   0.344   0.001  0.00  0.00     0.215 C 
HETATM    2  N   UNK N   1       0.456   0.381  -0.002  0.00  0.00    -0.472 NA
HETATM    3  C   UNK N   1      -0.700   0.408   0.002  0.00  0.00     0.220 C 
ENDROOT
BRANCH   1   4
HETATM    4  C   UNK N   1       2.300  -1.101  -0.001  0.00  0.00     0.029 C 
HETATM    5  C   UNK N   1       3.808  -1.161   0.000  0.00  0.00     0.007 C 
ENDBRANCH   1   4
TORSDOF 1
