REMARK  8 active torsions:
REMARK  status: ('A' for Active; 'I' for Inactive)
REMARK    1  A    between atoms: C_28  and  C_5 
REMARK    2  A    between atoms: C_17  and  N_29 
REMARK    3  A    between atoms: O_30  and  C_18 
REMARK    4  A    between atoms: C_19  and  O_37 
REMARK    5  A    between atoms: C_20  and  O_37 
REMARK    6  A    between atoms: C_24  and  O_31 
REMARK    7  A    between atoms: O_33  and  C_26 
REMARK    8  A    between atoms: C_28  and  O_35 
ROOT
HETATM    1  C   UNK N   1      10.083   1.688   0.176  0.00  0.00     0.004 A 
HETATM    2  C   UNK N   1       8.901   1.031  -0.163  0.00  0.00     0.017 A 
HETATM    3  C   UNK N   1      10.071   3.058   0.434  0.00  0.00     0.037 A 
HETATM    4  C   UNK N   1       3.951   0.994  -0.626  0.00  0.00     0.024 A 
HETATM    5  C   UNK N   1       1.474   0.746  -0.518  0.00  0.00     0.077 C 
HETATM    6  C   UNK N   1       0.112   2.661   0.251  0.00  0.00     0.075 C 
HETATM    7  C   UNK N   1       2.717   1.586  -0.373  0.00  0.00    -0.043 A 
HETATM    8  C   UNK N   1       7.690   1.732  -0.225  0.00  0.00     0.032 A 
HETATM    9  C   UNK N   1       5.139   1.712  -0.457  0.00  0.00     0.032 A 
HETATM   10  C   UNK N   1       8.877   3.777   0.373  0.00  0.00     0.080 A 
HETATM   11  C   UNK N   1       1.355   3.488   0.598  0.00  0.00     0.163 C 
HETATM   12  C   UNK N   1       2.662   2.923   0.083  0.00  0.00     0.011 A 
HETATM   13  C   UNK N   1       7.666   3.117   0.058  0.00  0.00     0.062 A 
HETATM   14  C   UNK N   1       5.095   3.076  -0.099  0.00  0.00     0.063 A 
HETATM   15  C   UNK N   1       6.440   1.017  -0.567  0.00  0.00     0.194 C 
HETATM   16  C   UNK N   1       3.851   3.671   0.187  0.00  0.00     0.090 A 
HETATM   17  C   UNK N   1       6.366   3.836   0.052  0.00  0.00     0.199 C 
HETATM   18  C   UNK N   1       0.349   1.166   0.423  0.00  0.00     0.064 C 
HETATM   19  O   UNK N   1       6.474  -0.173  -0.856  0.00  0.00    -0.287 OA
HETATM   20  O   UNK N   1       6.338   5.049   0.218  0.00  0.00    -0.286 OA
ENDROOT
BRANCH  11  21
HETATM   21  O   UNK N   1       1.193   4.879   0.420  0.00  0.00    -0.351 OA
BRANCH  21  22
HETATM   22  C   UNK N   1       0.872   5.278  -0.898  0.00  0.00     0.263 C 
HETATM   23  C   UNK N   1       1.009   6.803  -0.961  0.00  0.00     0.099 C 
HETATM   24  C   UNK N   1      -0.003   7.437   0.019  0.00  0.00     0.257 C 
HETATM   25  C   UNK N   1      -1.421   6.932  -0.331  0.00  0.00     0.180 C 
HETATM   26  C   UNK N   1      -1.409   5.392  -0.345  0.00  0.00     0.151 C 
HETATM   27  C   UNK N   1      -2.775   4.849  -0.730  0.00  0.00     0.042 C 
HETATM   28  O   UNK N   1      -0.449   4.899  -1.271  0.00  0.00    -0.354 OA
BRANCH  24  29
HETATM   29  N   UNK N   1       0.079   8.911   0.071  0.00  0.00     0.087 N 
HETATM   30  C   UNK N   1      -0.038   9.528  -1.244  0.00  0.00     0.310 C 
HETATM   31  C   UNK N   1       1.366   9.318   0.623  0.00  0.00     0.310 C 
ENDBRANCH  24  29
BRANCH  25  32
HETATM   32  O   UNK N   1      -1.817   7.401  -1.588  0.00  0.00    -0.391 OA
HETATM   33  H   UNK N   1      -1.673   7.801  -2.460  0.00  0.00     0.210 HD
ENDBRANCH  25  32
ENDBRANCH  21  22
ENDBRANCH  11  21
BRANCH  18  34
HETATM   34  C   UNK N   1      -0.919   0.403   0.051  0.00  0.00     0.034 C 
HETATM   35  C   UNK N   1      -2.098   0.774   0.942  0.00  0.00     0.008 C 
ENDBRANCH  18  34
BRANCH  18  36
HETATM   36  O   UNK N   1       0.704   0.869   1.743  0.00  0.00    -0.389 OA
HETATM   37  H   UNK N   1       0.649   0.552   2.658  0.00  0.00     0.210 HD
ENDBRANCH  18  36
BRANCH  16  38
HETATM   38  O   UNK N   1       3.800   4.949   0.615  0.00  0.00    -0.359 OA
HETATM   39  H   UNK N   1       4.551   5.423   0.913  0.00  0.00     0.217 HD
ENDBRANCH  16  38
BRANCH  10  40
HETATM   40  O   UNK N   1       8.901   5.097   0.636  0.00  0.00    -0.360 OA
HETATM   41  H   UNK N   1       9.704   5.542   0.820  0.00  0.00     0.217 HD
ENDBRANCH  10  40
TORSDOF 8
