REMARK  8 active torsions:
REMARK  status: ('A' for Active; 'I' for Inactive)
REMARK    1  A    between atoms: C_17  and  C_14 
REMARK    2  A    between atoms: C_22  and  C_14 
REMARK    3  A    between atoms: C_18  and  C_15 
REMARK    4  A    between atoms: C_26  and  C_15 
REMARK    5  A    between atoms: C_23  and  C_19 
REMARK    6  A    between atoms: O_32  and  C_21 
REMARK    7  A    between atoms: C_26  and  O_35 
REMARK    8  A    between atoms: O_35  and  O_34 
ROOT
HETATM    1  C   UNK N   1       1.875  -0.114  -0.169  0.00  0.00     0.131 A 
HETATM    2  C   UNK N   1       1.689   2.831  -0.101  0.00  0.00     0.154 A 
HETATM    3  C   UNK N   1       3.000   0.619  -0.172  0.00  0.00     0.055 A 
HETATM    4  C   UNK N   1       0.494   1.920   0.003  0.00  0.00     0.112 A 
HETATM    5  C   UNK N   1      -0.587   0.021  -0.096  0.00  0.00     0.288 A 
HETATM    6  C   UNK N   1      -1.628   1.112   0.072  0.00  0.00     0.255 A 
HETATM    7  N   UNK N   1       2.923   2.051  -0.169  0.00  0.00    -0.376 N 
HETATM    8  N   UNK N   1      -0.738   2.285   0.091  0.00  0.00    -0.336 N 
ATOM      9  HN  UNK N   1      -1.054   3.252   0.163  1.00  0.00     0.164 HD
HETATM   10  N   UNK N   1       0.632   0.549  -0.099  0.00  0.00    -0.274 N 
HETATM   11  O   UNK N   1      -0.807  -1.178  -0.197  0.00  0.00    -0.267 OA
HETATM   12  H   UNK N   1       3.771   2.549  -0.215  0.00  0.00     0.160 HD
ENDROOT
BRANCH   6  13
HETATM   13  C   UNK N   1      -2.579   1.187  -1.141  0.00  0.00     0.113 C 
BRANCH  13  14
HETATM   14  C   UNK N   1      -4.010   1.452  -0.779  0.00  0.00    -0.053 A 
HETATM   15  C   UNK N   1      -4.408   2.671  -0.211  0.00  0.00     0.008 A 
HETATM   16  C   UNK N   1      -5.742   2.858   0.173  0.00  0.00     0.019 A 
HETATM   17  C   UNK N   1      -6.673   1.828  -0.005  0.00  0.00     0.006 A 
HETATM   18  C   UNK N   1      -6.276   0.619  -0.578  0.00  0.00     0.019 A 
HETATM   19  I   UNK N   1      -8.671   2.080   0.603  0.00  0.00    -0.045 I 
HETATM   20  C   UNK N   1      -4.948   0.433  -0.966  0.00  0.00     0.008 A 
ENDBRANCH  13  14
ENDBRANCH   6  13
BRANCH   6  21
HETATM   21  O   UNK N   1      -2.297   0.998   1.313  0.00  0.00    -0.199 OA
BRANCH  21  22
HETATM   22  O   UNK N   1      -2.873  -0.192   1.347  0.00  0.00    -0.247 OA
HETATM   23  H   UNK N   1      -3.840  -0.263   1.372  0.00  0.00     0.253 HD
ENDBRANCH  21  22
ENDBRANCH   6  21
BRANCH   2  24
HETATM   24  C   UNK N   1       1.794   3.849   1.038  0.00  0.00     0.071 C 
BRANCH  24  25
HETATM   25  C   UNK N   1       2.859   4.861   0.707  0.00  0.00    -0.056 A 
HETATM   26  C   UNK N   1       2.491   6.150   0.304  0.00  0.00     0.007 A 
HETATM   27  C   UNK N   1       3.470   7.070  -0.090  0.00  0.00     0.001 A 
HETATM   28  C   UNK N   1       4.819   6.703  -0.086  0.00  0.00     0.000 A 
HETATM   29  C   UNK N   1       5.192   5.420   0.321  0.00  0.00     0.001 A 
HETATM   30  C   UNK N   1       4.215   4.500   0.714  0.00  0.00     0.007 A 
ENDBRANCH  24  25
ENDBRANCH   2  24
BRANCH   3  31
HETATM   31  C   UNK N   1       4.326  -0.040  -0.161  0.00  0.00    -0.008 A 
HETATM   32  C   UNK N   1       4.442  -1.438  -0.247  0.00  0.00     0.016 A 
HETATM   33  C   UNK N   1       5.700  -2.046  -0.214  0.00  0.00     0.037 A 
HETATM   34  C   UNK N   1       6.850  -1.264  -0.084  0.00  0.00     0.065 A 
HETATM   35  C   UNK N   1       6.744   0.126   0.008  0.00  0.00     0.037 A 
HETATM   36  C   UNK N   1       5.488   0.736  -0.033  0.00  0.00     0.016 A 
BRANCH  34  37
HETATM   37  O   UNK N   1       8.058  -1.849  -0.047  0.00  0.00    -0.361 OA
HETATM   38  H   UNK N   1       8.126  -2.783  -0.022  0.00  0.00     0.217 HD
ENDBRANCH  34  37
ENDBRANCH   3  31
TORSDOF 8
