MODEL 1
REMARK VINA RESULT:      -5.1      0.000      0.000
REMARK  5 active torsions:
REMARK  status: ('A' for Active; 'I' for Inactive)
REMARK    1  A    between atoms: C_1  and  O_2 
REMARK    2  A    between atoms: C_3  and  O_4 
REMARK    3  A    between atoms: C_5  and  C_10 
REMARK    4  A    between atoms: C_6  and  O_7 
REMARK    5  A    between atoms: C_10  and  O_11 
ROOT
HETATM    1  C   UNK N   1      22.431  11.885  11.981  0.00  0.00     0.188 A 
HETATM    2  C   UNK N   1      23.732  12.296  11.363  0.00  0.00     0.180 A 
HETATM    3  C   UNK N   1      23.736  13.070  10.031  0.00  0.00     0.179 A 
HETATM    4  C   UNK N   1      21.324  13.031   9.950  0.00  0.00     0.294 A 
HETATM    5  O   UNK N   1      22.542  13.431   9.344  0.00  0.00    -0.348 OA
HETATM    6  C   UNK N   1      21.179  12.266  11.258  0.00  0.00     0.256 A 
HETATM    7  F   UNK N   1      19.935  11.929  11.757  0.00  0.00    -0.241 F 
ENDROOT
BRANCH   3   8
HETATM    8  C   UNK N   1      25.009  13.531   9.321  0.00  0.00     0.198 C 
BRANCH   8   9
HETATM    9  O   UNK N   1      26.003  13.932  10.212  0.00  0.00    -0.398 OA
HETATM   10  H   UNK N   1      26.714  14.521   9.912  0.00  0.00     0.209 HD
ENDBRANCH   8   9
ENDBRANCH   3   8
BRANCH   2  11
HETATM   11  O   UNK N   1      24.923  11.958  12.010  0.00  0.00    -0.390 OA
HETATM   12  H   UNK N   1      25.515  12.656  12.331  0.00  0.00     0.210 HD
ENDBRANCH   2  11
BRANCH   1  13
HETATM   13  O   UNK N   1      22.383  11.184  13.185  0.00  0.00    -0.390 OA
HETATM   14  H   UNK N   1      21.712  10.497  13.320  0.00  0.00     0.210 HD
ENDBRANCH   1  13
BRANCH   4  15
HETATM   15  O   UNK N   1      20.166  13.394   9.262  0.00  0.00    -0.368 OA
HETATM   16  H   UNK N   1      19.645  12.719   8.798  0.00  0.00     0.212 HD
ENDBRANCH   4  15
TORSDOF 5
ENDMDL
MODEL 2
REMARK VINA RESULT:      -4.9      0.741      2.928
REMARK  5 active torsions:
REMARK  status: ('A' for Active; 'I' for Inactive)
REMARK    1  A    between atoms: C_1  and  O_2 
REMARK    2  A    between atoms: C_3  and  O_4 
REMARK    3  A    between atoms: C_5  and  C_10 
REMARK    4  A    between atoms: C_6  and  O_7 
REMARK    5  A    between atoms: C_10  and  O_11 
ROOT
HETATM    1  C   UNK N   1      21.021  13.147  10.157  0.00  0.00     0.188 A 
HETATM    2  C   UNK N   1      22.334  13.479   9.517  0.00  0.00     0.180 A 
HETATM    3  C   UNK N   1      23.645  12.982  10.156  0.00  0.00     0.179 A 
HETATM    4  C   UNK N   1      22.420  11.898  11.932  0.00  0.00     0.294 A 
HETATM    5  O   UNK N   1      23.675  12.200  11.346  0.00  0.00    -0.348 OA
HETATM    6  C   UNK N   1      21.056  12.323  11.405  0.00  0.00     0.256 A 
HETATM    7  F   UNK N   1      19.893  11.969  12.061  0.00  0.00    -0.241 F 
ENDROOT
BRANCH   3   8
HETATM    8  C   UNK N   1      25.032  13.270   9.582  0.00  0.00     0.198 C 
BRANCH   8   9
HETATM    9  O   UNK N   1      25.917  13.761  10.541  0.00  0.00    -0.398 OA
HETATM   10  H   UNK N   1      26.069  14.716  10.616  0.00  0.00     0.209 HD
ENDBRANCH   8   9
ENDBRANCH   3   8
BRANCH   2  11
HETATM   11  O   UNK N   1      22.340  14.245   8.350  0.00  0.00    -0.390 OA
HETATM   12  H   UNK N   1      23.029  14.914   8.212  0.00  0.00     0.210 HD
ENDBRANCH   2  11
BRANCH   1  13
HETATM   13  O   UNK N   1      19.812  13.576   9.612  0.00  0.00    -0.390 OA
HETATM   14  H   UNK N   1      19.738  13.732   8.657  0.00  0.00     0.210 HD
ENDBRANCH   1  13
BRANCH   4  15
HETATM   15  O   UNK N   1      22.472  11.131  13.096  0.00  0.00    -0.368 OA
HETATM   16  H   UNK N   1      22.989  10.310  13.114  0.00  0.00     0.212 HD
ENDBRANCH   4  15
TORSDOF 5
ENDMDL
MODEL 3
REMARK VINA RESULT:      -4.9      8.986     10.576
REMARK  5 active torsions:
REMARK  status: ('A' for Active; 'I' for Inactive)
REMARK    1  A    between atoms: C_1  and  O_2 
REMARK    2  A    between atoms: C_3  and  O_4 
REMARK    3  A    between atoms: C_5  and  C_10 
REMARK    4  A    between atoms: C_6  and  O_7 
REMARK    5  A    between atoms: C_10  and  O_11 
ROOT
HETATM    1  C   UNK N   1      19.910  17.657   3.717  0.00  0.00     0.188 A 
HETATM    2  C   UNK N   1      19.604  18.750   2.741  0.00  0.00     0.180 A 
HETATM    3  C   UNK N   1      20.707  19.745   2.333  0.00  0.00     0.179 A 
HETATM    4  C   UNK N   1      22.301  18.630   3.762  0.00  0.00     0.294 A 
HETATM    5  O   UNK N   1      22.036  19.674   2.840  0.00  0.00    -0.348 OA
HETATM    6  C   UNK N   1      21.307  17.584   4.246  0.00  0.00     0.256 A 
HETATM    7  F   UNK N   1      21.679  16.607   5.150  0.00  0.00    -0.241 F 
ENDROOT
BRANCH   3   8
HETATM    8  C   UNK N   1      20.493  20.894   1.348  0.00  0.00     0.198 C 
BRANCH   8   9
HETATM    9  O   UNK N   1      20.605  20.487   0.019  0.00  0.00    -0.398 OA
HETATM   10  H   UNK N   1      21.397  20.010  -0.276  0.00  0.00     0.209 HD
ENDBRANCH   8   9
ENDBRANCH   3   8
BRANCH   2  11
HETATM   11  O   UNK N   1      18.310  18.849   2.223  0.00  0.00    -0.390 OA
HETATM   12  H   UNK N   1      17.872  18.063   1.860  0.00  0.00     0.210 HD
ENDBRANCH   2  11
BRANCH   1  13
HETATM   13  O   UNK N   1      18.941  16.736   4.112  0.00  0.00    -0.390 OA
HETATM   14  H   UNK N   1      18.028  17.026   4.261  0.00  0.00     0.210 HD
ENDBRANCH   1  13
BRANCH   4  15
HETATM   15  O   UNK N   1      23.608  18.577   4.247  0.00  0.00    -0.368 OA
HETATM   16  H   UNK N   1      24.356  18.600   3.630  0.00  0.00     0.212 HD
ENDBRANCH   4  15
TORSDOF 5
ENDMDL
MODEL 4
REMARK VINA RESULT:      -4.9      8.906     10.474
REMARK  5 active torsions:
REMARK  status: ('A' for Active; 'I' for Inactive)
REMARK    1  A    between atoms: C_1  and  O_2 
REMARK    2  A    between atoms: C_3  and  O_4 
REMARK    3  A    between atoms: C_5  and  C_10 
REMARK    4  A    between atoms: C_6  and  O_7 
REMARK    5  A    between atoms: C_10  and  O_11 
ROOT
HETATM    1  C   UNK N   1      19.895  18.382   2.341  0.00  0.00     0.188 A 
HETATM    2  C   UNK N   1      20.012  17.810   3.720  0.00  0.00     0.180 A 
HETATM    3  C   UNK N   1      21.054  18.380   4.701  0.00  0.00     0.179 A 
HETATM    4  C   UNK N   1      21.797  19.978   3.050  0.00  0.00     0.294 A 
HETATM    5  O   UNK N   1      21.927  19.453   4.360  0.00  0.00    -0.348 OA
HETATM    6  C   UNK N   1      20.812  19.509   1.987  0.00  0.00     0.256 A 
HETATM    7  F   UNK N   1      20.773  20.097   0.738  0.00  0.00    -0.241 F 
ENDROOT
BRANCH   3   8
HETATM    8  C   UNK N   1      21.251  17.864   6.126  0.00  0.00     0.198 C 
BRANCH   8   9
HETATM    9  O   UNK N   1      20.938  18.821   7.090  0.00  0.00    -0.398 OA
HETATM   10  H   UNK N   1      21.083  19.762   6.903  0.00  0.00     0.209 HD
ENDBRANCH   8   9
ENDBRANCH   3   8
BRANCH   2  11
HETATM   11  O   UNK N   1      19.170  16.757   4.086  0.00  0.00    -0.390 OA
HETATM   12  H   UNK N   1      19.250  15.896   3.645  0.00  0.00     0.210 HD
ENDBRANCH   2  11
BRANCH   1  13
HETATM   13  O   UNK N   1      18.966  17.895   1.423  0.00  0.00    -0.390 OA
HETATM   14  H   UNK N   1      18.166  17.445   1.735  0.00  0.00     0.210 HD
ENDBRANCH   1  13
BRANCH   4  15
HETATM   15  O   UNK N   1      22.661  21.027   2.737  0.00  0.00    -0.368 OA
HETATM   16  H   UNK N   1      22.302  21.897   2.500  0.00  0.00     0.212 HD
ENDBRANCH   4  15
TORSDOF 5
ENDMDL
MODEL 5
REMARK VINA RESULT:      -4.8     11.747     12.672
REMARK  5 active torsions:
REMARK  status: ('A' for Active; 'I' for Inactive)
REMARK    1  A    between atoms: C_1  and  O_2 
REMARK    2  A    between atoms: C_3  and  O_4 
REMARK    3  A    between atoms: C_5  and  C_10 
REMARK    4  A    between atoms: C_6  and  O_7 
REMARK    5  A    between atoms: C_10  and  O_11 
ROOT
HETATM    1  C   UNK N   1      34.495  17.791   8.166  0.00  0.00     0.188 A 
HETATM    2  C   UNK N   1      34.552  16.836   9.318  0.00  0.00     0.180 A 
HETATM    3  C   UNK N   1      34.093  15.378   9.128  0.00  0.00     0.179 A 
HETATM    4  C   UNK N   1      33.572  15.799   6.808  0.00  0.00     0.294 A 
HETATM    5  O   UNK N   1      33.615  14.876   7.883  0.00  0.00    -0.348 OA
HETATM    6  C   UNK N   1      33.995  17.261   6.861  0.00  0.00     0.256 A 
HETATM    7  F   UNK N   1      33.910  18.072   5.745  0.00  0.00    -0.241 F 
ENDROOT
BRANCH   3   8
HETATM    8  C   UNK N   1      34.110  14.330  10.240  0.00  0.00     0.198 C 
BRANCH   8   9
HETATM    9  O   UNK N   1      33.596  14.817  11.441  0.00  0.00    -0.398 OA
HETATM   10  H   UNK N   1      32.935  14.301  11.930  0.00  0.00     0.209 HD
ENDBRANCH   8   9
ENDBRANCH   3   8
BRANCH   2  11
HETATM   11  O   UNK N   1      35.015  17.296  10.553  0.00  0.00    -0.390 OA
HETATM   12  H   UNK N   1      35.151  18.246  10.697  0.00  0.00     0.210 HD
ENDBRANCH   2  11
BRANCH   1  13
HETATM   13  O   UNK N   1      34.901  19.119   8.297  0.00  0.00    -0.390 OA
HETATM   14  H   UNK N   1      34.911  19.540   9.170  0.00  0.00     0.210 HD
ENDBRANCH   1  13
BRANCH   4  15
HETATM   15  O   UNK N   1      33.101  15.288   5.599  0.00  0.00    -0.368 OA
HETATM   16  H   UNK N   1      33.027  14.329   5.473  0.00  0.00     0.212 HD
ENDBRANCH   4  15
TORSDOF 5
ENDMDL
MODEL 6
REMARK VINA RESULT:      -4.8      1.677      3.157
REMARK  5 active torsions:
REMARK  status: ('A' for Active; 'I' for Inactive)
REMARK    1  A    between atoms: C_1  and  O_2 
REMARK    2  A    between atoms: C_3  and  O_4 
REMARK    3  A    between atoms: C_5  and  C_10 
REMARK    4  A    between atoms: C_6  and  O_7 
REMARK    5  A    between atoms: C_10  and  O_11 
ROOT
HETATM    1  C   UNK N   1      23.812  12.458  10.931  0.00  0.00     0.188 A 
HETATM    2  C   UNK N   1      23.483  12.933   9.549  0.00  0.00     0.180 A 
HETATM    3  C   UNK N   1      22.015  12.971   9.082  0.00  0.00     0.179 A 
HETATM    4  C   UNK N   1      21.267  12.133  11.219  0.00  0.00     0.294 A 
HETATM    5  O   UNK N   1      20.930  12.578   9.916  0.00  0.00    -0.348 OA
HETATM    6  C   UNK N   1      22.670  12.047  11.804  0.00  0.00     0.256 A 
HETATM    7  F   UNK N   1      22.882  11.597  13.094  0.00  0.00    -0.241 F 
ENDROOT
BRANCH   3   8
HETATM    8  C   UNK N   1      21.578  13.437   7.694  0.00  0.00     0.198 C 
BRANCH   8   9
HETATM    9  O   UNK N   1      20.257  13.884   7.670  0.00  0.00    -0.398 OA
HETATM   10  H   UNK N   1      19.908  14.320   6.877  0.00  0.00     0.209 HD
ENDBRANCH   8   9
ENDBRANCH   3   8
BRANCH   2  11
HETATM   11  O   UNK N   1      24.524  13.327   8.705  0.00  0.00    -0.390 OA
HETATM   12  H   UNK N   1      24.411  14.093   8.121  0.00  0.00     0.210 HD
ENDBRANCH   2  11
BRANCH   1  13
HETATM   13  O   UNK N   1      25.127  12.408  11.393  0.00  0.00    -0.390 OA
HETATM   14  H   UNK N   1      25.534  11.555  11.606  0.00  0.00     0.210 HD
ENDBRANCH   1  13
BRANCH   4  15
HETATM   15  O   UNK N   1      20.190  11.752  12.020  0.00  0.00    -0.368 OA
HETATM   16  H   UNK N   1      19.925  12.305  12.771  0.00  0.00     0.212 HD
ENDBRANCH   4  15
TORSDOF 5
ENDMDL
MODEL 7
REMARK VINA RESULT:      -4.7     11.130     12.472
REMARK  5 active torsions:
REMARK  status: ('A' for Active; 'I' for Inactive)
REMARK    1  A    between atoms: C_1  and  O_2 
REMARK    2  A    between atoms: C_3  and  O_4 
REMARK    3  A    between atoms: C_5  and  C_10 
REMARK    4  A    between atoms: C_6  and  O_7 
REMARK    5  A    between atoms: C_10  and  O_11 
ROOT
HETATM    1  C   UNK N   1      33.021  16.114   8.039  0.00  0.00     0.188 A 
HETATM    2  C   UNK N   1      33.487  15.388   9.263  0.00  0.00     0.180 A 
HETATM    3  C   UNK N   1      34.578  16.011  10.154  0.00  0.00     0.179 A 
HETATM    4  C   UNK N   1      34.718  17.941   8.711  0.00  0.00     0.294 A 
HETATM    5  O   UNK N   1      35.176  17.273   9.874  0.00  0.00    -0.348 OA
HETATM    6  C   UNK N   1      33.649  17.440   7.749  0.00  0.00     0.256 A 
HETATM    7  F   UNK N   1      33.279  18.179   6.642  0.00  0.00    -0.241 F 
ENDROOT
BRANCH   3   8
HETATM    8  C   UNK N   1      35.121  15.348  11.420  0.00  0.00     0.198 C 
BRANCH   8   9
HETATM    9  O   UNK N   1      34.275  14.353  11.908  0.00  0.00    -0.398 OA
HETATM   10  H   UNK N   1      33.419  14.593  12.296  0.00  0.00     0.209 HD
ENDBRANCH   8   9
ENDBRANCH   3   8
BRANCH   2  11
HETATM   11  O   UNK N   1      32.921  14.148   9.567  0.00  0.00    -0.390 OA
HETATM   12  H   UNK N   1      32.128  13.848   9.097  0.00  0.00     0.210 HD
ENDBRANCH   2  11
BRANCH   1  13
HETATM   13  O   UNK N   1      32.035  15.587   7.206  0.00  0.00    -0.390 OA
HETATM   14  H   UNK N   1      31.143  15.966   7.209  0.00  0.00     0.210 HD
ENDBRANCH   1  13
BRANCH   4  15
HETATM   15  O   UNK N   1      35.315  19.175   8.454  0.00  0.00    -0.368 OA
HETATM   16  H   UNK N   1      35.732  19.343   7.594  0.00  0.00     0.212 HD
ENDBRANCH   4  15
TORSDOF 5
ENDMDL
MODEL 8
REMARK VINA RESULT:      -4.7     11.762     13.297
REMARK  5 active torsions:
REMARK  status: ('A' for Active; 'I' for Inactive)
REMARK    1  A    between atoms: C_1  and  O_2 
REMARK    2  A    between atoms: C_3  and  O_4 
REMARK    3  A    between atoms: C_5  and  C_10 
REMARK    4  A    between atoms: C_6  and  O_7 
REMARK    5  A    between atoms: C_10  and  O_11 
ROOT
HETATM    1  C   UNK N   1      35.048  13.981  11.822  0.00  0.00     0.188 A 
HETATM    2  C   UNK N   1      34.269  14.860  10.893  0.00  0.00     0.180 A 
HETATM    3  C   UNK N   1      34.989  15.581   9.737  0.00  0.00     0.179 A 
HETATM    4  C   UNK N   1      37.100  14.608  10.386  0.00  0.00     0.294 A 
HETATM    5  O   UNK N   1      36.386  15.446   9.494  0.00  0.00    -0.348 OA
HETATM    6  C   UNK N   1      36.514  13.840  11.563  0.00  0.00     0.256 A 
HETATM    7  F   UNK N   1      37.309  13.048  12.370  0.00  0.00    -0.241 F 
ENDROOT
BRANCH   3   8
HETATM    8  C   UNK N   1      34.284  16.499   8.739  0.00  0.00     0.198 C 
BRANCH   8   9
HETATM    9  O   UNK N   1      33.198  17.168   9.303  0.00  0.00    -0.398 OA
HETATM   10  H   UNK N   1      33.196  17.376  10.251  0.00  0.00     0.209 HD
ENDBRANCH   8   9
ENDBRANCH   3   8
BRANCH   2  11
HETATM   11  O   UNK N   1      32.897  15.014  11.102  0.00  0.00    -0.390 OA
HETATM   12  H   UNK N   1      32.280  14.331  10.797  0.00  0.00     0.210 HD
ENDBRANCH   2  11
BRANCH   1  13
HETATM   13  O   UNK N   1      34.436  13.310  12.880  0.00  0.00    -0.390 OA
HETATM   14  H   UNK N   1      34.847  13.311  13.758  0.00  0.00     0.210 HD
ENDBRANCH   1  13
BRANCH   4  15
HETATM   15  O   UNK N   1      38.467  14.489  10.132  0.00  0.00    -0.368 OA
HETATM   16  H   UNK N   1      38.819  14.718   9.258  0.00  0.00     0.212 HD
ENDBRANCH   4  15
TORSDOF 5
ENDMDL
MODEL 9
REMARK VINA RESULT:      -4.6     23.171     24.241
REMARK  5 active torsions:
REMARK  status: ('A' for Active; 'I' for Inactive)
REMARK    1  A    between atoms: C_1  and  O_2 
REMARK    2  A    between atoms: C_3  and  O_4 
REMARK    3  A    between atoms: C_5  and  C_10 
REMARK    4  A    between atoms: C_6  and  O_7 
REMARK    5  A    between atoms: C_10  and  O_11 
ROOT
HETATM    1  C   UNK N   1      44.787  21.833   3.671  0.00  0.00     0.188 A 
HETATM    2  C   UNK N   1      43.587  22.638   3.275  0.00  0.00     0.180 A 
HETATM    3  C   UNK N   1      42.441  21.971   2.491  0.00  0.00     0.179 A 
HETATM    4  C   UNK N   1      43.603  19.855   2.509  0.00  0.00     0.294 A 
HETATM    5  O   UNK N   1      42.458  20.595   2.122  0.00  0.00    -0.348 OA
HETATM    6  C   UNK N   1      44.800  20.389   3.283  0.00  0.00     0.256 A 
HETATM    7  F   UNK N   1      45.866  19.571   3.609  0.00  0.00    -0.241 F 
ENDROOT
BRANCH   3   8
HETATM    8  C   UNK N   1      41.180  22.706   2.040  0.00  0.00     0.198 C 
BRANCH   8   9
HETATM    9  O   UNK N   1      41.371  24.084   1.941  0.00  0.00    -0.398 OA
HETATM   10  H   UNK N   1      40.739  24.692   2.357  0.00  0.00     0.209 HD
ENDBRANCH   8   9
ENDBRANCH   3   8
BRANCH   2  11
HETATM   11  O   UNK N   1      43.539  23.991   3.621  0.00  0.00    -0.390 OA
HETATM   12  H   UNK N   1      44.302  24.409   4.050  0.00  0.00     0.210 HD
ENDBRANCH   2  11
BRANCH   1  13
HETATM   13  O   UNK N   1      45.845  22.398   4.380  0.00  0.00    -0.390 OA
HETATM   14  H   UNK N   1      46.363  21.855   4.994  0.00  0.00     0.210 HD
ENDBRANCH   1  13
BRANCH   4  15
HETATM   15  O   UNK N   1      43.600  18.510   2.138  0.00  0.00    -0.368 OA
HETATM   16  H   UNK N   1      44.434  18.018   2.088  0.00  0.00     0.212 HD
ENDBRANCH   4  15
TORSDOF 5
ENDMDL
