MODEL 1
REMARK VINA RESULT:      -6.1      0.000      0.000
REMARK  6 active torsions:
REMARK  status: ('A' for Active; 'I' for Inactive)
REMARK    1  A    between atoms: C_4  and  C_1 
REMARK    2  A    between atoms: O_20  and  C_1 
REMARK    3  A    between atoms: C_5  and  N_11 
REMARK    4  A    between atoms: C_7  and  O_21 
REMARK    5  A    between atoms: N_12  and  C_8 
REMARK    6  A    between atoms: C_10  and  N_19 
ROOT
HETATM    1  C   UNK N   1      32.504  14.206   8.905  0.00  0.00     0.183 A 
HETATM    2  C   UNK N   1      35.609  16.691  10.852  0.00  0.00     0.188 A 
HETATM    3  C   UNK N   1      34.088  16.370   9.383  0.00  0.00     0.122 A 
HETATM    4  C   UNK N   1      33.175  16.423   8.339  0.00  0.00     0.131 A 
HETATM    5  C   UNK N   1      34.189  15.256  10.134  0.00  0.00     0.142 A 
HETATM    6  N   UNK N   1      32.388  15.329   8.120  0.00  0.00    -0.337 N 
ATOM      7  HN  UNK N   1      31.704  15.344   7.363  1.00  0.00     0.168 HD
HETATM    8  N   UNK N   1      33.422  14.163   9.920  0.00  0.00    -0.336 N 
ATOM      9  HN  UNK N   1      33.524  13.328  10.499  1.00  0.00     0.168 HD
HETATM   10  N   UNK N   1      34.967  17.293   9.809  0.00  0.00    -0.346 N 
ATOM     11  HN  UNK N   1      35.121  18.230   9.437  1.00  0.00     0.167 HD
HETATM   12  N   UNK N   1      35.141  15.432  11.063  0.00  0.00    -0.298 N 
ENDROOT
BRANCH  12  13
HETATM   13  C   UNK N   1      35.635  14.468  12.056  0.00  0.00     0.255 C 
HETATM   14  C   UNK N   1      36.507  13.364  11.456  0.00  0.00     0.155 C 
HETATM   15  C   UNK N   1      36.463  12.385  12.594  0.00  0.00     0.175 C 
HETATM   16  C   UNK N   1      34.964  12.459  12.888  0.00  0.00     0.178 C 
HETATM   17  O   UNK N   1      34.563  13.811  12.718  0.00  0.00    -0.354 OA
BRANCH  14  18
HETATM   18  N   UNK N   1      37.865  13.789  11.152  0.00  0.00    -0.420 N 
HETATM   19  H   UNK N   1      38.596  13.111  10.934  0.00  0.00     0.150 HD
HETATM   20  H   UNK N   1      38.091  14.784  11.156  0.00  0.00     0.150 HD
ENDBRANCH  14  18
BRANCH  15  21
HETATM   21  O   UNK N   1      37.198  12.877  13.684  0.00  0.00    -0.391 OA
HETATM   22  H   UNK N   1      37.956  13.145  14.227  0.00  0.00     0.210 HD
ENDBRANCH  15  21
BRANCH  16  23
HETATM   23  C   UNK N   1      34.613  11.967  14.290  0.00  0.00     0.198 C 
BRANCH  23  24
HETATM   24  O   UNK N   1      34.519  13.037  15.182  0.00  0.00    -0.398 OA
HETATM   25  H   UNK N   1      35.258  13.345  15.730  0.00  0.00     0.209 HD
ENDBRANCH  23  24
ENDBRANCH  16  23
ENDBRANCH  12  13
BRANCH   4  26
HETATM   26  N   UNK N   1      33.062  17.564   7.520  0.00  0.00    -0.383 N 
HETATM   27  H   UNK N   1      32.214  17.815   7.088  0.00  0.00     0.157 HD
HETATM   28  H   UNK N   1      33.856  18.127   7.376  0.00  0.00     0.157 HD
ENDBRANCH   4  26
TORSDOF 6
ENDMDL
MODEL 2
REMARK VINA RESULT:      -6.0      3.327      5.234
REMARK  6 active torsions:
REMARK  status: ('A' for Active; 'I' for Inactive)
REMARK    1  A    between atoms: C_4  and  C_1 
REMARK    2  A    between atoms: O_20  and  C_1 
REMARK    3  A    between atoms: C_5  and  N_11 
REMARK    4  A    between atoms: C_7  and  O_21 
REMARK    5  A    between atoms: N_12  and  C_8 
REMARK    6  A    between atoms: C_10  and  N_19 
ROOT
HETATM    1  C   UNK N   1      28.601  18.203   9.412  0.00  0.00     0.183 A 
HETATM    2  C   UNK N   1      31.764  16.961   6.575  0.00  0.00     0.188 A 
HETATM    3  C   UNK N   1      29.767  17.574   7.033  0.00  0.00     0.122 A 
HETATM    4  C   UNK N   1      28.427  17.936   7.050  0.00  0.00     0.131 A 
HETATM    5  C   UNK N   1      30.467  17.528   8.183  0.00  0.00     0.142 A 
HETATM    6  N   UNK N   1      27.864  18.251   8.253  0.00  0.00    -0.337 N 
ATOM      7  HN  UNK N   1      26.882  18.526   8.292  1.00  0.00     0.168 HD
HETATM    8  N   UNK N   1      29.917  17.828   9.382  0.00  0.00    -0.336 N 
ATOM      9  HN  UNK N   1      30.467  17.778  10.240  1.00  0.00     0.168 HD
HETATM   10  N   UNK N   1      30.554  17.225   6.002  0.00  0.00    -0.346 N 
ATOM     11  HN  UNK N   1      30.305  17.168   5.014  1.00  0.00     0.167 HD
HETATM   12  N   UNK N   1      31.725  17.142   7.922  0.00  0.00    -0.298 N 
ENDROOT
BRANCH  12  13
HETATM   13  C   UNK N   1      32.818  16.895   8.872  0.00  0.00     0.255 C 
HETATM   14  C   UNK N   1      34.197  17.280   8.334  0.00  0.00     0.155 C 
HETATM   15  C   UNK N   1      35.050  16.531   9.316  0.00  0.00     0.175 C 
HETATM   16  C   UNK N   1      34.282  15.209   9.310  0.00  0.00     0.178 C 
HETATM   17  O   UNK N   1      32.899  15.521   9.224  0.00  0.00    -0.354 OA
BRANCH  14  18
HETATM   18  N   UNK N   1      34.459  18.711   8.361  0.00  0.00    -0.420 N 
HETATM   19  H   UNK N   1      33.699  19.388   8.424  0.00  0.00     0.150 HD
HETATM   20  H   UNK N   1      35.423  19.044   8.315  0.00  0.00     0.150 HD
ENDBRANCH  14  18
BRANCH  15  21
HETATM   21  O   UNK N   1      34.974  17.133  10.582  0.00  0.00    -0.391 OA
HETATM   22  H   UNK N   1      35.112  17.774  11.298  0.00  0.00     0.210 HD
ENDBRANCH  15  21
BRANCH  16  23
HETATM   23  C   UNK N   1      34.564  14.357  10.545  0.00  0.00     0.198 C 
BRANCH  23  24
HETATM   24  O   UNK N   1      33.690  14.684  11.583  0.00  0.00    -0.398 OA
HETATM   25  H   UNK N   1      33.167  15.501  11.606  0.00  0.00     0.209 HD
ENDBRANCH  23  24
ENDBRANCH  16  23
ENDBRANCH  12  13
BRANCH   4  26
HETATM   26  N   UNK N   1      27.662  17.970   5.866  0.00  0.00    -0.383 N 
HETATM   27  H   UNK N   1      28.075  18.089   4.981  0.00  0.00     0.157 HD
HETATM   28  H   UNK N   1      26.685  17.872   5.928  0.00  0.00     0.157 HD
ENDBRANCH   4  26
TORSDOF 6
ENDMDL
MODEL 3
REMARK VINA RESULT:      -5.5      4.186      6.055
REMARK  6 active torsions:
REMARK  status: ('A' for Active; 'I' for Inactive)
REMARK    1  A    between atoms: C_4  and  C_1 
REMARK    2  A    between atoms: O_20  and  C_1 
REMARK    3  A    between atoms: C_5  and  N_11 
REMARK    4  A    between atoms: C_7  and  O_21 
REMARK    5  A    between atoms: N_12  and  C_8 
REMARK    6  A    between atoms: C_10  and  N_19 
ROOT
HETATM    1  C   UNK N   1      29.020  18.291   9.540  0.00  0.00     0.183 A 
HETATM    2  C   UNK N   1      30.660  17.100   5.604  0.00  0.00     0.188 A 
HETATM    3  C   UNK N   1      29.141  17.959   6.840  0.00  0.00     0.122 A 
HETATM    4  C   UNK N   1      28.013  18.547   7.395  0.00  0.00     0.131 A 
HETATM    5  C   UNK N   1      30.149  17.553   7.635  0.00  0.00     0.142 A 
HETATM    6  N   UNK N   1      27.975  18.708   8.750  0.00  0.00    -0.337 N 
ATOM      7  HN  UNK N   1      27.160  19.142   9.183  1.00  0.00     0.168 HD
HETATM    8  N   UNK N   1      30.118  17.697   8.980  0.00  0.00    -0.336 N 
ATOM      9  HN  UNK N   1      30.892  17.373   9.560  1.00  0.00     0.168 HD
HETATM   10  N   UNK N   1      29.431  17.690   5.556  0.00  0.00    -0.346 N 
ATOM     11  HN  UNK N   1      28.862  17.883   4.731  1.00  0.00     0.167 HD
HETATM   12  N   UNK N   1      31.115  17.006   6.882  0.00  0.00    -0.298 N 
ENDROOT
BRANCH  12  13
HETATM   13  C   UNK N   1      32.367  16.375   7.323  0.00  0.00     0.255 C 
HETATM   14  C   UNK N   1      32.171  14.991   7.943  0.00  0.00     0.155 C 
HETATM   15  C   UNK N   1      33.496  14.853   8.635  0.00  0.00     0.175 C 
HETATM   16  C   UNK N   1      33.568  16.250   9.252  0.00  0.00     0.178 C 
HETATM   17  O   UNK N   1      33.025  17.161   8.307  0.00  0.00    -0.354 OA
BRANCH  14  18
HETATM   18  N   UNK N   1      31.950  13.936   6.967  0.00  0.00    -0.420 N 
HETATM   19  H   UNK N   1      32.685  13.651   6.319  0.00  0.00     0.150 HD
HETATM   20  H   UNK N   1      31.042  13.470   6.930  0.00  0.00     0.150 HD
ENDBRANCH  14  18
BRANCH  15  21
HETATM   21  O   UNK N   1      34.520  14.684   7.689  0.00  0.00    -0.391 OA
HETATM   22  H   UNK N   1      35.083  14.266   7.019  0.00  0.00     0.210 HD
ENDBRANCH  15  21
BRANCH  16  23
HETATM   23  C   UNK N   1      34.990  16.655   9.632  0.00  0.00     0.198 C 
BRANCH  23  24
HETATM   24  O   UNK N   1      35.047  17.069  10.965  0.00  0.00    -0.398 OA
HETATM   25  H   UNK N   1      35.204  17.987  11.234  0.00  0.00     0.209 HD
ENDBRANCH  23  24
ENDBRANCH  16  23
ENDBRANCH  12  13
BRANCH   4  26
HETATM   26  N   UNK N   1      26.931  18.961   6.592  0.00  0.00    -0.383 N 
HETATM   27  H   UNK N   1      27.043  19.181   5.639  0.00  0.00     0.157 HD
HETATM   28  H   UNK N   1      26.037  19.032   6.996  0.00  0.00     0.157 HD
ENDBRANCH   4  26
TORSDOF 6
ENDMDL
MODEL 4
REMARK VINA RESULT:      -5.4      2.722      5.921
REMARK  6 active torsions:
REMARK  status: ('A' for Active; 'I' for Inactive)
REMARK    1  A    between atoms: C_4  and  C_1 
REMARK    2  A    between atoms: O_20  and  C_1 
REMARK    3  A    between atoms: C_5  and  N_11 
REMARK    4  A    between atoms: C_7  and  O_21 
REMARK    5  A    between atoms: N_12  and  C_8 
REMARK    6  A    between atoms: C_10  and  N_19 
ROOT
HETATM    1  C   UNK N   1      34.658  12.371  13.482  0.00  0.00     0.183 A 
HETATM    2  C   UNK N   1      37.078  14.463  10.420  0.00  0.00     0.188 A 
HETATM    3  C   UNK N   1      36.862  13.110  12.062  0.00  0.00     0.122 A 
HETATM    4  C   UNK N   1      37.006  12.205  13.105  0.00  0.00     0.131 A 
HETATM    5  C   UNK N   1      35.648  13.616  11.772  0.00  0.00     0.142 A 
HETATM    6  N   UNK N   1      35.888  11.846  13.800  0.00  0.00    -0.337 N 
ATOM      7  HN  UNK N   1      35.965  11.178  14.568  1.00  0.00     0.168 HD
HETATM    8  N   UNK N   1      34.535  13.275  12.461  0.00  0.00    -0.336 N 
ATOM      9  HN  UNK N   1      33.628  13.680  12.227  1.00  0.00     0.168 HD
HETATM   10  N   UNK N   1      37.784  13.621  11.228  0.00  0.00    -0.346 N 
ATOM     11  HN  UNK N   1      38.785  13.426  11.205  1.00  0.00     0.167 HD
HETATM   12  N   UNK N   1      35.758  14.473  10.745  0.00  0.00    -0.298 N 
ENDROOT
BRANCH  12  13
HETATM   13  C   UNK N   1      34.709  15.302  10.135  0.00  0.00     0.255 C 
HETATM   14  C   UNK N   1      33.990  14.621   8.970  0.00  0.00     0.155 C 
HETATM   15  C   UNK N   1      33.350  15.829   8.350  0.00  0.00     0.175 C 
HETATM   16  C   UNK N   1      34.557  16.767   8.400  0.00  0.00     0.178 C 
HETATM   17  O   UNK N   1      35.241  16.514   9.619  0.00  0.00    -0.354 OA
BRANCH  14  18
HETATM   18  N   UNK N   1      33.007  13.632   9.383  0.00  0.00    -0.420 N 
HETATM   19  H   UNK N   1      32.450  13.121   8.698  0.00  0.00     0.150 HD
HETATM   20  H   UNK N   1      32.872  13.445  10.377  0.00  0.00     0.150 HD
ENDBRANCH  14  18
BRANCH  15  21
HETATM   21  O   UNK N   1      32.323  16.311   9.178  0.00  0.00    -0.391 OA
HETATM   22  H   UNK N   1      31.879  16.792   9.893  0.00  0.00     0.210 HD
ENDBRANCH  15  21
BRANCH  16  23
HETATM   23  C   UNK N   1      34.165  18.239   8.300  0.00  0.00     0.198 C 
BRANCH  23  24
HETATM   24  O   UNK N   1      35.278  19.062   8.489  0.00  0.00    -0.398 OA
HETATM   25  H   UNK N   1      35.663  19.251   9.359  0.00  0.00     0.209 HD
ENDBRANCH  23  24
ENDBRANCH  16  23
ENDBRANCH  12  13
BRANCH   4  26
HETATM   26  N   UNK N   1      38.267  11.676  13.447  0.00  0.00    -0.383 N 
HETATM   27  H   UNK N   1      38.747  11.049  12.860  0.00  0.00     0.157 HD
HETATM   28  H   UNK N   1      38.680  11.942  14.300  0.00  0.00     0.157 HD
ENDBRANCH   4  26
TORSDOF 6
ENDMDL
MODEL 5
REMARK VINA RESULT:      -5.4      3.169      5.969
REMARK  6 active torsions:
REMARK  status: ('A' for Active; 'I' for Inactive)
REMARK    1  A    between atoms: C_4  and  C_1 
REMARK    2  A    between atoms: O_20  and  C_1 
REMARK    3  A    between atoms: C_5  and  N_11 
REMARK    4  A    between atoms: C_7  and  O_21 
REMARK    5  A    between atoms: N_12  and  C_8 
REMARK    6  A    between atoms: C_10  and  N_19 
ROOT
HETATM    1  C   UNK N   1      36.469  12.025   9.416  0.00  0.00     0.183 A 
HETATM    2  C   UNK N   1      35.521  15.748  11.616  0.00  0.00     0.188 A 
HETATM    3  C   UNK N   1      36.482  13.846  11.441  0.00  0.00     0.122 A 
HETATM    4  C   UNK N   1      37.194  12.664  11.595  0.00  0.00     0.131 A 
HETATM    5  C   UNK N   1      35.789  14.073  10.308  0.00  0.00     0.142 A 
HETATM    6  N   UNK N   1      37.178  11.768  10.565  0.00  0.00    -0.337 N 
ATOM      7  HN  UNK N   1      37.698  10.894  10.650  1.00  0.00     0.168 HD
HETATM    8  N   UNK N   1      35.757  13.187   9.286  0.00  0.00    -0.336 N 
ATOM      9  HN  UNK N   1      35.217  13.380   8.442  1.00  0.00     0.168 HD
HETATM   10  N   UNK N   1      36.335  14.882  12.285  0.00  0.00    -0.346 N 
ATOM     11  HN  UNK N   1      36.740  14.995  13.214  1.00  0.00     0.167 HD
HETATM   12  N   UNK N   1      35.173  15.261  10.395  0.00  0.00    -0.298 N 
ENDROOT
BRANCH  12  13
HETATM   13  C   UNK N   1      34.264  15.889   9.426  0.00  0.00     0.255 C 
HETATM   14  C   UNK N   1      32.968  15.106   9.207  0.00  0.00     0.155 C 
HETATM   15  C   UNK N   1      32.520  15.748   7.926  0.00  0.00     0.175 C 
HETATM   16  C   UNK N   1      33.861  15.733   7.192  0.00  0.00     0.178 C 
HETATM   17  O   UNK N   1      34.872  16.015   8.149  0.00  0.00    -0.354 OA
BRANCH  14  18
HETATM   18  N   UNK N   1      31.993  15.272  10.273  0.00  0.00    -0.420 N 
HETATM   19  H   UNK N   1      31.380  14.506  10.555  0.00  0.00     0.150 HD
HETATM   20  H   UNK N   1      31.920  16.172  10.750  0.00  0.00     0.150 HD
ENDBRANCH  14  18
BRANCH  15  21
HETATM   21  O   UNK N   1      32.109  17.069   8.165  0.00  0.00    -0.391 OA
HETATM   22  H   UNK N   1      31.561  17.870   8.158  0.00  0.00     0.210 HD
ENDBRANCH  15  21
BRANCH  16  23
HETATM   23  C   UNK N   1      33.916  16.737   6.043  0.00  0.00     0.198 C 
BRANCH  23  24
HETATM   24  O   UNK N   1      34.358  17.983   6.493  0.00  0.00    -0.398 OA
HETATM   25  H   UNK N   1      35.264  18.152   6.796  0.00  0.00     0.209 HD
ENDBRANCH  23  24
ENDBRANCH  16  23
ENDBRANCH  12  13
BRANCH   4  26
HETATM   26  N   UNK N   1      37.909  12.388  12.778  0.00  0.00    -0.383 N 
HETATM   27  H   UNK N   1      38.757  11.889  12.770  0.00  0.00     0.157 HD
HETATM   28  H   UNK N   1      37.549  12.703  13.637  0.00  0.00     0.157 HD
ENDBRANCH   4  26
TORSDOF 6
ENDMDL
MODEL 6
REMARK VINA RESULT:      -5.3      5.584      7.880
REMARK  6 active torsions:
REMARK  status: ('A' for Active; 'I' for Inactive)
REMARK    1  A    between atoms: C_4  and  C_1 
REMARK    2  A    between atoms: O_20  and  C_1 
REMARK    3  A    between atoms: C_5  and  N_11 
REMARK    4  A    between atoms: C_7  and  O_21 
REMARK    5  A    between atoms: N_12  and  C_8 
REMARK    6  A    between atoms: C_10  and  N_19 
ROOT
HETATM    1  C   UNK N   1      28.176  19.394   4.772  0.00  0.00     0.183 A 
HETATM    2  C   UNK N   1      28.704  17.883   8.900  0.00  0.00     0.188 A 
HETATM    3  C   UNK N   1      27.800  19.181   7.461  0.00  0.00     0.122 A 
HETATM    4  C   UNK N   1      27.078  20.133   6.755  0.00  0.00     0.131 A 
HETATM    5  C   UNK N   1      28.678  18.387   6.818  0.00  0.00     0.142 A 
HETATM    6  N   UNK N   1      27.279  20.219   5.407  0.00  0.00    -0.337 N 
ATOM      7  HN  UNK N   1      26.757  20.907   4.863  1.00  0.00     0.168 HD
HETATM    8  N   UNK N   1      28.893  18.471   5.485  0.00  0.00    -0.336 N 
ATOM      9  HN  UNK N   1      29.571  17.863   5.024  1.00  0.00     0.168 HD
HETATM   10  N   UNK N   1      27.791  18.888   8.773  0.00  0.00    -0.346 N 
ATOM     11  HN  UNK N   1      27.229  19.319   9.507  1.00  0.00     0.167 HD
HETATM   12  N   UNK N   1      29.262  17.564   7.702  0.00  0.00    -0.298 N 
ENDROOT
BRANCH  12  13
HETATM   13  C   UNK N   1      30.324  16.576   7.463  0.00  0.00     0.255 C 
HETATM   14  C   UNK N   1      31.734  17.164   7.530  0.00  0.00     0.155 C 
HETATM   15  C   UNK N   1      32.483  16.057   6.846  0.00  0.00     0.175 C 
HETATM   16  C   UNK N   1      31.522  15.832   5.678  0.00  0.00     0.178 C 
HETATM   17  O   UNK N   1      30.201  15.984   6.178  0.00  0.00    -0.354 OA
BRANCH  14  18
HETATM   18  N   UNK N   1      32.212  17.392   8.885  0.00  0.00    -0.420 N 
HETATM   19  H   UNK N   1      32.976  16.841   9.277  0.00  0.00     0.150 HD
HETATM   20  H   UNK N   1      31.776  18.118   9.454  0.00  0.00     0.150 HD
ENDBRANCH  14  18
BRANCH  15  21
HETATM   21  O   UNK N   1      32.524  14.920   7.668  0.00  0.00    -0.391 OA
HETATM   22  H   UNK N   1      32.711  14.355   8.434  0.00  0.00     0.210 HD
ENDBRANCH  15  21
BRANCH  16  23
HETATM   23  C   UNK N   1      31.695  14.462   5.026  0.00  0.00     0.198 C 
BRANCH  23  24
HETATM   24  O   UNK N   1      30.891  13.509   5.655  0.00  0.00    -0.398 OA
HETATM   25  H   UNK N   1      30.408  13.675   6.479  0.00  0.00     0.209 HD
ENDBRANCH  23  24
ENDBRANCH  16  23
ENDBRANCH  12  13
BRANCH   4  26
HETATM   26  N   UNK N   1      26.169  20.994   7.403  0.00  0.00    -0.383 N 
HETATM   27  H   UNK N   1      26.005  21.912   7.088  0.00  0.00     0.157 HD
HETATM   28  H   UNK N   1      25.684  20.667   8.194  0.00  0.00     0.157 HD
ENDBRANCH   4  26
TORSDOF 6
ENDMDL
MODEL 7
REMARK VINA RESULT:      -5.2      6.912     10.075
REMARK  6 active torsions:
REMARK  status: ('A' for Active; 'I' for Inactive)
REMARK    1  A    between atoms: C_4  and  C_1 
REMARK    2  A    between atoms: O_20  and  C_1 
REMARK    3  A    between atoms: C_5  and  N_11 
REMARK    4  A    between atoms: C_7  and  O_21 
REMARK    5  A    between atoms: N_12  and  C_8 
REMARK    6  A    between atoms: C_10  and  N_19 
ROOT
HETATM    1  C   UNK N   1      29.653  17.385   9.805  0.00  0.00     0.183 A 
HETATM    2  C   UNK N   1      29.870  17.546   5.386  0.00  0.00     0.188 A 
HETATM    3  C   UNK N   1      30.606  16.925   7.296  0.00  0.00     0.122 A 
HETATM    4  C   UNK N   1      31.296  16.405   8.383  0.00  0.00     0.131 A 
HETATM    5  C   UNK N   1      29.490  17.653   7.492  0.00  0.00     0.142 A 
HETATM    6  N   UNK N   1      30.798  16.645   9.631  0.00  0.00    -0.337 N 
ATOM      7  HN  UNK N   1      31.283  16.269  10.447  1.00  0.00     0.168 HD
HETATM    8  N   UNK N   1      28.994  17.906   8.725  0.00  0.00    -0.336 N 
ATOM      9  HN  UNK N   1      28.150  18.467   8.846  1.00  0.00     0.168 HD
HETATM   10  N   UNK N   1      30.872  16.837   5.982  0.00  0.00    -0.346 N 
ATOM     11  HN  UNK N   1      31.648  16.352   5.531  1.00  0.00     0.167 HD
HETATM   12  N   UNK N   1      29.010  18.058   6.306  0.00  0.00    -0.298 N 
ENDROOT
BRANCH  12  13
HETATM   13  C   UNK N   1      27.852  18.923   6.039  0.00  0.00     0.255 C 
HETATM   14  C   UNK N   1      27.941  19.673   4.709  0.00  0.00     0.155 C 
HETATM   15  C   UNK N   1      26.893  20.718   4.958  0.00  0.00     0.175 C 
HETATM   16  C   UNK N   1      27.301  21.104   6.380  0.00  0.00     0.178 C 
HETATM   17  O   UNK N   1      27.703  19.915   7.045  0.00  0.00    -0.354 OA
BRANCH  14  18
HETATM   18  N   UNK N   1      27.632  18.852   3.549  0.00  0.00    -0.420 N 
HETATM   19  H   UNK N   1      28.353  18.594   2.875  0.00  0.00     0.150 HD
HETATM   20  H   UNK N   1      26.675  18.527   3.406  0.00  0.00     0.150 HD
ENDBRANCH  14  18
BRANCH  15  21
HETATM   21  O   UNK N   1      25.616  20.132   4.959  0.00  0.00    -0.391 OA
HETATM   22  H   UNK N   1      24.695  19.953   5.205  0.00  0.00     0.210 HD
ENDBRANCH  15  21
BRANCH  16  23
HETATM   23  C   UNK N   1      26.178  21.795   7.150  0.00  0.00     0.198 C 
BRANCH  23  24
HETATM   24  O   UNK N   1      25.733  20.994   8.203  0.00  0.00    -0.398 OA
HETATM   25  H   UNK N   1      26.173  20.950   9.066  0.00  0.00     0.209 HD
ENDBRANCH  23  24
ENDBRANCH  16  23
ENDBRANCH  12  13
BRANCH   4  26
HETATM   26  N   UNK N   1      32.480  15.660   8.211  0.00  0.00    -0.383 N 
HETATM   27  H   UNK N   1      32.477  14.760   7.811  0.00  0.00     0.157 HD
HETATM   28  H   UNK N   1      33.335  16.051   8.500  0.00  0.00     0.157 HD
ENDBRANCH   4  26
TORSDOF 6
ENDMDL
MODEL 8
REMARK VINA RESULT:      -5.2      3.270      6.054
REMARK  6 active torsions:
REMARK  status: ('A' for Active; 'I' for Inactive)
REMARK    1  A    between atoms: C_4  and  C_1 
REMARK    2  A    between atoms: O_20  and  C_1 
REMARK    3  A    between atoms: C_5  and  N_11 
REMARK    4  A    between atoms: C_7  and  O_21 
REMARK    5  A    between atoms: N_12  and  C_8 
REMARK    6  A    between atoms: C_10  and  N_19 
ROOT
HETATM    1  C   UNK N   1      35.926  12.245   9.642  0.00  0.00     0.183 A 
HETATM    2  C   UNK N   1      35.698  16.543  10.682  0.00  0.00     0.188 A 
HETATM    3  C   UNK N   1      36.171  14.508  11.138  0.00  0.00     0.122 A 
HETATM    4  C   UNK N   1      36.550  13.292  11.690  0.00  0.00     0.131 A 
HETATM    5  C   UNK N   1      35.682  14.555   9.884  0.00  0.00     0.142 A 
HETATM    6  N   UNK N   1      36.422  12.171  10.921  0.00  0.00    -0.337 N 
ATOM      7  HN  UNK N   1      36.698  11.265  11.301  1.00  0.00     0.168 HD
HETATM    8  N   UNK N   1      35.541  13.449   9.116  0.00  0.00    -0.336 N 
ATOM      9  HN  UNK N   1      35.159  13.512   8.172  1.00  0.00     0.168 HD
HETATM   10  N   UNK N   1      36.196  15.742  11.668  0.00  0.00    -0.346 N 
ATOM     11  HN  UNK N   1      36.514  16.019  12.597  1.00  0.00     0.167 HD
HETATM   12  N   UNK N   1      35.373  15.823   9.575  0.00  0.00    -0.298 N 
ENDROOT
BRANCH  12  13
HETATM   13  C   UNK N   1      34.755  16.337   8.344  0.00  0.00     0.255 C 
HETATM   14  C   UNK N   1      34.067  17.691   8.523  0.00  0.00     0.155 C 
HETATM   15  C   UNK N   1      33.227  17.693   7.279  0.00  0.00     0.175 C 
HETATM   16  C   UNK N   1      32.703  16.260   7.366  0.00  0.00     0.178 C 
HETATM   17  O   UNK N   1      33.762  15.448   7.853  0.00  0.00    -0.354 OA
BRANCH  14  18
HETATM   18  N   UNK N   1      34.987  18.817   8.566  0.00  0.00    -0.420 N 
HETATM   19  H   UNK N   1      35.873  18.758   9.068  0.00  0.00     0.150 HD
HETATM   20  H   UNK N   1      34.741  19.682   8.083  0.00  0.00     0.150 HD
ENDBRANCH  14  18
BRANCH  15  21
HETATM   21  O   UNK N   1      34.041  17.848   6.146  0.00  0.00    -0.391 OA
HETATM   22  H   UNK N   1      34.304  18.016   5.227  0.00  0.00     0.210 HD
ENDBRANCH  15  21
BRANCH  16  23
HETATM   23  C   UNK N   1      32.198  15.734   6.024  0.00  0.00     0.198 C 
BRANCH  23  24
HETATM   24  O   UNK N   1      33.245  15.179   5.284  0.00  0.00    -0.398 OA
HETATM   25  H   UNK N   1      33.177  14.337   4.808  0.00  0.00     0.209 HD
ENDBRANCH  23  24
ENDBRANCH  16  23
ENDBRANCH  12  13
BRANCH   4  26
HETATM   26  N   UNK N   1      37.043  13.207  13.008  0.00  0.00    -0.383 N 
HETATM   27  H   UNK N   1      36.444  13.149  13.787  0.00  0.00     0.157 HD
HETATM   28  H   UNK N   1      38.016  13.206  13.154  0.00  0.00     0.157 HD
ENDBRANCH   4  26
TORSDOF 6
ENDMDL
MODEL 9
REMARK VINA RESULT:      -5.2      7.908     11.034
REMARK  6 active torsions:
REMARK  status: ('A' for Active; 'I' for Inactive)
REMARK    1  A    between atoms: C_4  and  C_1 
REMARK    2  A    between atoms: O_20  and  C_1 
REMARK    3  A    between atoms: C_5  and  N_11 
REMARK    4  A    between atoms: C_7  and  O_21 
REMARK    5  A    between atoms: N_12  and  C_8 
REMARK    6  A    between atoms: C_10  and  N_19 
ROOT
HETATM    1  C   UNK N   1      28.503  17.954   9.646  0.00  0.00     0.183 A 
HETATM    2  C   UNK N   1      29.538  17.657   5.352  0.00  0.00     0.188 A 
HETATM    3  C   UNK N   1      29.991  17.419   7.428  0.00  0.00     0.122 A 
HETATM    4  C   UNK N   1      30.539  17.177   8.680  0.00  0.00     0.131 A 
HETATM    5  C   UNK N   1      28.745  17.920   7.324  0.00  0.00     0.142 A 
HETATM    6  N   UNK N   1      29.775  17.449   9.778  0.00  0.00    -0.337 N 
ATOM      7  HN  UNK N   1      30.152  17.275  10.710  1.00  0.00     0.168 HD
HETATM    8  N   UNK N   1      27.982  18.203   8.405  0.00  0.00    -0.336 N 
ATOM      9  HN  UNK N   1      27.044  18.590   8.298  1.00  0.00     0.168 HD
HETATM   10  N   UNK N   1      30.518  17.239   6.205  0.00  0.00    -0.346 N 
ATOM     11  HN  UNK N   1      31.440  16.875   5.968  1.00  0.00     0.167 HD
HETATM   12  N   UNK N   1      28.438  18.082   6.028  0.00  0.00    -0.298 N 
ENDROOT
BRANCH  12  13
HETATM   13  C   UNK N   1      27.217  18.655   5.445  0.00  0.00     0.255 C 
HETATM   14  C   UNK N   1      26.316  17.620   4.771  0.00  0.00     0.155 C 
HETATM   15  C   UNK N   1      25.458  18.548   3.959  0.00  0.00     0.175 C 
HETATM   16  C   UNK N   1      26.566  19.449   3.415  0.00  0.00     0.178 C 
HETATM   17  O   UNK N   1      27.521  19.624   4.451  0.00  0.00    -0.354 OA
BRANCH  14  18
HETATM   18  N   UNK N   1      25.532  16.826   5.704  0.00  0.00    -0.420 N 
HETATM   19  H   UNK N   1      25.698  15.826   5.819  0.00  0.00     0.150 HD
HETATM   20  H   UNK N   1      24.801  17.278   6.255  0.00  0.00     0.150 HD
ENDBRANCH  14  18
BRANCH  15  21
HETATM   21  O   UNK N   1      24.605  19.278   4.801  0.00  0.00    -0.391 OA
HETATM   22  H   UNK N   1      23.790  19.596   5.220  0.00  0.00     0.210 HD
ENDBRANCH  15  21
BRANCH  16  23
HETATM   23  C   UNK N   1      26.044  20.801   2.934  0.00  0.00     0.198 C 
BRANCH  23  24
HETATM   24  O   UNK N   1      24.958  20.634   2.071  0.00  0.00    -0.398 OA
HETATM   25  H   UNK N   1      24.049  20.494   2.375  0.00  0.00     0.209 HD
ENDBRANCH  23  24
ENDBRANCH  16  23
ENDBRANCH  12  13
BRANCH   4  26
HETATM   26  N   UNK N   1      31.849  16.675   8.822  0.00  0.00    -0.383 N 
HETATM   27  H   UNK N   1      32.086  15.755   8.566  0.00  0.00     0.157 HD
HETATM   28  H   UNK N   1      32.548  17.263   9.189  0.00  0.00     0.157 HD
ENDBRANCH   4  26
TORSDOF 6
ENDMDL
