REMARK  18 active torsions:
REMARK  status: ('A' for Active; 'I' for Inactive)
REMARK    1  A    between atoms: C_2  and  C_1 
REMARK    2  A    between atoms: C_5  and  C_1 
REMARK    3  A    between atoms: C_10  and  C_2 
REMARK    4  A    between atoms: C_11  and  C_5 
REMARK    5  A    between atoms: C_16  and  C_10 
REMARK    6  A    between atoms: C_25  and  C_11 
REMARK    7  A    between atoms: C_30  and  C_16 
REMARK    8  A    between atoms: C_22  and  C_19 
REMARK    9  A    between atoms: C_28  and  C_19 
REMARK   10  A    between atoms: C_31  and  C_22 
REMARK   11  A    between atoms: C_26  and  C_23 
REMARK   12  A    between atoms: C_28  and  C_23 
REMARK   13  A    between atoms: C_27  and  C_24 
REMARK   14  A    between atoms: O_37  and  C_24 
REMARK   15  A    between atoms: C_28  and  N_32 
REMARK   16  A    between atoms: O_37  and  C_29 
REMARK   17  A    between atoms: C_30  and  O_34 
REMARK   18  A    between atoms: O_36  and  C_31 
ROOT
HETATM    1  C   UNK N   1      -4.496   5.231  -0.471  0.00  0.00     0.088 C 
ENDROOT
BRANCH   1   2
HETATM    2  C   UNK N   1      -4.345   3.693  -0.425  0.00  0.00     0.036 C 
BRANCH   2   3
HETATM    3  C   UNK N   1      -4.523   3.031   0.938  0.00  0.00     0.112 C 
BRANCH   3   4
HETATM    4  C   UNK N   1      -4.782   1.571   0.736  0.00  0.00     0.139 C 
HETATM    5  O   UNK N   1      -3.995   0.748   1.171  0.00  0.00    -0.650 OA
BRANCH   4   6
HETATM    6  O   UNK N   1      -5.880   1.162   0.072  0.00  0.00    -0.776 OA
HETATM    7  H   UNK N   1      -6.509   1.680  -0.391  0.00  0.00     0.167 HD
ENDBRANCH   4   6
ENDBRANCH   3   4
ENDBRANCH   2   3
ENDBRANCH   1   2
BRANCH   1   8
HETATM    8  C   UNK N   1      -5.660   5.844   0.323  0.00  0.00     0.063 C 
BRANCH   8   9
HETATM    9  C   UNK N   1      -7.034   5.275   0.111  0.00  0.00    -0.056 A 
HETATM   10  C   UNK N   1      -8.157   6.086   0.327  0.00  0.00     0.010 A 
HETATM   11  C   UNK N   1      -9.439   5.516   0.365  0.00  0.00     0.037 A 
HETATM   12  C   UNK N   1      -9.591   4.130   0.227  0.00  0.00     0.069 A 
HETATM   13  C   UNK N   1      -8.470   3.335  -0.034  0.00  0.00     0.037 A 
HETATM   14  C   UNK N   1      -7.210   3.907  -0.090  0.00  0.00     0.010 A 
BRANCH  12  15
HETATM   15  O   UNK N   1     -10.795   3.556   0.443  0.00  0.00    -0.347 OA
BRANCH  15  16
HETATM   16  C   UNK N   1     -10.858   2.359   1.129  0.00  0.00     0.214 C 
BRANCH  16  17
HETATM   17  C   UNK N   1     -11.417   1.248   0.319  0.00  0.00    -0.034 A 
HETATM   18  C   UNK N   1     -10.598   0.169  -0.030  0.00  0.00     0.009 A 
HETATM   19  C   UNK N   1     -11.133  -0.919  -0.725  0.00  0.00     0.001 A 
HETATM   20  C   UNK N   1     -12.491  -0.935  -1.057  0.00  0.00     0.000 A 
HETATM   21  C   UNK N   1     -13.311   0.141  -0.701  0.00  0.00     0.001 A 
HETATM   22  C   UNK N   1     -12.775   1.232  -0.011  0.00  0.00     0.009 A 
ENDBRANCH  16  17
ENDBRANCH  15  16
ENDBRANCH  12  15
ENDBRANCH   8   9
ENDBRANCH   1   8
BRANCH   1  23
HETATM   23  N   UNK N   1      -3.287   5.980  -0.174  0.00  0.00    -0.370 N 
HETATM   24  C   UNK N   1      -2.250   5.619   0.513  0.00  0.00     0.111 C 
ATOM     25  HN  UNK N   1      -3.249   6.923  -0.561  1.00  0.00     0.161 HD
BRANCH  24  26
HETATM   26  C   UNK N   1      -1.071   6.531   0.550  0.00  0.00     0.083 C 
BRANCH  26  27
HETATM   27  C   UNK N   1      -0.646   6.868  -0.884  0.00  0.00     0.008 C 
BRANCH  27  28
HETATM   28  C   UNK N   1       0.152   5.767  -1.587  0.00  0.00     0.000 C 
BRANCH  28  29
HETATM   29  C   UNK N   1      -0.527   4.402  -1.540  0.00  0.00     0.000 C 
BRANCH  29  30
HETATM   30  C   UNK N   1       0.427   3.316  -1.045  0.00  0.00     0.005 C 
BRANCH  30  31
HETATM   31  C   UNK N   1       0.962   3.591   0.363  0.00  0.00     0.038 C 
BRANCH  31  32
HETATM   32  C   UNK N   1       2.134   4.520   0.314  0.00  0.00    -0.058 A 
HETATM   33  C   UNK N   1       2.055   5.778   0.923  0.00  0.00     0.007 A 
HETATM   34  C   UNK N   1       3.126   6.671   0.832  0.00  0.00     0.001 A 
HETATM   35  C   UNK N   1       4.283   6.304   0.138  0.00  0.00     0.000 A 
HETATM   36  C   UNK N   1       4.371   5.043  -0.459  0.00  0.00     0.001 A 
HETATM   37  C   UNK N   1       3.297   4.153  -0.374  0.00  0.00     0.007 A 
ENDBRANCH  31  32
ENDBRANCH  30  31
ENDBRANCH  29  30
ENDBRANCH  28  29
ENDBRANCH  27  28
ENDBRANCH  26  27
ENDBRANCH  24  26
BRANCH  24  38
HETATM   38  O   UNK N   1      -2.181   4.432   1.143  0.00  0.00    -0.350 OA
HETATM   39  H   UNK N   1      -2.873   3.978   1.581  0.00  0.00     0.219 HD
ENDBRANCH  24  38
ENDBRANCH   1  23
TORSDOF 18
