MODEL 1
REMARK VINA RESULT:      -5.9      0.000      0.000
REMARK  13 active torsions:
REMARK  status: ('A' for Active; 'I' for Inactive)
REMARK    1  A    between atoms: C_3  and  C_1 
REMARK    2  A    between atoms: N_10  and  C_1 
REMARK    3  A    between atoms: C_4  and  C_2 
REMARK    4  A    between atoms: O_16  and  C_2 
REMARK    5  A    between atoms: C_6  and  C_3 
REMARK    6  A    between atoms: C_3  and  O_17 
REMARK    7  A    between atoms: C_6  and  C_4 
REMARK    8  A    between atoms: C_4  and  O_18 
REMARK    9  A    between atoms: N_15  and  C_5 
REMARK   10  A    between atoms: C_6  and  O_19 
REMARK   11  A    between atoms: N_10  and  C_7 
REMARK   12  A    between atoms: O_20  and  C_8 
REMARK   13  A    between atoms: O_21  and  C_9 
ROOT
HETATM    1  C   UNK N   1      23.557  12.843   9.905  0.00  0.00     0.197 A 
HETATM    2  C   UNK N   1      22.215  12.987   9.369  0.00  0.00     0.142 A 
HETATM    3  C   UNK N   1      23.658  12.300  11.217  0.00  0.00     0.180 A 
HETATM    4  C   UNK N   1      21.320  12.046  11.364  0.00  0.00     0.224 A 
HETATM    5  N   UNK N   1      21.167  12.580  10.133  0.00  0.00    -0.306 N 
ATOM      6  HN  UNK N   1      20.223  12.683   9.762  1.00  0.00     0.171 HD
HETATM    7  N   UNK N   1      22.551  11.915  11.895  0.00  0.00    -0.301 N 
ATOM      8  HN  UNK N   1      22.652  11.520  12.831  1.00  0.00     0.171 HD
ENDROOT
BRANCH   2   9
HETATM    9  N   UNK N   1      21.861  13.571   8.114  0.00  0.00    -0.371 N 
HETATM   10  H   UNK N   1      21.567  12.943   7.415  0.00  0.00     0.161 HD
BRANCH   9  11
HETATM   11  C   UNK N   1      21.880  14.953   7.746  0.00  0.00     0.155 C 
BRANCH  11  12
HETATM   12  C   UNK N   1      20.514  15.519   7.377  0.00  0.00     0.167 C 
BRANCH  12  13
HETATM   13  C   UNK N   1      19.841  15.883   8.721  0.00  0.00     0.179 C 
BRANCH  13  14
HETATM   14  C   UNK N   1      18.805  17.019   8.710  0.00  0.00     0.173 C 
BRANCH  14  15
HETATM   15  C   UNK N   1      19.274  18.293   9.391  0.00  0.00     0.198 C 
BRANCH  15  16
HETATM   16  O   UNK N   1      20.107  19.001   8.519  0.00  0.00    -0.398 OA
HETATM   17  H   UNK N   1      19.753  19.486   7.757  0.00  0.00     0.209 HD
ENDBRANCH  15  16
ENDBRANCH  14  15
BRANCH  14  18
HETATM   18  O   UNK N   1      17.608  16.589   9.288  0.00  0.00    -0.391 OA
HETATM   19  H   UNK N   1      17.019  15.987   8.806  0.00  0.00     0.210 HD
ENDBRANCH  14  18
ENDBRANCH  13  14
BRANCH  13  20
HETATM   20  O   UNK N   1      19.271  14.732   9.278  0.00  0.00    -0.390 OA
HETATM   21  H   UNK N   1      19.497  14.467  10.184  0.00  0.00     0.210 HD
ENDBRANCH  13  20
ENDBRANCH  12  13
BRANCH  12  22
HETATM   22  O   UNK N   1      20.704  16.649   6.582  0.00  0.00    -0.391 OA
HETATM   23  H   UNK N   1      21.390  16.658   5.896  0.00  0.00     0.210 HD
ENDBRANCH  12  22
ENDBRANCH  11  12
ENDBRANCH   9  11
ENDBRANCH   2   9
BRANCH   1  24
HETATM   24  N   UNK N   1      24.778  13.218   9.225  0.00  0.00    -0.107 N 
HETATM   25  O   UNK N   1      25.646  13.775   9.824  0.00  0.00    -0.531 OA
HETATM   26  O   UNK N   1      25.022  12.819   8.132  0.00  0.00    -0.531 OA
ENDBRANCH   1  24
BRANCH   3  27
HETATM   27  O   UNK N   1      24.855  12.127  11.804  0.00  0.00    -0.344 OA
HETATM   28  H   UNK N   1      24.905  11.772  12.670  0.00  0.00     0.219 HD
ENDBRANCH   3  27
BRANCH   4  29
HETATM   29  O   UNK N   1      20.243  11.647  12.061  0.00  0.00    -0.332 OA
HETATM   30  H   UNK N   1      20.127  11.915  12.950  0.00  0.00     0.221 HD
ENDBRANCH   4  29
TORSDOF 13
ENDMDL
MODEL 2
REMARK VINA RESULT:      -5.9      9.107     11.058
REMARK  13 active torsions:
REMARK  status: ('A' for Active; 'I' for Inactive)
REMARK    1  A    between atoms: C_3  and  C_1 
REMARK    2  A    between atoms: N_10  and  C_1 
REMARK    3  A    between atoms: C_4  and  C_2 
REMARK    4  A    between atoms: O_16  and  C_2 
REMARK    5  A    between atoms: C_6  and  C_3 
REMARK    6  A    between atoms: C_3  and  O_17 
REMARK    7  A    between atoms: C_6  and  C_4 
REMARK    8  A    between atoms: C_4  and  O_18 
REMARK    9  A    between atoms: N_15  and  C_5 
REMARK   10  A    between atoms: C_6  and  O_19 
REMARK   11  A    between atoms: N_10  and  C_7 
REMARK   12  A    between atoms: O_20  and  C_8 
REMARK   13  A    between atoms: O_21  and  C_9 
ROOT
HETATM    1  C   UNK N   1      34.241  17.152   8.912  0.00  0.00     0.197 A 
HETATM    2  C   UNK N   1      33.222  16.123   8.801  0.00  0.00     0.142 A 
HETATM    3  C   UNK N   1      35.070  17.097  10.067  0.00  0.00     0.180 A 
HETATM    4  C   UNK N   1      33.975  15.161  10.844  0.00  0.00     0.224 A 
HETATM    5  N   UNK N   1      33.145  15.183   9.779  0.00  0.00    -0.306 N 
ATOM      6  HN  UNK N   1      32.428  14.461   9.707  1.00  0.00     0.171 HD
HETATM    7  N   UNK N   1      34.919  16.112  10.983  0.00  0.00    -0.301 N 
ATOM      8  HN  UNK N   1      35.533  16.090  11.798  1.00  0.00     0.171 HD
ENDROOT
BRANCH   2   9
HETATM    9  N   UNK N   1      32.232  16.017   7.776  0.00  0.00    -0.371 N 
HETATM   10  H   UNK N   1      32.385  15.317   7.101  0.00  0.00     0.161 HD
BRANCH   9  11
HETATM   11  C   UNK N   1      31.046  16.799   7.608  0.00  0.00     0.155 C 
BRANCH  11  12
HETATM   12  C   UNK N   1      30.627  17.570   8.854  0.00  0.00     0.167 C 
BRANCH  12  13
HETATM   13  C   UNK N   1      29.384  18.390   8.434  0.00  0.00     0.179 C 
BRANCH  13  14
HETATM   14  C   UNK N   1      28.514  17.828   7.297  0.00  0.00     0.173 C 
BRANCH  14  15
HETATM   15  C   UNK N   1      27.920  18.889   6.388  0.00  0.00     0.198 C 
BRANCH  15  16
HETATM   16  O   UNK N   1      27.129  19.756   7.148  0.00  0.00    -0.398 OA
HETATM   17  H   UNK N   1      26.659  19.454   7.941  0.00  0.00     0.209 HD
ENDBRANCH  15  16
ENDBRANCH  14  15
BRANCH  14  18
HETATM   18  O   UNK N   1      27.493  17.028   7.818  0.00  0.00    -0.391 OA
HETATM   19  H   UNK N   1      26.937  16.496   7.227  0.00  0.00     0.210 HD
ENDBRANCH  14  18
ENDBRANCH  13  14
BRANCH  13  20
HETATM   20  O   UNK N   1      28.588  18.630   9.561  0.00  0.00    -0.390 OA
HETATM   21  H   UNK N   1      27.896  17.997   9.810  0.00  0.00     0.210 HD
ENDBRANCH  13  20
ENDBRANCH  12  13
BRANCH  12  22
HETATM   22  O   UNK N   1      30.314  16.652   9.856  0.00  0.00    -0.391 OA
HETATM   23  H   UNK N   1      30.761  16.691  10.716  0.00  0.00     0.210 HD
ENDBRANCH  12  22
ENDBRANCH  11  12
ENDBRANCH   9  11
ENDBRANCH   2   9
BRANCH   1  24
HETATM   24  N   UNK N   1      34.464  18.220   7.961  0.00  0.00    -0.107 N 
HETATM   25  O   UNK N   1      34.237  18.044   6.803  0.00  0.00    -0.531 OA
HETATM   26  O   UNK N   1      34.687  19.330   8.323  0.00  0.00    -0.531 OA
ENDBRANCH   1  24
BRANCH   3  27
HETATM   27  O   UNK N   1      36.043  18.004  10.264  0.00  0.00    -0.344 OA
HETATM   28  H   UNK N   1      36.791  17.783  10.783  0.00  0.00     0.219 HD
ENDBRANCH   3  27
BRANCH   4  29
HETATM   29  O   UNK N   1      33.857  14.193  11.767  0.00  0.00    -0.332 OA
HETATM   30  H   UNK N   1      34.588  13.649  11.982  0.00  0.00     0.221 HD
ENDBRANCH   4  29
TORSDOF 13
ENDMDL
MODEL 3
REMARK VINA RESULT:      -5.9     11.184     14.381
REMARK  13 active torsions:
REMARK  status: ('A' for Active; 'I' for Inactive)
REMARK    1  A    between atoms: C_3  and  C_1 
REMARK    2  A    between atoms: N_10  and  C_1 
REMARK    3  A    between atoms: C_4  and  C_2 
REMARK    4  A    between atoms: O_16  and  C_2 
REMARK    5  A    between atoms: C_6  and  C_3 
REMARK    6  A    between atoms: C_3  and  O_17 
REMARK    7  A    between atoms: C_6  and  C_4 
REMARK    8  A    between atoms: C_4  and  O_18 
REMARK    9  A    between atoms: N_15  and  C_5 
REMARK   10  A    between atoms: C_6  and  O_19 
REMARK   11  A    between atoms: N_10  and  C_7 
REMARK   12  A    between atoms: O_20  and  C_8 
REMARK   13  A    between atoms: O_21  and  C_9 
ROOT
HETATM    1  C   UNK N   1      34.008  16.944   8.320  0.00  0.00     0.197 A 
HETATM    2  C   UNK N   1      33.404  15.865   9.080  0.00  0.00     0.142 A 
HETATM    3  C   UNK N   1      33.683  16.999   6.935  0.00  0.00     0.180 A 
HETATM    4  C   UNK N   1      32.274  15.121   7.122  0.00  0.00     0.224 A 
HETATM    5  N   UNK N   1      32.569  15.009   8.435  0.00  0.00    -0.306 N 
ATOM      6  HN  UNK N   1      32.147  14.247   8.965  1.00  0.00     0.171 HD
HETATM    7  N   UNK N   1      32.831  16.102   6.386  0.00  0.00    -0.301 N 
ATOM      8  HN  UNK N   1      32.607  16.169   5.393  1.00  0.00     0.171 HD
ENDROOT
BRANCH   2   9
HETATM    9  N   UNK N   1      33.638  15.564  10.457  0.00  0.00    -0.371 N 
HETATM   10  H   UNK N   1      33.214  16.170  11.108  0.00  0.00     0.161 HD
BRANCH   9  11
HETATM   11  C   UNK N   1      34.409  14.494  11.010  0.00  0.00     0.155 C 
BRANCH  11  12
HETATM   12  C   UNK N   1      35.393  14.928  12.090  0.00  0.00     0.167 C 
BRANCH  12  13
HETATM   13  C   UNK N   1      35.685  13.655  12.920  0.00  0.00     0.179 C 
BRANCH  13  14
HETATM   14  C   UNK N   1      36.528  13.818  14.195  0.00  0.00     0.173 C 
BRANCH  14  15
HETATM   15  C   UNK N   1      35.819  13.388  15.467  0.00  0.00     0.198 C 
BRANCH  15  16
HETATM   16  O   UNK N   1      36.087  12.037  15.710  0.00  0.00    -0.398 OA
HETATM   17  H   UNK N   1      36.452  11.459  15.022  0.00  0.00     0.209 HD
ENDBRANCH  15  16
ENDBRANCH  14  15
BRANCH  14  18
HETATM   18  O   UNK N   1      36.966  15.139  14.322  0.00  0.00    -0.391 OA
HETATM   19  H   UNK N   1      36.517  15.748  14.929  0.00  0.00     0.210 HD
ENDBRANCH  14  18
ENDBRANCH  13  14
BRANCH  13  20
HETATM   20  O   UNK N   1      34.476  13.022  13.233  0.00  0.00    -0.390 OA
HETATM   21  H   UNK N   1      33.980  12.554  12.543  0.00  0.00     0.210 HD
ENDBRANCH  13  20
ENDBRANCH  12  13
BRANCH  12  22
HETATM   22  O   UNK N   1      36.547  15.406  11.470  0.00  0.00    -0.391 OA
HETATM   23  H   UNK N   1      36.990  16.202  11.801  0.00  0.00     0.210 HD
ENDBRANCH  12  22
ENDBRANCH  11  12
ENDBRANCH   9  11
ENDBRANCH   2   9
BRANCH   1  24
HETATM   24  N   UNK N   1      34.912  17.943   8.849  0.00  0.00    -0.107 N 
HETATM   25  O   UNK N   1      34.907  19.048   8.401  0.00  0.00    -0.531 OA
HETATM   26  O   UNK N   1      35.528  17.749   9.847  0.00  0.00    -0.531 OA
ENDBRANCH   1  24
BRANCH   3  27
HETATM   27  O   UNK N   1      34.191  17.960   6.143  0.00  0.00    -0.344 OA
HETATM   28  H   UNK N   1      34.876  17.754   5.537  0.00  0.00     0.219 HD
ENDBRANCH   3  27
BRANCH   4  29
HETATM   29  O   UNK N   1      31.426  14.251   6.549  0.00  0.00    -0.332 OA
HETATM   30  H   UNK N   1      31.720  13.680   5.868  0.00  0.00     0.221 HD
ENDBRANCH   4  29
TORSDOF 13
ENDMDL
MODEL 4
REMARK VINA RESULT:      -5.9      9.870     13.250
REMARK  13 active torsions:
REMARK  status: ('A' for Active; 'I' for Inactive)
REMARK    1  A    between atoms: C_3  and  C_1 
REMARK    2  A    between atoms: N_10  and  C_1 
REMARK    3  A    between atoms: C_4  and  C_2 
REMARK    4  A    between atoms: O_16  and  C_2 
REMARK    5  A    between atoms: C_6  and  C_3 
REMARK    6  A    between atoms: C_3  and  O_17 
REMARK    7  A    between atoms: C_6  and  C_4 
REMARK    8  A    between atoms: C_4  and  O_18 
REMARK    9  A    between atoms: N_15  and  C_5 
REMARK   10  A    between atoms: C_6  and  O_19 
REMARK   11  A    between atoms: N_10  and  C_7 
REMARK   12  A    between atoms: O_20  and  C_8 
REMARK   13  A    between atoms: O_21  and  C_9 
ROOT
HETATM    1  C   UNK N   1      32.330  16.941   6.975  0.00  0.00     0.197 A 
HETATM    2  C   UNK N   1      32.704  16.649   8.347  0.00  0.00     0.142 A 
HETATM    3  C   UNK N   1      30.954  17.221   6.741  0.00  0.00     0.180 A 
HETATM    4  C   UNK N   1      30.447  16.979   9.029  0.00  0.00     0.224 A 
HETATM    5  N   UNK N   1      31.736  16.682   9.301  0.00  0.00    -0.306 N 
ATOM      6  HN  UNK N   1      31.994  16.473  10.265  1.00  0.00     0.171 HD
HETATM    7  N   UNK N   1      30.067  17.238   7.763  0.00  0.00    -0.301 N 
ATOM      8  HN  UNK N   1      29.087  17.451   7.570  1.00  0.00     0.171 HD
ENDROOT
BRANCH   2   9
HETATM    9  N   UNK N   1      34.001  16.269   8.810  0.00  0.00    -0.371 N 
HETATM   10  H   UNK N   1      34.283  15.351   8.594  0.00  0.00     0.161 HD
BRANCH   9  11
HETATM   11  C   UNK N   1      34.941  17.055   9.547  0.00  0.00     0.155 C 
BRANCH  11  12
HETATM   12  C   UNK N   1      35.452  16.386  10.818  0.00  0.00     0.167 C 
BRANCH  12  13
HETATM   13  C   UNK N   1      34.887  14.947  10.784  0.00  0.00     0.179 C 
BRANCH  13  14
HETATM   14  C   UNK N   1      35.730  13.838  11.435  0.00  0.00     0.173 C 
BRANCH  14  15
HETATM   15  C   UNK N   1      34.927  12.624  11.871  0.00  0.00     0.198 C 
BRANCH  15  16
HETATM   16  O   UNK N   1      34.431  12.840  13.161  0.00  0.00    -0.398 OA
HETATM   17  H   UNK N   1      34.639  12.239  13.894  0.00  0.00     0.209 HD
ENDBRANCH  15  16
ENDBRANCH  14  15
BRANCH  14  18
HETATM   18  O   UNK N   1      36.444  14.347  12.522  0.00  0.00    -0.391 OA
HETATM   19  H   UNK N   1      35.983  14.590  13.342  0.00  0.00     0.210 HD
ENDBRANCH  14  18
ENDBRANCH  13  14
BRANCH  13  20
HETATM   20  O   UNK N   1      33.599  14.945  11.335  0.00  0.00    -0.390 OA
HETATM   21  H   UNK N   1      32.885  14.456  10.897  0.00  0.00     0.210 HD
ENDBRANCH  13  20
ENDBRANCH  12  13
BRANCH  12  22
HETATM   22  O   UNK N   1      36.846  16.385  10.786  0.00  0.00    -0.391 OA
HETATM   23  H   UNK N   1      37.323  15.860  10.125  0.00  0.00     0.210 HD
ENDBRANCH  12  22
ENDBRANCH  11  12
ENDBRANCH   9  11
ENDBRANCH   2   9
BRANCH   1  24
HETATM   24  N   UNK N   1      33.231  16.955   5.842  0.00  0.00    -0.107 N 
HETATM   25  O   UNK N   1      34.242  17.584   5.893  0.00  0.00    -0.531 OA
HETATM   26  O   UNK N   1      33.087  16.204   4.932  0.00  0.00    -0.531 OA
ENDBRANCH   1  24
BRANCH   3  27
HETATM   27  O   UNK N   1      30.505  17.502   5.505  0.00  0.00    -0.344 OA
HETATM   28  H   UNK N   1      29.585  17.594   5.350  0.00  0.00     0.219 HD
ENDBRANCH   3  27
BRANCH   4  29
HETATM   29  O   UNK N   1      29.543  17.013  10.022  0.00  0.00    -0.332 OA
HETATM   30  H   UNK N   1      28.990  16.275  10.185  0.00  0.00     0.221 HD
ENDBRANCH   4  29
TORSDOF 13
ENDMDL
MODEL 5
REMARK VINA RESULT:      -5.8      5.296      8.536
REMARK  13 active torsions:
REMARK  status: ('A' for Active; 'I' for Inactive)
REMARK    1  A    between atoms: C_3  and  C_1 
REMARK    2  A    between atoms: N_10  and  C_1 
REMARK    3  A    between atoms: C_4  and  C_2 
REMARK    4  A    between atoms: O_16  and  C_2 
REMARK    5  A    between atoms: C_6  and  C_3 
REMARK    6  A    between atoms: C_3  and  O_17 
REMARK    7  A    between atoms: C_6  and  C_4 
REMARK    8  A    between atoms: C_4  and  O_18 
REMARK    9  A    between atoms: N_15  and  C_5 
REMARK   10  A    between atoms: C_6  and  O_19 
REMARK   11  A    between atoms: N_10  and  C_7 
REMARK   12  A    between atoms: O_20  and  C_8 
REMARK   13  A    between atoms: O_21  and  C_9 
ROOT
HETATM    1  C   UNK N   1      20.629  19.129   2.342  0.00  0.00     0.197 A 
HETATM    2  C   UNK N   1      20.364  17.854   2.984  0.00  0.00     0.142 A 
HETATM    3  C   UNK N   1      20.498  19.162   0.925  0.00  0.00     0.180 A 
HETATM    4  C   UNK N   1      19.860  16.895   0.864  0.00  0.00     0.224 A 
HETATM    5  N   UNK N   1      19.995  16.803   2.204  0.00  0.00    -0.306 N 
ATOM      6  HN  UNK N   1      19.811  15.905   2.651  1.00  0.00     0.171 HD
HETATM    7  N   UNK N   1      20.115  18.061   0.238  0.00  0.00    -0.301 N 
ATOM      8  HN  UNK N   1      20.020  18.114  -0.777  1.00  0.00     0.171 HD
ENDROOT
BRANCH   2   9
HETATM    9  N   UNK N   1      20.501  17.559   4.375  0.00  0.00    -0.371 N 
HETATM   10  H   UNK N   1      19.961  18.110   4.987  0.00  0.00     0.161 HD
BRANCH   9  11
HETATM   11  C   UNK N   1      21.324  16.565   4.991  0.00  0.00     0.155 C 
BRANCH  11  12
HETATM   12  C   UNK N   1      21.755  16.906   6.412  0.00  0.00     0.167 C 
BRANCH  12  13
HETATM   13  C   UNK N   1      20.497  17.490   7.097  0.00  0.00     0.179 C 
BRANCH  13  14
HETATM   14  C   UNK N   1      19.884  16.686   8.256  0.00  0.00     0.173 C 
BRANCH  14  15
HETATM   15  C   UNK N   1      18.634  17.311   8.852  0.00  0.00     0.198 C 
BRANCH  15  16
HETATM   16  O   UNK N   1      18.985  18.479   9.536  0.00  0.00    -0.398 OA
HETATM   17  H   UNK N   1      18.362  18.929  10.127  0.00  0.00     0.209 HD
ENDBRANCH  15  16
ENDBRANCH  14  15
BRANCH  14  18
HETATM   18  O   UNK N   1      20.833  16.482   9.261  0.00  0.00    -0.391 OA
HETATM   19  H   UNK N   1      20.568  16.480  10.194  0.00  0.00     0.210 HD
ENDBRANCH  14  18
ENDBRANCH  13  14
BRANCH  13  20
HETATM   20  O   UNK N   1      20.768  18.796   7.523  0.00  0.00    -0.390 OA
HETATM   21  H   UNK N   1      20.252  19.538   7.170  0.00  0.00     0.210 HD
ENDBRANCH  13  20
ENDBRANCH  12  13
BRANCH  12  22
HETATM   22  O   UNK N   1      22.178  15.734   7.039  0.00  0.00    -0.391 OA
HETATM   23  H   UNK N   1      22.711  15.774   7.848  0.00  0.00     0.210 HD
ENDBRANCH  12  22
ENDBRANCH  11  12
ENDBRANCH   9  11
ENDBRANCH   2   9
BRANCH   1  24
HETATM   24  N   UNK N   1      21.024  20.345   3.020  0.00  0.00    -0.107 N 
HETATM   25  O   UNK N   1      21.909  21.012   2.579  0.00  0.00    -0.531 OA
HETATM   26  O   UNK N   1      20.368  20.800   3.900  0.00  0.00    -0.531 OA
ENDBRANCH   1  24
BRANCH   3  27
HETATM   27  O   UNK N   1      20.723  20.295   0.236  0.00  0.00    -0.344 OA
HETATM   28  H   UNK N   1      21.556  20.439  -0.169  0.00  0.00     0.219 HD
ENDBRANCH   3  27
BRANCH   4  29
HETATM   29  O   UNK N   1      19.474  15.823   0.153  0.00  0.00    -0.332 OA
HETATM   30  H   UNK N   1      18.768  15.285   0.450  0.00  0.00     0.221 HD
ENDBRANCH   4  29
TORSDOF 13
ENDMDL
MODEL 6
REMARK VINA RESULT:      -5.7      8.650     11.883
REMARK  13 active torsions:
REMARK  status: ('A' for Active; 'I' for Inactive)
REMARK    1  A    between atoms: C_3  and  C_1 
REMARK    2  A    between atoms: N_10  and  C_1 
REMARK    3  A    between atoms: C_4  and  C_2 
REMARK    4  A    between atoms: O_16  and  C_2 
REMARK    5  A    between atoms: C_6  and  C_3 
REMARK    6  A    between atoms: C_3  and  O_17 
REMARK    7  A    between atoms: C_6  and  C_4 
REMARK    8  A    between atoms: C_4  and  O_18 
REMARK    9  A    between atoms: N_15  and  C_5 
REMARK   10  A    between atoms: C_6  and  O_19 
REMARK   11  A    between atoms: N_10  and  C_7 
REMARK   12  A    between atoms: O_20  and  C_8 
REMARK   13  A    between atoms: O_21  and  C_9 
ROOT
HETATM    1  C   UNK N   1      29.392  17.991   8.065  0.00  0.00     0.197 A 
HETATM    2  C   UNK N   1      30.241  17.491   6.998  0.00  0.00     0.142 A 
HETATM    3  C   UNK N   1      28.196  18.650   7.664  0.00  0.00     0.180 A 
HETATM    4  C   UNK N   1      28.674  18.275   5.388  0.00  0.00     0.224 A 
HETATM    5  N   UNK N   1      29.833  17.665   5.714  0.00  0.00    -0.306 N 
ATOM      6  HN  UNK N   1      30.429  17.319   4.962  1.00  0.00     0.171 HD
HETATM    7  N   UNK N   1      27.873  18.764   6.354  0.00  0.00    -0.301 N 
ATOM      8  HN  UNK N   1      27.005  19.233   6.094  1.00  0.00     0.171 HD
ENDROOT
BRANCH   2   9
HETATM    9  N   UNK N   1      31.517  16.866   7.152  0.00  0.00    -0.371 N 
HETATM   10  H   UNK N   1      31.508  15.885   7.239  0.00  0.00     0.161 HD
BRANCH   9  11
HETATM   11  C   UNK N   1      32.806  17.486   7.195  0.00  0.00     0.155 C 
BRANCH  11  12
HETATM   12  C   UNK N   1      33.378  17.636   8.599  0.00  0.00     0.167 C 
BRANCH  12  13
HETATM   13  C   UNK N   1      33.632  16.195   9.099  0.00  0.00     0.179 C 
BRANCH  13  14
HETATM   14  C   UNK N   1      34.857  15.962  10.000  0.00  0.00     0.173 C 
BRANCH  14  15
HETATM   15  C   UNK N   1      34.922  14.573  10.612  0.00  0.00     0.198 C 
BRANCH  15  16
HETATM   16  O   UNK N   1      33.969  14.475  11.631  0.00  0.00    -0.398 OA
HETATM   17  H   UNK N   1      34.158  14.770  12.535  0.00  0.00     0.209 HD
ENDBRANCH  15  16
ENDBRANCH  14  15
BRANCH  14  18
HETATM   18  O   UNK N   1      34.906  16.926  11.010  0.00  0.00    -0.391 OA
HETATM   19  H   UNK N   1      34.494  17.795  10.879  0.00  0.00     0.210 HD
ENDBRANCH  14  18
ENDBRANCH  13  14
BRANCH  13  20
HETATM   20  O   UNK N   1      32.481  15.718   9.737  0.00  0.00    -0.390 OA
HETATM   21  H   UNK N   1      32.198  14.800   9.606  0.00  0.00     0.210 HD
ENDBRANCH  13  20
ENDBRANCH  12  13
BRANCH  12  22
HETATM   22  O   UNK N   1      34.566  18.362   8.517  0.00  0.00    -0.391 OA
HETATM   23  H   UNK N   1      34.800  19.003   9.206  0.00  0.00     0.210 HD
ENDBRANCH  12  22
ENDBRANCH  11  12
ENDBRANCH   9  11
ENDBRANCH   2   9
BRANCH   1  24
HETATM   24  N   UNK N   1      29.672  17.885   9.481  0.00  0.00    -0.107 N 
HETATM   25  O   UNK N   1      29.642  18.859  10.169  0.00  0.00    -0.531 OA
HETATM   26  O   UNK N   1      29.744  16.826  10.017  0.00  0.00    -0.531 OA
ENDBRANCH   1  24
BRANCH   3  27
HETATM   27  O   UNK N   1      27.343  19.149   8.575  0.00  0.00    -0.344 OA
HETATM   28  H   UNK N   1      27.511  19.031   9.489  0.00  0.00     0.219 HD
ENDBRANCH   3  27
BRANCH   4  29
HETATM   29  O   UNK N   1      28.321  18.399   4.098  0.00  0.00    -0.332 OA
HETATM   30  H   UNK N   1      27.530  18.009   3.782  0.00  0.00     0.221 HD
ENDBRANCH   4  29
TORSDOF 13
ENDMDL
MODEL 7
REMARK VINA RESULT:      -5.7      4.710      8.022
REMARK  13 active torsions:
REMARK  status: ('A' for Active; 'I' for Inactive)
REMARK    1  A    between atoms: C_3  and  C_1 
REMARK    2  A    between atoms: N_10  and  C_1 
REMARK    3  A    between atoms: C_4  and  C_2 
REMARK    4  A    between atoms: O_16  and  C_2 
REMARK    5  A    between atoms: C_6  and  C_3 
REMARK    6  A    between atoms: C_3  and  O_17 
REMARK    7  A    between atoms: C_6  and  C_4 
REMARK    8  A    between atoms: C_4  and  O_18 
REMARK    9  A    between atoms: N_15  and  C_5 
REMARK   10  A    between atoms: C_6  and  O_19 
REMARK   11  A    between atoms: N_10  and  C_7 
REMARK   12  A    between atoms: O_20  and  C_8 
REMARK   13  A    between atoms: O_21  and  C_9 
ROOT
HETATM    1  C   UNK N   1      20.844  17.607   2.969  0.00  0.00     0.197 A 
HETATM    2  C   UNK N   1      21.773  18.455   3.694  0.00  0.00     0.142 A 
HETATM    3  C   UNK N   1      20.037  18.248   1.988  0.00  0.00     0.180 A 
HETATM    4  C   UNK N   1      21.052  20.330   2.417  0.00  0.00     0.224 A 
HETATM    5  N   UNK N   1      21.823  19.776   3.377  0.00  0.00    -0.306 N 
ATOM      6  HN  UNK N   1      22.471  20.376   3.887  1.00  0.00     0.171 HD
HETATM    7  N   UNK N   1      20.168  19.573   1.740  0.00  0.00    -0.301 N 
ATOM      8  HN  UNK N   1      19.584  20.007   1.024  1.00  0.00     0.171 HD
ENDROOT
BRANCH   2   9
HETATM    9  N   UNK N   1      22.626  18.055   4.768  0.00  0.00    -0.371 N 
HETATM   10  H   UNK N   1      23.586  18.244   4.648  0.00  0.00     0.161 HD
BRANCH   9  11
HETATM   11  C   UNK N   1      22.264  17.414   5.994  0.00  0.00     0.155 C 
BRANCH  11  12
HETATM   12  C   UNK N   1      20.843  17.714   6.457  0.00  0.00     0.167 C 
BRANCH  12  13
HETATM   13  C   UNK N   1      20.330  16.402   7.095  0.00  0.00     0.179 C 
BRANCH  13  14
HETATM   14  C   UNK N   1      20.219  16.354   8.628  0.00  0.00     0.173 C 
BRANCH  14  15
HETATM   15  C   UNK N   1      20.120  14.951   9.200  0.00  0.00     0.198 C 
BRANCH  15  16
HETATM   16  O   UNK N   1      20.229  14.022   8.160  0.00  0.00    -0.398 OA
HETATM   17  H   UNK N   1      20.185  13.067   8.324  0.00  0.00     0.209 HD
ENDBRANCH  15  16
ENDBRANCH  14  15
BRANCH  14  18
HETATM   18  O   UNK N   1      19.130  17.117   9.059  0.00  0.00    -0.391 OA
HETATM   19  H   UNK N   1      19.063  18.055   8.820  0.00  0.00     0.210 HD
ENDBRANCH  14  18
ENDBRANCH  13  14
BRANCH  13  20
HETATM   20  O   UNK N   1      19.098  16.063   6.523  0.00  0.00    -0.390 OA
HETATM   21  H   UNK N   1      18.346  15.832   7.092  0.00  0.00     0.210 HD
ENDBRANCH  13  20
ENDBRANCH  12  13
BRANCH  12  22
HETATM   22  O   UNK N   1      20.893  18.748   7.392  0.00  0.00    -0.391 OA
HETATM   23  H   UNK N   1      21.522  18.715   8.129  0.00  0.00     0.210 HD
ENDBRANCH  12  22
ENDBRANCH  11  12
ENDBRANCH   9  11
ENDBRANCH   2   9
BRANCH   1  24
HETATM   24  N   UNK N   1      20.668  16.185   3.175  0.00  0.00    -0.107 N 
HETATM   25  O   UNK N   1      21.611  15.457   3.142  0.00  0.00    -0.531 OA
HETATM   26  O   UNK N   1      19.635  15.743   3.566  0.00  0.00    -0.531 OA
ENDBRANCH   1  24
BRANCH   3  27
HETATM   27  O   UNK N   1      19.144  17.551   1.263  0.00  0.00    -0.344 OA
HETATM   28  H   UNK N   1      19.360  16.693   0.954  0.00  0.00     0.219 HD
ENDBRANCH   3  27
BRANCH   4  29
HETATM   29  O   UNK N   1      21.163  21.640   2.141  0.00  0.00    -0.332 OA
HETATM   30  H   UNK N   1      20.788  21.994   1.360  0.00  0.00     0.221 HD
ENDBRANCH   4  29
TORSDOF 13
ENDMDL
MODEL 8
REMARK VINA RESULT:      -5.7     11.746     14.533
REMARK  13 active torsions:
REMARK  status: ('A' for Active; 'I' for Inactive)
REMARK    1  A    between atoms: C_3  and  C_1 
REMARK    2  A    between atoms: N_10  and  C_1 
REMARK    3  A    between atoms: C_4  and  C_2 
REMARK    4  A    between atoms: O_16  and  C_2 
REMARK    5  A    between atoms: C_6  and  C_3 
REMARK    6  A    between atoms: C_3  and  O_17 
REMARK    7  A    between atoms: C_6  and  C_4 
REMARK    8  A    between atoms: C_4  and  O_18 
REMARK    9  A    between atoms: N_15  and  C_5 
REMARK   10  A    between atoms: C_6  and  O_19 
REMARK   11  A    between atoms: N_10  and  C_7 
REMARK   12  A    between atoms: O_20  and  C_8 
REMARK   13  A    between atoms: O_21  and  C_9 
ROOT
HETATM    1  C   UNK N   1      33.981  16.571   8.331  0.00  0.00     0.197 A 
HETATM    2  C   UNK N   1      33.379  15.496   9.099  0.00  0.00     0.142 A 
HETATM    3  C   UNK N   1      33.961  16.424   6.915  0.00  0.00     0.180 A 
HETATM    4  C   UNK N   1      32.812  14.374   7.078  0.00  0.00     0.224 A 
HETATM    5  N   UNK N   1      32.828  14.452   8.425  0.00  0.00    -0.306 N 
ATOM      6  HN  UNK N   1      32.407  13.693   8.962  1.00  0.00     0.171 HD
HETATM    7  N   UNK N   1      33.378  15.348   6.338  0.00  0.00    -0.301 N 
ATOM      8  HN  UNK N   1      33.368  15.271   5.320  1.00  0.00     0.171 HD
ENDROOT
BRANCH   2   9
HETATM    9  N   UNK N   1      33.346  15.386  10.523  0.00  0.00    -0.371 N 
HETATM   10  H   UNK N   1      32.470  15.537  10.946  0.00  0.00     0.161 HD
BRANCH   9  11
HETATM   11  C   UNK N   1      34.425  15.084  11.411  0.00  0.00     0.155 C 
BRANCH  11  12
HETATM   12  C   UNK N   1      34.876  13.629  11.373  0.00  0.00     0.167 C 
BRANCH  12  13
HETATM   13  C   UNK N   1      36.421  13.675  11.312  0.00  0.00     0.179 C 
BRANCH  13  14
HETATM   14  C   UNK N   1      37.062  14.523  10.201  0.00  0.00     0.173 C 
BRANCH  14  15
HETATM   15  C   UNK N   1      38.337  13.930   9.626  0.00  0.00     0.198 C 
BRANCH  15  16
HETATM   16  O   UNK N   1      39.131  13.446  10.671  0.00  0.00    -0.398 OA
HETATM   17  H   UNK N   1      39.979  13.858  10.899  0.00  0.00     0.209 HD
ENDBRANCH  15  16
ENDBRANCH  14  15
BRANCH  14  18
HETATM   18  O   UNK N   1      37.310  15.818  10.662  0.00  0.00    -0.391 OA
HETATM   19  H   UNK N   1      37.843  16.434  10.134  0.00  0.00     0.210 HD
ENDBRANCH  14  18
ENDBRANCH  13  14
BRANCH  13  20
HETATM   20  O   UNK N   1      36.918  14.078  12.558  0.00  0.00    -0.390 OA
HETATM   21  H   UNK N   1      36.307  14.258  13.290  0.00  0.00     0.210 HD
ENDBRANCH  13  20
ENDBRANCH  12  13
BRANCH  12  22
HETATM   22  O   UNK N   1      34.432  12.998  12.535  0.00  0.00    -0.391 OA
HETATM   23  H   UNK N   1      34.398  13.481  13.375  0.00  0.00     0.210 HD
ENDBRANCH  12  22
ENDBRANCH  11  12
ENDBRANCH   9  11
ENDBRANCH   2   9
BRANCH   1  24
HETATM   24  N   UNK N   1      34.604  17.754   8.886  0.00  0.00    -0.107 N 
HETATM   25  O   UNK N   1      35.384  17.652   9.782  0.00  0.00    -0.531 OA
HETATM   26  O   UNK N   1      34.506  18.810   8.350  0.00  0.00    -0.531 OA
ENDBRANCH   1  24
BRANCH   3  27
HETATM   27  O   UNK N   1      34.493  17.364   6.115  0.00  0.00    -0.344 OA
HETATM   28  H   UNK N   1      34.487  18.263   6.379  0.00  0.00     0.219 HD
ENDBRANCH   3  27
BRANCH   4  29
HETATM   29  O   UNK N   1      32.235  13.322   6.473  0.00  0.00    -0.332 OA
HETATM   30  H   UNK N   1      31.302  13.243   6.446  0.00  0.00     0.221 HD
ENDBRANCH   4  29
TORSDOF 13
ENDMDL
MODEL 9
REMARK VINA RESULT:      -5.6      5.426      8.778
REMARK  13 active torsions:
REMARK  status: ('A' for Active; 'I' for Inactive)
REMARK    1  A    between atoms: C_3  and  C_1 
REMARK    2  A    between atoms: N_10  and  C_1 
REMARK    3  A    between atoms: C_4  and  C_2 
REMARK    4  A    between atoms: O_16  and  C_2 
REMARK    5  A    between atoms: C_6  and  C_3 
REMARK    6  A    between atoms: C_3  and  O_17 
REMARK    7  A    between atoms: C_6  and  C_4 
REMARK    8  A    between atoms: C_4  and  O_18 
REMARK    9  A    between atoms: N_15  and  C_5 
REMARK   10  A    between atoms: C_6  and  O_19 
REMARK   11  A    between atoms: N_10  and  C_7 
REMARK   12  A    between atoms: O_20  and  C_8 
REMARK   13  A    between atoms: O_21  and  C_9 
ROOT
HETATM    1  C   UNK N   1      20.535  19.209   2.334  0.00  0.00     0.197 A 
HETATM    2  C   UNK N   1      20.253  17.964   3.026  0.00  0.00     0.142 A 
HETATM    3  C   UNK N   1      20.466  19.171   0.912  0.00  0.00     0.180 A 
HETATM    4  C   UNK N   1      19.851  16.897   0.936  0.00  0.00     0.224 A 
HETATM    5  N   UNK N   1      19.928  16.872   2.284  0.00  0.00    -0.306 N 
ATOM      6  HN  UNK N   1      19.733  15.995   2.767  1.00  0.00     0.171 HD
HETATM    7  N   UNK N   1      20.123  18.032   0.265  0.00  0.00    -0.301 N 
ATOM      8  HN  UNK N   1      20.072  18.034  -0.754  1.00  0.00     0.171 HD
ENDROOT
BRANCH   2   9
HETATM    9  N   UNK N   1      20.332  17.740   4.434  0.00  0.00    -0.371 N 
HETATM   10  H   UNK N   1      19.500  17.886   4.941  0.00  0.00     0.161 HD
BRANCH   9  11
HETATM   11  C   UNK N   1      21.467  17.330   5.202  0.00  0.00     0.155 C 
BRANCH  11  12
HETATM   12  C   UNK N   1      21.117  16.706   6.548  0.00  0.00     0.167 C 
BRANCH  12  13
HETATM   13  C   UNK N   1      19.877  15.820   6.282  0.00  0.00     0.179 C 
BRANCH  13  14
HETATM   14  C   UNK N   1      20.124  14.381   5.798  0.00  0.00     0.173 C 
BRANCH  14  15
HETATM   15  C   UNK N   1      19.085  13.870   4.815  0.00  0.00     0.198 C 
BRANCH  15  16
HETATM   16  O   UNK N   1      18.785  14.881   3.896  0.00  0.00    -0.398 OA
HETATM   17  H   UNK N   1      18.914  14.756   2.942  0.00  0.00     0.209 HD
ENDBRANCH  15  16
ENDBRANCH  14  15
BRANCH  14  18
HETATM   18  O   UNK N   1      20.212  13.511   6.887  0.00  0.00    -0.391 OA
HETATM   19  H   UNK N   1      20.095  13.843   7.791  0.00  0.00     0.210 HD
ENDBRANCH  14  18
ENDBRANCH  13  14
BRANCH  13  20
HETATM   20  O   UNK N   1      19.073  15.798   7.428  0.00  0.00    -0.390 OA
HETATM   21  H   UNK N   1      18.178  15.425   7.386  0.00  0.00     0.210 HD
ENDBRANCH  13  20
ENDBRANCH  12  13
BRANCH  12  22
HETATM   22  O   UNK N   1      22.204  15.944   6.977  0.00  0.00    -0.391 OA
HETATM   23  H   UNK N   1      22.611  15.291   6.387  0.00  0.00     0.210 HD
ENDBRANCH  12  22
ENDBRANCH  11  12
ENDBRANCH   9  11
ENDBRANCH   2   9
BRANCH   1  24
HETATM   24  N   UNK N   1      20.889  20.461   2.967  0.00  0.00    -0.107 N 
HETATM   25  O   UNK N   1      20.275  20.844   3.915  0.00  0.00    -0.531 OA
HETATM   26  O   UNK N   1      21.895  21.029   2.687  0.00  0.00    -0.531 OA
ENDBRANCH   1  24
BRANCH   3  27
HETATM   27  O   UNK N   1      20.710  20.270   0.178  0.00  0.00    -0.344 OA
HETATM   28  H   UNK N   1      20.900  21.084   0.603  0.00  0.00     0.219 HD
ENDBRANCH   3  27
BRANCH   4  29
HETATM   29  O   UNK N   1      19.507  15.786   0.264  0.00  0.00    -0.332 OA
HETATM   30  H   UNK N   1      19.011  15.112   0.683  0.00  0.00     0.221 HD
ENDBRANCH   4  29
TORSDOF 13
ENDMDL
