MODEL 1
REMARK VINA RESULT:      -3.6      0.000      0.000
REMARK  3 active torsions:
REMARK  status: ('A' for Active; 'I' for Inactive)
REMARK    1  A    between atoms: C_2  and  S_4 
REMARK    2  A    between atoms: S_4  and  C_5 
REMARK    3  A    between atoms: C_5  and  N_6 
ROOT
HETATM    1  C   UNK N   1      23.931  12.206  11.387  0.00  0.00     0.131 C 
HETATM    2  N   UNK N   1      23.676  12.174  12.640  0.00  0.00    -0.380 N 
ATOM      3  HN  UNK N   1      24.381  12.478  13.312  1.00  0.00     0.158 HD
HETATM    4  H   UNK N   1      22.800  11.856  12.957  0.00  0.00     0.158 HD
ENDROOT
BRANCH   1   5
HETATM    5  S   UNK N   1      22.723  11.680  10.148  0.00  0.00    -0.091 SA
BRANCH   5   6
HETATM    6  C   UNK N   1      21.221  12.685  10.484  0.00  0.00     0.047 C 
HETATM    7  C   UNK N   1      20.287  12.159  11.552  0.00  0.00     0.021 C 
HETATM    8  C   UNK N   1      20.839  13.981   9.793  0.00  0.00     0.021 C 
ENDBRANCH   5   6
ENDBRANCH   1   5
BRANCH   1   9
HETATM    9  N   UNK N   1      25.191  12.664  10.950  0.00  0.00    -0.380 N 
HETATM   10  H   UNK N   1      25.914  12.811  11.602  0.00  0.00     0.158 HD
HETATM   11  H   UNK N   1      25.347  12.836   9.994  0.00  0.00     0.158 HD
ENDBRANCH   1   9
TORSDOF 3
ENDMDL
MODEL 2
REMARK VINA RESULT:      -3.6      0.093      1.388
REMARK  3 active torsions:
REMARK  status: ('A' for Active; 'I' for Inactive)
REMARK    1  A    between atoms: C_2  and  S_4 
REMARK    2  A    between atoms: S_4  and  C_5 
REMARK    3  A    between atoms: C_5  and  N_6 
ROOT
HETATM    1  C   UNK N   1      23.926  12.192  11.369  0.00  0.00     0.131 C 
HETATM    2  N   UNK N   1      23.633  12.137  12.614  0.00  0.00    -0.380 N 
ATOM      3  HN  UNK N   1      24.332  12.390  13.314  1.00  0.00     0.158 HD
HETATM    4  H   UNK N   1      22.735  11.851  12.896  0.00  0.00     0.158 HD
ENDROOT
BRANCH   1   5
HETATM    5  S   UNK N   1      22.731  11.757  10.082  0.00  0.00    -0.091 SA
BRANCH   5   6
HETATM    6  C   UNK N   1      21.174  12.605  10.566  0.00  0.00     0.047 C 
HETATM    7  C   UNK N   1      20.855  13.891   9.836  0.00  0.00     0.021 C 
HETATM    8  C   UNK N   1      20.190  12.134  11.621  0.00  0.00     0.021 C 
ENDBRANCH   5   6
ENDBRANCH   1   5
BRANCH   1   9
HETATM    9  N   UNK N   1      25.218  12.604  10.981  0.00  0.00    -0.380 N 
HETATM   10  H   UNK N   1      25.951  11.949  10.940  0.00  0.00     0.158 HD
HETATM   11  H   UNK N   1      25.385  13.547  10.752  0.00  0.00     0.158 HD
ENDBRANCH   1   9
TORSDOF 3
ENDMDL
MODEL 3
REMARK VINA RESULT:      -3.3     22.830     23.910
REMARK  3 active torsions:
REMARK  status: ('A' for Active; 'I' for Inactive)
REMARK    1  A    between atoms: C_2  and  S_4 
REMARK    2  A    between atoms: S_4  and  C_5 
REMARK    3  A    between atoms: C_5  and  N_6 
ROOT
HETATM    1  C   UNK N   1      44.045  22.457   4.017  0.00  0.00     0.131 C 
HETATM    2  N   UNK N   1      43.571  23.608   4.313  0.00  0.00    -0.380 N 
ATOM      3  HN  UNK N   1      44.194  24.348   4.638  1.00  0.00     0.158 HD
HETATM    4  H   UNK N   1      42.606  23.781   4.227  0.00  0.00     0.158 HD
ENDROOT
BRANCH   1   5
HETATM    5  S   UNK N   1      42.992  21.106   3.436  0.00  0.00    -0.091 SA
BRANCH   5   6
HETATM    6  C   UNK N   1      41.774  21.897   2.308  0.00  0.00     0.047 C 
HETATM    7  C   UNK N   1      40.365  21.348   2.351  0.00  0.00     0.021 C 
HETATM    8  C   UNK N   1      42.054  23.038   1.349  0.00  0.00     0.021 C 
ENDBRANCH   5   6
ENDBRANCH   1   5
BRANCH   1   9
HETATM    9  N   UNK N   1      45.430  22.227   4.146  0.00  0.00    -0.380 N 
HETATM   10  H   UNK N   1      46.073  22.914   3.858  0.00  0.00     0.158 HD
HETATM   11  H   UNK N   1      45.755  21.378   4.525  0.00  0.00     0.158 HD
ENDBRANCH   1   9
TORSDOF 3
ENDMDL
MODEL 4
REMARK VINA RESULT:      -3.3      9.066     10.335
REMARK  3 active torsions:
REMARK  status: ('A' for Active; 'I' for Inactive)
REMARK    1  A    between atoms: C_2  and  S_4 
REMARK    2  A    between atoms: S_4  and  C_5 
REMARK    3  A    between atoms: C_5  and  N_6 
ROOT
HETATM    1  C   UNK N   1      29.145  18.237   9.131  0.00  0.00     0.131 C 
HETATM    2  N   UNK N   1      29.806  18.634  10.152  0.00  0.00    -0.380 N 
ATOM      3  HN  UNK N   1      29.321  19.070  10.937  1.00  0.00     0.158 HD
HETATM    4  H   UNK N   1      30.784  18.519  10.181  0.00  0.00     0.158 HD
ENDROOT
BRANCH   1   5
HETATM    5  S   UNK N   1      29.948  17.457   7.711  0.00  0.00    -0.091 SA
BRANCH   5   6
HETATM    6  C   UNK N   1      31.616  16.969   8.310  0.00  0.00     0.047 C 
HETATM    7  C   UNK N   1      32.719  17.990   8.129  0.00  0.00     0.021 C 
HETATM    8  C   UNK N   1      31.982  15.648   8.962  0.00  0.00     0.021 C 
ENDBRANCH   5   6
ENDBRANCH   1   5
BRANCH   1   9
HETATM    9  N   UNK N   1      27.745  18.409   9.106  0.00  0.00    -0.380 N 
HETATM   10  H   UNK N   1      27.152  17.630   9.208  0.00  0.00     0.158 HD
HETATM   11  H   UNK N   1      27.363  19.308   8.986  0.00  0.00     0.158 HD
ENDBRANCH   1   9
TORSDOF 3
ENDMDL
MODEL 5
REMARK VINA RESULT:      -3.2     14.481     14.680
REMARK  3 active torsions:
REMARK  status: ('A' for Active; 'I' for Inactive)
REMARK    1  A    between atoms: C_2  and  S_4 
REMARK    2  A    between atoms: S_4  and  C_5 
REMARK    3  A    between atoms: C_5  and  N_6 
ROOT
HETATM    1  C   UNK N   1      36.748  13.383  14.966  0.00  0.00     0.131 C 
HETATM    2  N   UNK N   1      37.149  14.587  15.133  0.00  0.00    -0.380 N 
ATOM      3  HN  UNK N   1      38.078  14.864  14.814  1.00  0.00     0.158 HD
HETATM    4  H   UNK N   1      36.562  15.246  15.569  0.00  0.00     0.158 HD
ENDROOT
BRANCH   1   5
HETATM    5  S   UNK N   1      35.113  12.832  15.509  0.00  0.00    -0.091 SA
BRANCH   5   6
HETATM    6  C   UNK N   1      35.201  12.804  17.345  0.00  0.00     0.047 C 
HETATM    7  C   UNK N   1      35.289  11.440  17.992  0.00  0.00     0.021 C 
HETATM    8  C   UNK N   1      35.192  14.016  18.259  0.00  0.00     0.021 C 
ENDBRANCH   5   6
ENDBRANCH   1   5
BRANCH   1   9
HETATM    9  N   UNK N   1      37.602  12.452  14.340  0.00  0.00    -0.380 N 
HETATM   10  H   UNK N   1      38.410  12.135  14.805  0.00  0.00     0.158 HD
HETATM   11  H   UNK N   1      37.390  12.119  13.438  0.00  0.00     0.158 HD
ENDBRANCH   1   9
TORSDOF 3
ENDMDL
MODEL 6
REMARK VINA RESULT:      -3.2     10.757     11.797
REMARK  3 active torsions:
REMARK  status: ('A' for Active; 'I' for Inactive)
REMARK    1  A    between atoms: C_2  and  S_4 
REMARK    2  A    between atoms: S_4  and  C_5 
REMARK    3  A    between atoms: C_5  and  N_6 
ROOT
HETATM    1  C   UNK N   1      20.515  20.414   1.790  0.00  0.00     0.131 C 
HETATM    2  N   UNK N   1      20.465  20.606   0.527  0.00  0.00    -0.380 N 
ATOM      3  HN  UNK N   1      20.997  21.367   0.104  1.00  0.00     0.158 HD
HETATM    4  H   UNK N   1      19.913  20.019  -0.039  0.00  0.00     0.158 HD
ENDROOT
BRANCH   1   5
HETATM    5  S   UNK N   1      19.595  19.082   2.597  0.00  0.00    -0.091 SA
BRANCH   5   6
HETATM    6  C   UNK N   1      20.253  17.530   1.864  0.00  0.00     0.047 C 
HETATM    7  C   UNK N   1      21.136  16.687   2.759  0.00  0.00     0.021 C 
HETATM    8  C   UNK N   1      19.994  17.025   0.457  0.00  0.00     0.021 C 
ENDBRANCH   5   6
ENDBRANCH   1   5
BRANCH   1   9
HETATM    9  N   UNK N   1      21.311  21.264   2.586  0.00  0.00    -0.380 N 
HETATM   10  H   UNK N   1      22.258  21.405   2.360  0.00  0.00     0.158 HD
HETATM   11  H   UNK N   1      20.918  21.716   3.368  0.00  0.00     0.158 HD
ENDBRANCH   1   9
TORSDOF 3
ENDMDL
MODEL 7
REMARK VINA RESULT:      -3.1     22.848     23.922
REMARK  3 active torsions:
REMARK  status: ('A' for Active; 'I' for Inactive)
REMARK    1  A    between atoms: C_2  and  S_4 
REMARK    2  A    between atoms: S_4  and  C_5 
REMARK    3  A    between atoms: C_5  and  N_6 
ROOT
HETATM    1  C   UNK N   1      43.855  23.195   3.031  0.00  0.00     0.131 C 
HETATM    2  N   UNK N   1      45.048  22.805   2.785  0.00  0.00    -0.380 N 
ATOM      3  HN  UNK N   1      45.792  22.983   3.461  1.00  0.00     0.158 HD
HETATM    4  H   UNK N   1      45.249  22.333   1.945  0.00  0.00     0.158 HD
ENDROOT
BRANCH   1   5
HETATM    5  S   UNK N   1      42.493  22.910   1.874  0.00  0.00    -0.091 SA
BRANCH   5   6
HETATM    6  C   UNK N   1      41.579  21.468   2.555  0.00  0.00     0.047 C 
HETATM    7  C   UNK N   1      42.379  20.510   3.412  0.00  0.00     0.021 C 
HETATM    8  C   UNK N   1      40.111  21.155   2.336  0.00  0.00     0.021 C 
ENDBRANCH   5   6
ENDBRANCH   1   5
BRANCH   1   9
HETATM    9  N   UNK N   1      43.584  23.870   4.240  0.00  0.00    -0.380 N 
HETATM   10  H   UNK N   1      44.100  23.655   5.050  0.00  0.00     0.158 HD
HETATM   11  H   UNK N   1      42.879  24.557   4.272  0.00  0.00     0.158 HD
ENDBRANCH   1   9
TORSDOF 3
ENDMDL
MODEL 8
REMARK VINA RESULT:      -3.1      1.605      2.316
REMARK  3 active torsions:
REMARK  status: ('A' for Active; 'I' for Inactive)
REMARK    1  A    between atoms: C_2  and  S_4 
REMARK    2  A    between atoms: S_4  and  C_5 
REMARK    3  A    between atoms: C_5  and  N_6 
ROOT
HETATM    1  C   UNK N   1      24.578  12.511  10.552  0.00  0.00     0.131 C 
HETATM    2  N   UNK N   1      25.515  13.379  10.478  0.00  0.00    -0.380 N 
ATOM      3  HN  UNK N   1      25.912  13.775  11.331  1.00  0.00     0.158 HD
HETATM    4  H   UNK N   1      25.854  13.664   9.599  0.00  0.00     0.158 HD
ENDROOT
BRANCH   1   5
HETATM    5  S   UNK N   1      23.834  11.773   9.077  0.00  0.00    -0.091 SA
BRANCH   5   6
HETATM    6  C   UNK N   1      22.270  12.702   8.812  0.00  0.00     0.047 C 
HETATM    7  C   UNK N   1      21.501  12.373   7.551  0.00  0.00     0.021 C 
HETATM    8  C   UNK N   1      21.689  13.757   9.734  0.00  0.00     0.021 C 
ENDBRANCH   5   6
ENDBRANCH   1   5
BRANCH   1   9
HETATM    9  N   UNK N   1      24.104  12.113  11.819  0.00  0.00    -0.380 N 
HETATM   10  H   UNK N   1      23.164  11.845  11.932  0.00  0.00     0.158 HD
HETATM   11  H   UNK N   1      24.715  12.102  12.592  0.00  0.00     0.158 HD
ENDBRANCH   1   9
TORSDOF 3
ENDMDL
MODEL 9
REMARK VINA RESULT:      -3.1     11.660     12.410
REMARK  3 active torsions:
REMARK  status: ('A' for Active; 'I' for Inactive)
REMARK    1  A    between atoms: C_2  and  S_4 
REMARK    2  A    between atoms: S_4  and  C_5 
REMARK    3  A    between atoms: C_5  and  N_6 
ROOT
HETATM    1  C   UNK N   1      34.428  15.986  10.076  0.00  0.00     0.131 C 
HETATM    2  N   UNK N   1      35.015  16.954  10.672  0.00  0.00    -0.380 N 
ATOM      3  HN  UNK N   1      34.886  17.088  11.676  1.00  0.00     0.158 HD
HETATM    4  H   UNK N   1      35.592  17.568  10.164  0.00  0.00     0.158 HD
ENDROOT
BRANCH   1   5
HETATM    5  S   UNK N   1      34.617  15.695   8.300  0.00  0.00    -0.091 SA
BRANCH   5   6
HETATM    6  C   UNK N   1      33.563  16.965   7.491  0.00  0.00     0.047 C 
HETATM    7  C   UNK N   1      32.461  17.562   8.339  0.00  0.00     0.021 C 
HETATM    8  C   UNK N   1      33.698  17.462   6.063  0.00  0.00     0.021 C 
ENDBRANCH   5   6
ENDBRANCH   1   5
BRANCH   1   9
HETATM    9  N   UNK N   1      33.605  15.114  10.819  0.00  0.00    -0.380 N 
HETATM   10  H   UNK N   1      33.260  15.393  11.698  0.00  0.00     0.158 HD
HETATM   11  H   UNK N   1      33.376  14.227  10.459  0.00  0.00     0.158 HD
ENDBRANCH   1   9
TORSDOF 3
ENDMDL
