REMARK  3 active torsions:
REMARK  status: ('A' for Active; 'I' for Inactive)
REMARK    1  A    between atoms: C_2  and  C_4 
REMARK    2  A    between atoms: C_4  and  C_6 
REMARK    3  A    between atoms: C_6  and  O_7 
ROOT
HETATM    1  C   UNK N   1       1.563   0.971  -0.162  0.00  0.00     0.225 C 
HETATM    2  O   UNK N   1       2.777   0.842  -0.209  0.00  0.00    -0.286 OA
ENDROOT
BRANCH   1   3
HETATM    3  C   UNK N   1       0.989   2.363  -0.367  0.00  0.00     0.059 C 
HETATM    4  C   UNK N   1       1.605   3.347   0.611  0.00  0.00     0.018 C 
HETATM    5  C   UNK N   1      -0.524   2.478  -0.279  0.00  0.00     0.018 C 
ENDBRANCH   1   3
BRANCH   1   6
HETATM    6  C   UNK N   1       0.740  -0.249   0.070  0.00  0.00     0.213 C 
HETATM    7  O   UNK N   1      -0.478  -0.203   0.076  0.00  0.00    -0.644 OA
BRANCH   6   8
HETATM    8  O   UNK N   1       1.353  -1.435   0.258  0.00  0.00    -0.771 OA
HETATM    9  H   UNK N   1       0.852  -2.216   0.389  0.00  0.00     0.167 HD
ENDBRANCH   6   8
ENDBRANCH   1   6
TORSDOF 3
