REMARK  14 active torsions:
REMARK  status: ('A' for Active; 'I' for Inactive)
REMARK    1  A    between atoms: C_3  and  N_1 
REMARK    2  A    between atoms: C_9  and  O_16 
REMARK       I    between atoms: C_13  and  N_19 
REMARK    3  A    between atoms: C_14  and  C_20 
REMARK    4  A    between atoms: C_15  and  O_21 
REMARK    5  A    between atoms: C_20  and  O_22 
REMARK    6  A    between atoms: O_22  and  P_23 
REMARK    7  A    between atoms: P_23  and  O_24 
REMARK    8  A    between atoms: P_23  and  O_25 
REMARK    9  A    between atoms: O_24  and  P_27 
REMARK   10  A    between atoms: P_27  and  O_28 
REMARK   11  A    between atoms: P_27  and  O_29 
REMARK   12  A    between atoms: O_28  and  P_31 
REMARK   13  A    between atoms: P_31  and  O_32 
REMARK   14  A    between atoms: P_31  and  O_33 
ROOT
HETATM    1  C   UNK N   1       1.989   0.632   1.448  0.00  0.00     0.262 C 
HETATM    2  O   UNK N   1       0.845   1.464   1.342  0.00  0.00    -0.353 OA
HETATM    3  C   UNK N   1       1.613  -0.855   1.337  0.00  0.00     0.198 C 
HETATM    4  C   UNK N   1      -0.203   0.598   1.006  0.00  0.00     0.180 C 
HETATM    5  C   UNK N   1       0.169  -0.712   1.692  0.00  0.00     0.182 C 
ENDROOT
BRANCH   4   6
HETATM    6  C   UNK N   1      -0.247   0.580  -0.532  0.00  0.00     0.215 C 
BRANCH   6   7
HETATM    7  O   UNK N   1      -0.801  -0.588  -1.052  0.00  0.00    -0.294 OA
BRANCH   7   8
HETATM    8  P   UNK N   1      -2.465  -0.221  -1.344  0.00  0.00     0.401 P 
HETATM    9  O   UNK N   1      -2.560   1.249  -1.850  0.00  0.00    -0.631 OA
BRANCH   8  10
HETATM   10  O   UNK N   1      -3.363  -0.364   0.136  0.00  0.00    -0.195 OA
BRANCH  10  11
HETATM   11  P   UNK N   1      -4.970   0.081  -0.315  0.00  0.00     0.410 P 
HETATM   12  O   UNK N   1      -4.754   1.148   0.793  0.00  0.00    -0.631 OA
BRANCH  11  13
HETATM   13  O   UNK N   1      -6.433  -0.209   0.567  0.00  0.00    -0.195 OA
BRANCH  13  14
HETATM   14  P   UNK N   1      -7.663  -0.167  -0.662  0.00  0.00     0.399 P 
HETATM   15  O   UNK N   1      -7.766   1.257  -0.049  0.00  0.00    -0.631 OA
BRANCH  14  16
HETATM   16  O   UNK N   1      -8.060  -1.358   0.535  0.00  0.00    -0.307 OA
HETATM   17  H   UNK N   1      -8.748  -1.499   1.205  0.00  0.00     0.222 HD
ENDBRANCH  14  16
BRANCH  14  18
HETATM   18  O   UNK N   1      -9.336  -0.044  -0.227  0.00  0.00    -0.307 OA
HETATM   19  H   UNK N   1      -9.745   0.801   0.017  0.00  0.00     0.222 HD
ENDBRANCH  14  18
ENDBRANCH  13  14
ENDBRANCH  11  13
BRANCH  11  20
HETATM   20  O   UNK N   1      -4.910  -1.438   0.529  0.00  0.00    -0.307 OA
HETATM   21  H   UNK N   1      -5.628  -1.891   1.000  0.00  0.00     0.222 HD
ENDBRANCH  11  20
ENDBRANCH  10  11
ENDBRANCH   8  10
BRANCH   8  22
HETATM   22  O   UNK N   1      -3.089  -1.248  -2.596  0.00  0.00    -0.307 OA
HETATM   23  H   UNK N   1      -3.761  -1.233  -3.295  0.00  0.00     0.222 HD
ENDBRANCH   8  22
ENDBRANCH   7   8
ENDBRANCH   6   7
ENDBRANCH   4   6
BRANCH   5  24
HETATM   24  O   UNK N   1      -0.615  -1.808   1.326  0.00  0.00    -0.390 OA
HETATM   25  H   UNK N   1      -1.547  -1.717   1.072  0.00  0.00     0.210 HD
ENDBRANCH   5  24
BRANCH   1  26
HETATM   26  N   UNK N   1       3.099   1.096   0.608  0.00  0.00    -0.297 N 
HETATM   27  C   UNK N   1       4.168   0.413   0.182  0.00  0.00     0.159 A 
HETATM   28  C   UNK N   1       5.051   1.260  -0.377  0.00  0.00     0.147 A 
HETATM   29  N   UNK N   1       4.412  -0.914   0.311  0.00  0.00    -0.174 N 
HETATM   30  C   UNK N   1       6.278   0.794  -0.817  0.00  0.00     0.290 A 
HETATM   31  N   UNK N   1       4.560   2.514  -0.352  0.00  0.00    -0.345 N 
HETATM   32  N   UNK N   1       6.531  -0.558  -0.705  0.00  0.00    -0.154 N 
HETATM   33  O   UNK N   1       7.121   1.548  -1.264  0.00  0.00    -0.265 OA
HETATM   34  C   UNK N   1       5.597  -1.404  -0.159  0.00  0.00     0.680 A 
HETATM   35  H   UNK N   1       7.390  -0.920  -1.020  0.00  0.00     0.187 HD
HETATM   36  N   UNK N   1       5.864  -2.784  -0.072  0.00  0.00    -0.234 N 
HETATM   37  H   UNK N   1       5.121  -3.428  -0.011  0.00  0.00     0.174 HD
HETATM   38  H   UNK N   1       6.794  -3.105  -0.072  0.00  0.00     0.174 HD
HETATM   39  C   UNK N   1       3.354   2.389   0.272  0.00  0.00     0.188 A 
ATOM     40  HN  UNK N   1       4.991   3.363  -0.716  1.00  0.00     0.167 HD
ATOM     41  HN  UNK N   1       3.728  -1.531   0.750  1.00  0.00     0.186 HD
ENDBRANCH   1  26
BRANCH   3  42
HETATM   42  O   UNK N   1       1.724  -1.323   0.021  0.00  0.00    -0.388 OA
HETATM   43  H   UNK N   1       1.482  -1.551  -0.890  0.00  0.00     0.210 HD
ENDBRANCH   3  42
TORSDOF 14
