MODEL 1
REMARK VINA RESULT:      -5.1      0.000      0.000
REMARK  2 active torsions:
REMARK  status: ('A' for Active; 'I' for Inactive)
REMARK    1  A    between atoms: O_1  and  C_2 
REMARK    2  A    between atoms: C_2  and  C_3 
ROOT
HETATM    1  C   UNK N   1      23.145  12.035  11.705  0.00  0.00     0.007 A 
HETATM    2  C   UNK N   1      24.407  12.121  11.108  0.00  0.00     0.012 A 
HETATM    3  C   UNK N   1      24.534  12.360   9.739  0.00  0.00     0.004 A 
HETATM    4  C   UNK N   1      23.396  12.515   8.948  0.00  0.00     0.045 A 
HETATM    5  C   UNK N   1      22.127  12.433   9.524  0.00  0.00     0.155 A 
HETATM    6  F   UNK N   1      21.029  12.586   8.743  0.00  0.00    -0.203 F 
HETATM    7  C   UNK N   1      21.989  12.193  10.900  0.00  0.00     0.163 A 
HETATM    8  F   UNK N   1      20.742  12.118  11.430  0.00  0.00    -0.202 F 
ENDROOT
BRANCH   1   9
HETATM    9  C   UNK N   1      23.105  11.775  13.188  0.00  0.00     0.206 C 
BRANCH   9  10
HETATM   10  O   UNK N   1      23.926  12.627  13.927  0.00  0.00    -0.396 OA
HETATM   11  H   UNK N   1      24.838  12.790  13.642  0.00  0.00     0.209 HD
ENDBRANCH   9  10
ENDBRANCH   1   9
TORSDOF 2
ENDMDL
MODEL 2
REMARK VINA RESULT:      -5.0      1.818      2.607
REMARK  2 active torsions:
REMARK  status: ('A' for Active; 'I' for Inactive)
REMARK    1  A    between atoms: O_1  and  C_2 
REMARK    2  A    between atoms: C_2  and  C_3 
ROOT
HETATM    1  C   UNK N   1      23.352  12.400  10.709  0.00  0.00     0.007 A 
HETATM    2  C   UNK N   1      23.019  13.129   9.563  0.00  0.00     0.012 A 
HETATM    3  C   UNK N   1      21.694  13.483   9.303  0.00  0.00     0.004 A 
HETATM    4  C   UNK N   1      20.684  13.112  10.189  0.00  0.00     0.045 A 
HETATM    5  C   UNK N   1      20.996  12.383  11.339  0.00  0.00     0.155 A 
HETATM    6  F   UNK N   1      20.004  12.028  12.192  0.00  0.00    -0.203 F 
HETATM    7  C   UNK N   1      22.325  12.022  11.609  0.00  0.00     0.163 A 
HETATM    8  F   UNK N   1      22.596  11.315  12.735  0.00  0.00    -0.202 F 
ENDROOT
BRANCH   1   9
HETATM    9  C   UNK N   1      24.806  12.063  10.907  0.00  0.00     0.206 C 
BRANCH   9  10
HETATM   10  O   UNK N   1      25.595  13.163  11.246  0.00  0.00    -0.396 OA
HETATM   11  H   UNK N   1      25.180  13.968  11.594  0.00  0.00     0.209 HD
ENDBRANCH   9  10
ENDBRANCH   1   9
TORSDOF 2
ENDMDL
MODEL 3
REMARK VINA RESULT:      -4.9      1.929      2.461
REMARK  2 active torsions:
REMARK  status: ('A' for Active; 'I' for Inactive)
REMARK    1  A    between atoms: O_1  and  C_2 
REMARK    2  A    between atoms: C_2  and  C_3 
ROOT
HETATM    1  C   UNK N   1      22.887  12.081  11.589  0.00  0.00     0.007 A 
HETATM    2  C   UNK N   1      21.600  12.355  11.115  0.00  0.00     0.012 A 
HETATM    3  C   UNK N   1      21.391  12.709   9.781  0.00  0.00     0.004 A 
HETATM    4  C   UNK N   1      22.470  12.792   8.903  0.00  0.00     0.045 A 
HETATM    5  C   UNK N   1      23.763  12.522   9.356  0.00  0.00     0.155 A 
HETATM    6  F   UNK N   1      24.804  12.606   8.491  0.00  0.00    -0.203 F 
HETATM    7  C   UNK N   1      23.983  12.165  10.695  0.00  0.00     0.163 A 
HETATM    8  F   UNK N   1      25.251  11.909  11.105  0.00  0.00    -0.202 F 
ENDROOT
BRANCH   1   9
HETATM    9  C   UNK N   1      23.016  11.708  13.042  0.00  0.00     0.206 C 
BRANCH   9  10
HETATM   10  O   UNK N   1      23.856  12.555  13.765  0.00  0.00    -0.396 OA
HETATM   11  H   UNK N   1      24.691  12.218  14.127  0.00  0.00     0.209 HD
ENDBRANCH   9  10
ENDBRANCH   1   9
TORSDOF 2
ENDMDL
MODEL 4
REMARK VINA RESULT:      -4.8      2.405      3.455
REMARK  2 active torsions:
REMARK  status: ('A' for Active; 'I' for Inactive)
REMARK    1  A    between atoms: O_1  and  C_2 
REMARK    2  A    between atoms: C_2  and  C_3 
ROOT
HETATM    1  C   UNK N   1      22.191  12.836   9.889  0.00  0.00     0.007 A 
HETATM    2  C   UNK N   1      23.503  12.929   9.414  0.00  0.00     0.012 A 
HETATM    3  C   UNK N   1      24.579  12.528  10.208  0.00  0.00     0.004 A 
HETATM    4  C   UNK N   1      24.354  12.027  11.489  0.00  0.00     0.045 A 
HETATM    5  C   UNK N   1      23.051  11.926  11.982  0.00  0.00     0.155 A 
HETATM    6  F   UNK N   1      22.847  11.438  13.230  0.00  0.00    -0.203 F 
HETATM    7  C   UNK N   1      21.963  12.327  11.192  0.00  0.00     0.163 A 
HETATM    8  F   UNK N   1      20.709  12.216  11.699  0.00  0.00    -0.202 F 
ENDROOT
BRANCH   1   9
HETATM    9  C   UNK N   1      21.094  13.291   8.963  0.00  0.00     0.206 C 
BRANCH   9  10
HETATM   10  O   UNK N   1      20.933  12.476   7.842  0.00  0.00    -0.396 OA
HETATM   11  H   UNK N   1      21.241  12.779   6.974  0.00  0.00     0.209 HD
ENDBRANCH   9  10
ENDBRANCH   1   9
TORSDOF 2
ENDMDL
MODEL 5
REMARK VINA RESULT:      -4.5      1.990      2.918
REMARK  2 active torsions:
REMARK  status: ('A' for Active; 'I' for Inactive)
REMARK    1  A    between atoms: O_1  and  C_2 
REMARK    2  A    between atoms: C_2  and  C_3 
ROOT
HETATM    1  C   UNK N   1      23.292  12.587  10.388  0.00  0.00     0.007 A 
HETATM    2  C   UNK N   1      22.513  12.004  11.392  0.00  0.00     0.012 A 
HETATM    3  C   UNK N   1      21.136  12.225  11.445  0.00  0.00     0.004 A 
HETATM    4  C   UNK N   1      20.520  13.034  10.492  0.00  0.00     0.045 A 
HETATM    5  C   UNK N   1      21.281  13.626   9.481  0.00  0.00     0.155 A 
HETATM    6  F   UNK N   1      20.670  14.412   8.560  0.00  0.00    -0.203 F 
HETATM    7  C   UNK N   1      22.666  13.410   9.419  0.00  0.00     0.163 A 
HETATM    8  F   UNK N   1      23.378  13.999   8.426  0.00  0.00    -0.202 F 
ENDROOT
BRANCH   1   9
HETATM    9  C   UNK N   1      24.769  12.293  10.410  0.00  0.00     0.206 C 
BRANCH   9  10
HETATM   10  O   UNK N   1      25.559  13.415  10.661  0.00  0.00    -0.396 OA
HETATM   11  H   UNK N   1      25.635  14.114   9.993  0.00  0.00     0.209 HD
ENDBRANCH   9  10
ENDBRANCH   1   9
TORSDOF 2
ENDMDL
MODEL 6
REMARK VINA RESULT:      -4.5     10.299     11.647
REMARK  2 active torsions:
REMARK  status: ('A' for Active; 'I' for Inactive)
REMARK    1  A    between atoms: O_1  and  C_2 
REMARK    2  A    between atoms: C_2  and  C_3 
ROOT
HETATM    1  C   UNK N   1      20.924  19.916   2.236  0.00  0.00     0.007 A 
HETATM    2  C   UNK N   1      19.950  18.927   2.404  0.00  0.00     0.012 A 
HETATM    3  C   UNK N   1      20.123  17.906   3.340  0.00  0.00     0.004 A 
HETATM    4  C   UNK N   1      21.276  17.862   4.122  0.00  0.00     0.045 A 
HETATM    5  C   UNK N   1      22.261  18.840   3.970  0.00  0.00     0.155 A 
HETATM    6  F   UNK N   1      23.378  18.786   4.737  0.00  0.00    -0.203 F 
HETATM    7  C   UNK N   1      22.096  19.871   3.032  0.00  0.00     0.163 A 
HETATM    8  F   UNK N   1      23.071  20.807   2.908  0.00  0.00    -0.202 F 
ENDROOT
BRANCH   1   9
HETATM    9  C   UNK N   1      20.652  20.977   1.204  0.00  0.00     0.206 C 
BRANCH   9  10
HETATM   10  O   UNK N   1      20.609  20.489  -0.103  0.00  0.00    -0.396 OA
HETATM   11  H   UNK N   1      20.126  20.978  -0.787  0.00  0.00     0.209 HD
ENDBRANCH   9  10
ENDBRANCH   1   9
TORSDOF 2
ENDMDL
MODEL 7
REMARK VINA RESULT:      -4.5     14.495     15.129
REMARK  2 active torsions:
REMARK  status: ('A' for Active; 'I' for Inactive)
REMARK    1  A    between atoms: O_1  and  C_2 
REMARK    2  A    between atoms: C_2  and  C_3 
ROOT
HETATM    1  C   UNK N   1      36.442  13.492  15.584  0.00  0.00     0.007 A 
HETATM    2  C   UNK N   1      35.543  12.627  16.216  0.00  0.00     0.012 A 
HETATM    3  C   UNK N   1      34.997  12.950  17.460  0.00  0.00     0.004 A 
HETATM    4  C   UNK N   1      35.346  14.145  18.087  0.00  0.00     0.045 A 
HETATM    5  C   UNK N   1      36.242  15.022  17.473  0.00  0.00     0.155 A 
HETATM    6  F   UNK N   1      36.572  16.181  18.094  0.00  0.00    -0.203 F 
HETATM    7  C   UNK N   1      36.796  14.707  16.222  0.00  0.00     0.163 A 
HETATM    8  F   UNK N   1      37.663  15.579  15.651  0.00  0.00    -0.202 F 
ENDROOT
BRANCH   1   9
HETATM    9  C   UNK N   1      36.979  13.061  14.244  0.00  0.00     0.206 C 
BRANCH   9  10
HETATM   10  O   UNK N   1      36.863  14.038  13.255  0.00  0.00    -0.396 OA
HETATM   11  H   UNK N   1      37.367  14.863  13.327  0.00  0.00     0.209 HD
ENDBRANCH   9  10
ENDBRANCH   1   9
TORSDOF 2
ENDMDL
MODEL 8
REMARK VINA RESULT:      -4.5     14.485     14.872
REMARK  2 active torsions:
REMARK  status: ('A' for Active; 'I' for Inactive)
REMARK    1  A    between atoms: O_1  and  C_2 
REMARK    2  A    between atoms: C_2  and  C_3 
ROOT
HETATM    1  C   UNK N   1      35.819  12.956  16.649  0.00  0.00     0.007 A 
HETATM    2  C   UNK N   1      35.941  11.568  16.527  0.00  0.00     0.012 A 
HETATM    3  C   UNK N   1      35.653  10.729  17.605  0.00  0.00     0.004 A 
HETATM    4  C   UNK N   1      35.239  11.270  18.821  0.00  0.00     0.045 A 
HETATM    5  C   UNK N   1      35.112  12.653  18.964  0.00  0.00     0.155 A 
HETATM    6  F   UNK N   1      34.708  13.166  20.153  0.00  0.00    -0.203 F 
HETATM    7  C   UNK N   1      35.398  13.505  17.886  0.00  0.00     0.163 A 
HETATM    8  F   UNK N   1      35.265  14.845  18.056  0.00  0.00    -0.202 F 
ENDROOT
BRANCH   1   9
HETATM    9  C   UNK N   1      36.150  13.782  15.435  0.00  0.00     0.206 C 
BRANCH   9  10
HETATM   10  O   UNK N   1      37.483  14.190  15.382  0.00  0.00    -0.396 OA
HETATM   11  H   UNK N   1      37.718  15.025  14.948  0.00  0.00     0.209 HD
ENDBRANCH   9  10
ENDBRANCH   1   9
TORSDOF 2
ENDMDL
MODEL 9
REMARK VINA RESULT:      -4.5      2.999      4.189
REMARK  2 active torsions:
REMARK  status: ('A' for Active; 'I' for Inactive)
REMARK    1  A    between atoms: O_1  and  C_2 
REMARK    2  A    between atoms: C_2  and  C_3 
ROOT
HETATM    1  C   UNK N   1      21.908  13.414   9.562  0.00  0.00     0.007 A 
HETATM    2  C   UNK N   1      20.929  12.920  10.429  0.00  0.00     0.012 A 
HETATM    3  C   UNK N   1      21.280  12.138  11.530  0.00  0.00     0.004 A 
HETATM    4  C   UNK N   1      22.619  11.840  11.778  0.00  0.00     0.045 A 
HETATM    5  C   UNK N   1      23.613  12.323  10.924  0.00  0.00     0.155 A 
HETATM    6  F   UNK N   1      24.911  12.026  11.176  0.00  0.00    -0.203 F 
HETATM    7  C   UNK N   1      23.270  13.111   9.814  0.00  0.00     0.163 A 
HETATM    8  F   UNK N   1      24.257  13.566   9.003  0.00  0.00    -0.202 F 
ENDROOT
BRANCH   1   9
HETATM    9  C   UNK N   1      21.437  14.249   8.401  0.00  0.00     0.206 C 
BRANCH   9  10
HETATM   10  O   UNK N   1      20.052  14.240   8.231  0.00  0.00    -0.396 OA
HETATM   11  H   UNK N   1      19.671  14.050   7.360  0.00  0.00     0.209 HD
ENDBRANCH   9  10
ENDBRANCH   1   9
TORSDOF 2
ENDMDL
