MODEL 1
REMARK VINA RESULT:      -7.6      0.000      0.000
REMARK  4 active torsions:
REMARK  status: ('A' for Active; 'I' for Inactive)
REMARK    1  A    between atoms: C_16  and  C_8 
REMARK    2  A    between atoms: C_17  and  C_9 
REMARK    3  A    between atoms: N_20  and  C_16 
REMARK    4  A    between atoms: N_23  and  C_17 
ROOT
HETATM    1  C   UNK N   1      31.674  15.384   7.690  0.00  0.00     0.017 A 
HETATM    2  C   UNK N   1      34.957  11.012  14.535  0.00  0.00     0.017 A 
HETATM    3  C   UNK N   1      32.307  14.851   8.799  0.00  0.00     0.035 A 
HETATM    4  C   UNK N   1      34.569  11.838  13.491  0.00  0.00     0.035 A 
HETATM    5  C   UNK N   1      33.172  17.341   7.740  0.00  0.00     0.047 A 
HETATM    6  C   UNK N   1      36.737  12.599  15.160  0.00  0.00     0.047 A 
HETATM    7  C   UNK N   1      36.016  16.143  11.691  0.00  0.00     0.157 A 
HETATM    8  C   UNK N   1      32.085  16.620   7.141  0.00  0.00     0.009 A 
HETATM    9  C   UNK N   1      36.030  11.369  15.381  0.00  0.00     0.009 A 
HETATM   10  C   UNK N   1      33.784  16.763   8.862  0.00  0.00     0.063 A 
HETATM   11  C   UNK N   1      36.310  13.402  14.093  0.00  0.00     0.063 A 
HETATM   12  C   UNK N   1      33.346  15.576   9.337  0.00  0.00     0.085 A 
HETATM   13  C   UNK N   1      35.274  13.010  13.319  0.00  0.00     0.085 A 
HETATM   14  C   UNK N   1      34.969  16.195  10.561  0.00  0.00     0.112 A 
HETATM   15  C   UNK N   1      35.951  14.887  12.583  0.00  0.00     0.112 A 
HETATM   16  N   UNK N   1      34.829  17.190   9.631  0.00  0.00    -0.342 N 
HETATM   17  N   UNK N   1      36.770  14.608  13.644  0.00  0.00    -0.342 N 
HETATM   18  N   UNK N   1      34.058  15.218  10.370  0.00  0.00    -0.233 N 
HETATM   19  N   UNK N   1      35.044  13.904  12.397  0.00  0.00    -0.233 N 
HETATM   20 Zn   UNK N   1      33.760  13.716  11.220  0.00  0.00     0.000 Zn
HETATM   21  H   UNK N   1      35.356  18.017   9.538  0.00  0.00     0.167 HD
HETATM   22  H   UNK N   1      37.513  15.147  14.000  0.00  0.00     0.167 HD
ENDROOT
BRANCH   8  23
HETATM   23  C   UNK N   1      31.371  17.125   5.945  0.00  0.00     0.102 C 
HETATM   24  N   UNK N   1      30.082  17.216   5.926  0.00  0.00    -0.385 N 
HETATM   25  H   UNK N   1      29.488  16.947   6.729  0.00  0.00     0.157 HD
ATOM     26  HN  UNK N   1      29.631  17.569   5.082  1.00  0.00     0.157 HD
BRANCH  23  27
HETATM   27  N   UNK N   1      32.100  17.510   4.801  0.00  0.00    -0.385 N 
HETATM   28  H   UNK N   1      32.725  16.877   4.379  0.00  0.00     0.157 HD
HETATM   29  H   UNK N   1      31.986  18.412   4.424  0.00  0.00     0.157 HD
ENDBRANCH  23  27
ENDBRANCH   8  23
BRANCH   9  30
HETATM   30  C   UNK N   1      36.362  10.425  16.474  0.00  0.00     0.102 C 
HETATM   31  N   UNK N   1      37.063   9.371  16.265  0.00  0.00    -0.385 N 
HETATM   32  H   UNK N   1      37.423   9.133  15.333  0.00  0.00     0.157 HD
ATOM     33  HN  UNK N   1      37.268   8.750  17.049  1.00  0.00     0.157 HD
BRANCH  30  34
HETATM   34  N   UNK N   1      35.898  10.693  17.785  0.00  0.00    -0.385 N 
HETATM   35  H   UNK N   1      34.932  10.701  17.973  0.00  0.00     0.157 HD
HETATM   36  H   UNK N   1      36.542  10.872  18.508  0.00  0.00     0.157 HD
ENDBRANCH  30  34
ENDBRANCH   9  30
TORSDOF 4
ENDMDL
MODEL 2
REMARK VINA RESULT:      -7.6      0.054      9.000
REMARK  4 active torsions:
REMARK  status: ('A' for Active; 'I' for Inactive)
REMARK    1  A    between atoms: C_16  and  C_8 
REMARK    2  A    between atoms: C_17  and  C_9 
REMARK    3  A    between atoms: N_20  and  C_16 
REMARK    4  A    between atoms: N_23  and  C_17 
ROOT
HETATM    1  C   UNK N   1      34.984  10.961  14.471  0.00  0.00     0.017 A 
HETATM    2  C   UNK N   1      31.686  15.346   7.643  0.00  0.00     0.017 A 
HETATM    3  C   UNK N   1      34.608  11.783  13.424  0.00  0.00     0.035 A 
HETATM    4  C   UNK N   1      32.329  14.800   8.742  0.00  0.00     0.035 A 
HETATM    5  C   UNK N   1      36.718  12.575  15.153  0.00  0.00     0.047 A 
HETATM    6  C   UNK N   1      33.139  17.335   7.752  0.00  0.00     0.047 A 
HETATM    7  C   UNK N   1      35.989  16.129  11.693  0.00  0.00     0.157 A 
HETATM    8  C   UNK N   1      36.029  11.331  15.349  0.00  0.00     0.009 A 
HETATM    9  C   UNK N   1      32.070  16.605   7.130  0.00  0.00     0.009 A 
HETATM   10  C   UNK N   1      36.303  13.376  14.079  0.00  0.00     0.063 A 
HETATM   11  C   UNK N   1      33.761  16.743   8.860  0.00  0.00     0.063 A 
HETATM   12  C   UNK N   1      35.294  12.967  13.279  0.00  0.00     0.085 A 
HETATM   13  C   UNK N   1      33.351  15.534   9.304  0.00  0.00     0.085 A 
HETATM   14  C   UNK N   1      35.943  14.864  12.572  0.00  0.00     0.112 A 
HETATM   15  C   UNK N   1      34.951  16.170  10.554  0.00  0.00     0.112 A 
HETATM   16  N   UNK N   1      36.745  14.596  13.649  0.00  0.00    -0.342 N 
HETATM   17  N   UNK N   1      34.790  17.180   9.644  0.00  0.00    -0.342 N 
HETATM   18  N   UNK N   1      35.065  13.862  12.358  0.00  0.00    -0.233 N 
HETATM   19  N   UNK N   1      34.067  15.173  10.334  0.00  0.00    -0.233 N 
HETATM   20 Zn   UNK N   1      33.807  13.649  11.157  0.00  0.00     0.000 Zn
HETATM   21  H   UNK N   1      37.467  15.148  14.025  0.00  0.00     0.167 HD
HETATM   22  H   UNK N   1      35.295  18.022   9.573  0.00  0.00     0.167 HD
ENDROOT
BRANCH   8  23
HETATM   23  C   UNK N   1      36.371  10.409  16.457  0.00  0.00     0.102 C 
HETATM   24  N   UNK N   1      37.093   9.357  16.252  0.00  0.00    -0.385 N 
HETATM   25  H   UNK N   1      37.466   9.106  15.321  0.00  0.00     0.157 HD
ATOM     26  HN  UNK N   1      37.304   8.749  17.043  1.00  0.00     0.157 HD
BRANCH  23  27
HETATM   27  N   UNK N   1      35.899  10.671  17.760  0.00  0.00    -0.385 N 
HETATM   28  H   UNK N   1      35.847  11.598  18.087  0.00  0.00     0.157 HD
HETATM   29  H   UNK N   1      35.623   9.928  18.343  0.00  0.00     0.157 HD
ENDBRANCH  23  27
ENDBRANCH   8  23
BRANCH   9  30
HETATM   30  C   UNK N   1      31.328  17.100   5.947  0.00  0.00     0.102 C 
HETATM   31  N   UNK N   1      30.048  17.190   5.943  0.00  0.00    -0.385 N 
HETATM   32  H   UNK N   1      29.481  16.922   6.757  0.00  0.00     0.157 HD
ATOM     33  HN  UNK N   1      29.578  17.538   5.107  1.00  0.00     0.157 HD
BRANCH  30  34
HETATM   34  N   UNK N   1      32.047  17.488   4.790  0.00  0.00    -0.385 N 
HETATM   35  H   UNK N   1      31.593  17.989   4.075  0.00  0.00     0.157 HD
HETATM   36  H   UNK N   1      32.999  17.256   4.701  0.00  0.00     0.157 HD
ENDBRANCH  30  34
ENDBRANCH   9  30
TORSDOF 4
ENDMDL
MODEL 3
REMARK VINA RESULT:      -7.4      2.412      9.345
REMARK  4 active torsions:
REMARK  status: ('A' for Active; 'I' for Inactive)
REMARK    1  A    between atoms: C_16  and  C_8 
REMARK    2  A    between atoms: C_17  and  C_9 
REMARK    3  A    between atoms: N_20  and  C_16 
REMARK    4  A    between atoms: N_23  and  C_17 
ROOT
HETATM    1  C   UNK N   1      35.145  13.611  17.823  0.00  0.00     0.017 A 
HETATM    2  C   UNK N   1      34.710  16.147   9.449  0.00  0.00     0.017 A 
HETATM    3  C   UNK N   1      35.067  13.821  16.458  0.00  0.00     0.035 A 
HETATM    4  C   UNK N   1      34.783  15.567  10.706  0.00  0.00     0.035 A 
HETATM    5  C   UNK N   1      35.262  11.174  17.472  0.00  0.00     0.047 A 
HETATM    6  C   UNK N   1      34.796  13.923   8.391  0.00  0.00     0.047 A 
HETATM    7  C   UNK N   1      35.071  11.018  12.465  0.00  0.00     0.157 A 
HETATM    8  C   UNK N   1      35.245  12.306  18.355  0.00  0.00     0.009 A 
HETATM    9  C   UNK N   1      34.712  15.352   8.282  0.00  0.00     0.009 A 
HETATM   10  C   UNK N   1      35.181  11.433  16.097  0.00  0.00     0.063 A 
HETATM   11  C   UNK N   1      34.868  13.380   9.681  0.00  0.00     0.063 A 
HETATM   12  C   UNK N   1      35.091  12.706  15.650  0.00  0.00     0.085 A 
HETATM   13  C   UNK N   1      34.858  14.192  10.762  0.00  0.00     0.085 A 
HETATM   14  C   UNK N   1      35.096  11.431  13.950  0.00  0.00     0.112 A 
HETATM   15  C   UNK N   1      34.983  12.188  11.465  0.00  0.00     0.112 A 
HETATM   16  N   UNK N   1      35.185  10.586  15.024  0.00  0.00    -0.342 N 
HETATM   17  N   UNK N   1      34.948  12.082  10.100  0.00  0.00    -0.342 N 
HETATM   18  N   UNK N   1      35.038  12.719  14.347  0.00  0.00    -0.233 N 
HETATM   19  N   UNK N   1      34.926  13.480  11.853  0.00  0.00    -0.233 N 
HETATM   20 Zn   UNK N   1      34.929  14.216  13.443  0.00  0.00     0.000 Zn
HETATM   21  H   UNK N   1      35.240   9.604  15.025  0.00  0.00     0.167 HD
HETATM   22  H   UNK N   1      34.975  11.265   9.551  0.00  0.00     0.167 HD
ENDROOT
BRANCH   8  23
HETATM   23  C   UNK N   1      35.339  12.157  19.827  0.00  0.00     0.102 C 
HETATM   24  N   UNK N   1      36.024  11.199  20.358  0.00  0.00    -0.385 N 
HETATM   25  H   UNK N   1      36.535  10.496  19.798  0.00  0.00     0.157 HD
ATOM     26  HN  UNK N   1      36.061  11.133  21.376  1.00  0.00     0.157 HD
BRANCH  23  27
HETATM   27  N   UNK N   1      34.668  13.067  20.669  0.00  0.00    -0.385 N 
HETATM   28  H   UNK N   1      33.685  13.096  20.680  0.00  0.00     0.157 HD
HETATM   29  H   UNK N   1      35.184  13.675  21.247  0.00  0.00     0.157 HD
ENDBRANCH  23  27
ENDBRANCH   8  23
BRANCH   9  30
HETATM   30  C   UNK N   1      34.621  16.065   6.987  0.00  0.00     0.102 C 
HETATM   31  N   UNK N   1      34.213  17.279   6.912  0.00  0.00    -0.385 N 
HETATM   32  H   UNK N   1      33.930  17.810   7.745  0.00  0.00     0.157 HD
ATOM     33  HN  UNK N   1      34.168  17.731   5.998  1.00  0.00     0.157 HD
BRANCH  30  34
HETATM   34  N   UNK N   1      34.998  15.393   5.798  0.00  0.00    -0.385 N 
HETATM   35  H   UNK N   1      34.385  15.375   5.028  0.00  0.00     0.157 HD
HETATM   36  H   UNK N   1      35.872  14.944   5.742  0.00  0.00     0.157 HD
ENDBRANCH  30  34
ENDBRANCH   9  30
TORSDOF 4
ENDMDL
MODEL 4
REMARK VINA RESULT:      -7.0      3.044      5.471
REMARK  4 active torsions:
REMARK  status: ('A' for Active; 'I' for Inactive)
REMARK    1  A    between atoms: C_16  and  C_8 
REMARK    2  A    between atoms: C_17  and  C_9 
REMARK    3  A    between atoms: N_20  and  C_16 
REMARK    4  A    between atoms: N_23  and  C_17 
ROOT
HETATM    1  C   UNK N   1      28.207  18.352   6.842  0.00  0.00     0.017 A 
HETATM    2  C   UNK N   1      34.867  14.769  11.263  0.00  0.00     0.017 A 
HETATM    3  C   UNK N   1      29.351  17.779   7.367  0.00  0.00     0.035 A 
HETATM    4  C   UNK N   1      33.918  15.304  10.406  0.00  0.00     0.035 A 
HETATM    5  C   UNK N   1      29.112  18.139   4.559  0.00  0.00     0.047 A 
HETATM    6  C   UNK N   1      36.333  14.248   9.352  0.00  0.00     0.047 A 
HETATM    7  C   UNK N   1      33.516  15.972   5.583  0.00  0.00     0.157 A 
HETATM    8  C   UNK N   1      28.060  18.541   5.449  0.00  0.00     0.009 A 
HETATM    9  C   UNK N   1      36.077  14.240  10.764  0.00  0.00     0.009 A 
HETATM   10  C   UNK N   1      30.254  17.562   5.135  0.00  0.00     0.063 A 
HETATM   11  C   UNK N   1      35.345  14.799   8.523  0.00  0.00     0.063 A 
HETATM   12  C   UNK N   1      30.331  17.406   6.476  0.00  0.00     0.085 A 
HETATM   13  C   UNK N   1      34.208  15.294   9.059  0.00  0.00     0.085 A 
HETATM   14  C   UNK N   1      32.125  16.635   5.637  0.00  0.00     0.112 A 
HETATM   15  C   UNK N   1      34.094  15.557   6.951  0.00  0.00     0.112 A 
HETATM   16  N   UNK N   1      31.396  17.076   4.565  0.00  0.00    -0.342 N 
HETATM   17  N   UNK N   1      35.303  14.952   7.167  0.00  0.00    -0.342 N 
HETATM   18  N   UNK N   1      31.464  16.843   6.794  0.00  0.00    -0.233 N 
HETATM   19  N   UNK N   1      33.438  15.760   8.113  0.00  0.00    -0.233 N 
HETATM   20 Zn   UNK N   1      31.880  16.484   8.458  0.00  0.00     0.000 Zn
HETATM   21  H   UNK N   1      31.637  17.050   3.611  0.00  0.00     0.167 HD
HETATM   22  H   UNK N   1      35.981  14.690   6.502  0.00  0.00     0.167 HD
ENDROOT
BRANCH   8  23
HETATM   23  C   UNK N   1      26.802  19.150   4.955  0.00  0.00     0.102 C 
HETATM   24  N   UNK N   1      26.778  19.835   3.860  0.00  0.00    -0.385 N 
HETATM   25  H   UNK N   1      27.617  19.995   3.279  0.00  0.00     0.157 HD
ATOM     26  HN  UNK N   1      25.890  20.237   3.557  1.00  0.00     0.157 HD
BRANCH  23  27
HETATM   27  N   UNK N   1      25.609  18.987   5.687  0.00  0.00    -0.385 N 
HETATM   28  H   UNK N   1      24.990  18.254   5.466  0.00  0.00     0.157 HD
HETATM   29  H   UNK N   1      25.393  19.607   6.421  0.00  0.00     0.157 HD
ENDBRANCH  23  27
ENDBRANCH   8  23
BRANCH   9  30
HETATM   30  C   UNK N   1      37.031  13.699  11.761  0.00  0.00     0.102 C 
HETATM   31  N   UNK N   1      36.813  13.788  13.022  0.00  0.00    -0.385 N 
HETATM   32  H   UNK N   1      35.969  14.239  13.397  0.00  0.00     0.157 HD
ATOM     33  HN  UNK N   1      37.497  13.400  13.672  1.00  0.00     0.157 HD
BRANCH  30  34
HETATM   34  N   UNK N   1      38.215  13.062  11.313  0.00  0.00    -0.385 N 
HETATM   35  H   UNK N   1      38.472  13.114  10.364  0.00  0.00     0.157 HD
HETATM   36  H   UNK N   1      38.779  12.568  11.950  0.00  0.00     0.157 HD
ENDBRANCH  30  34
ENDBRANCH   9  30
TORSDOF 4
ENDMDL
MODEL 5
REMARK VINA RESULT:      -7.0      5.991     10.168
REMARK  4 active torsions:
REMARK  status: ('A' for Active; 'I' for Inactive)
REMARK    1  A    between atoms: C_16  and  C_8 
REMARK    2  A    between atoms: C_17  and  C_9 
REMARK    3  A    between atoms: N_20  and  C_16 
REMARK    4  A    between atoms: N_23  and  C_17 
ROOT
HETATM    1  C   UNK N   1      35.797  13.854  16.977  0.00  0.00     0.017 A 
HETATM    2  C   UNK N   1      32.205   9.934  23.939  0.00  0.00     0.017 A 
HETATM    3  C   UNK N   1      35.276  13.067  17.988  0.00  0.00     0.035 A 
HETATM    4  C   UNK N   1      32.794  10.378  22.765  0.00  0.00     0.035 A 
HETATM    5  C   UNK N   1      36.254  11.853  15.613  0.00  0.00     0.047 A 
HETATM    6  C   UNK N   1      32.354   7.601  23.159  0.00  0.00     0.047 A 
HETATM    7  C   UNK N   1      34.523   8.299  18.696  0.00  0.00     0.157 A 
HETATM    8  C   UNK N   1      36.289  13.278  15.784  0.00  0.00     0.009 A 
HETATM    9  C   UNK N   1      31.977   8.558  24.160  0.00  0.00     0.009 A 
HETATM   10  C   UNK N   1      35.718  11.094  16.662  0.00  0.00     0.063 A 
HETATM   11  C   UNK N   1      32.946   8.095  21.988  0.00  0.00     0.063 A 
HETATM   12  C   UNK N   1      35.260  11.706  17.777  0.00  0.00     0.085 A 
HETATM   13  C   UNK N   1      33.142   9.423  21.834  0.00  0.00     0.085 A 
HETATM   14  C   UNK N   1      34.960   9.617  18.026  0.00  0.00     0.112 A 
HETATM   15  C   UNK N   1      33.878   8.458  20.087  0.00  0.00     0.112 A 
HETATM   16  N   UNK N   1      35.540   9.745  16.792  0.00  0.00    -0.342 N 
HETATM   17  N   UNK N   1      33.409   7.445  20.880  0.00  0.00    -0.342 N 
HETATM   18  N   UNK N   1      34.797  10.820  18.614  0.00  0.00    -0.233 N 
HETATM   19  N   UNK N   1      33.710   9.658  20.683  0.00  0.00    -0.233 N 
HETATM   20 Zn   UNK N   1      34.114  11.281  20.161  0.00  0.00     0.000 Zn
HETATM   21  H   UNK N   1      35.773   9.036  16.151  0.00  0.00     0.167 HD
HETATM   22  H   UNK N   1      33.406   6.478  20.695  0.00  0.00     0.167 HD
ENDROOT
BRANCH   8  23
HETATM   23  C   UNK N   1      36.821  14.183  14.738  0.00  0.00     0.102 C 
HETATM   24  N   UNK N   1      37.280  15.353  15.038  0.00  0.00    -0.385 N 
HETATM   25  H   UNK N   1      37.302  15.716  16.006  0.00  0.00     0.157 HD
ATOM     26  HN  UNK N   1      37.636  15.944  14.287  1.00  0.00     0.157 HD
BRANCH  23  27
HETATM   27  N   UNK N   1      36.824  13.772  13.389  0.00  0.00    -0.385 N 
HETATM   28  H   UNK N   1      37.166  12.882  13.146  0.00  0.00     0.157 HD
HETATM   29  H   UNK N   1      36.486  14.376  12.689  0.00  0.00     0.157 HD
ENDBRANCH  23  27
ENDBRANCH   8  23
BRANCH   9  30
HETATM   30  C   UNK N   1      31.350   8.183  25.449  0.00  0.00     0.102 C 
HETATM   31  N   UNK N   1      31.668   7.103  26.065  0.00  0.00    -0.385 N 
HETATM   32  H   UNK N   1      32.368   6.451  25.692  0.00  0.00     0.157 HD
ATOM     33  HN  UNK N   1      31.211   6.887  26.952  1.00  0.00     0.157 HD
BRANCH  30  34
HETATM   34  N   UNK N   1      30.376   9.039  26.021  0.00  0.00    -0.385 N 
HETATM   35  H   UNK N   1      30.494  10.015  25.979  0.00  0.00     0.157 HD
HETATM   36  H   UNK N   1      29.584   8.657  26.462  0.00  0.00     0.157 HD
ENDBRANCH  30  34
ENDBRANCH   9  30
TORSDOF 4
ENDMDL
MODEL 6
REMARK VINA RESULT:      -7.0      2.029      9.268
REMARK  4 active torsions:
REMARK  status: ('A' for Active; 'I' for Inactive)
REMARK    1  A    between atoms: C_16  and  C_8 
REMARK    2  A    between atoms: C_17  and  C_9 
REMARK    3  A    between atoms: N_20  and  C_16 
REMARK    4  A    between atoms: N_23  and  C_17 
ROOT
HETATM    1  C   UNK N   1      35.323  12.876  12.563  0.00  0.00     0.017 A 
HETATM    2  C   UNK N   1      30.996  14.428   5.106  0.00  0.00     0.017 A 
HETATM    3  C   UNK N   1      34.722  13.299  11.392  0.00  0.00     0.035 A 
HETATM    4  C   UNK N   1      31.735  14.366   6.277  0.00  0.00     0.035 A 
HETATM    5  C   UNK N   1      36.261  15.126  12.929  0.00  0.00     0.047 A 
HETATM    6  C   UNK N   1      31.565  16.812   4.845  0.00  0.00     0.047 A 
HETATM    7  C   UNK N   1      34.426  17.486   8.905  0.00  0.00     0.157 A 
HETATM    8  C   UNK N   1      36.093  13.764  13.349  0.00  0.00     0.009 A 
HETATM    9  C   UNK N   1      30.897  15.632   4.374  0.00  0.00     0.009 A 
HETATM   10  C   UNK N   1      35.634  15.511  11.736  0.00  0.00     0.063 A 
HETATM   11  C   UNK N   1      32.301  16.703   6.034  0.00  0.00     0.063 A 
HETATM   12  C   UNK N   1      34.908  14.615  11.031  0.00  0.00     0.085 A 
HETATM   13  C   UNK N   1      32.362  15.523   6.689  0.00  0.00     0.085 A 
HETATM   14  C   UNK N   1      34.818  16.467   9.994  0.00  0.00     0.112 A 
HETATM   15  C   UNK N   1      33.519  16.929   7.788  0.00  0.00     0.112 A 
HETATM   16  N   UNK N   1      35.597  16.716  11.092  0.00  0.00    -0.342 N 
HETATM   17  N   UNK N   1      33.036  17.630   6.716  0.00  0.00    -0.342 N 
HETATM   18  N   UNK N   1      34.406  15.183   9.970  0.00  0.00    -0.233 N 
HETATM   19  N   UNK N   1      33.101  15.645   7.758  0.00  0.00    -0.233 N 
HETATM   20 Zn   UNK N   1      33.398  14.301   8.840  0.00  0.00     0.000 Zn
HETATM   21  H   UNK N   1      36.028  17.560  11.356  0.00  0.00     0.167 HD
HETATM   22  H   UNK N   1      33.182  18.577   6.491  0.00  0.00     0.167 HD
ENDROOT
BRANCH   8  23
HETATM   23  C   UNK N   1      36.698  13.245  14.599  0.00  0.00     0.102 C 
HETATM   24  N   UNK N   1      37.611  12.332  14.569  0.00  0.00    -0.385 N 
HETATM   25  H   UNK N   1      37.965  11.920  13.690  0.00  0.00     0.157 HD
ATOM     26  HN  UNK N   1      38.000  12.004  15.454  1.00  0.00     0.157 HD
BRANCH  23  27
HETATM   27  N   UNK N   1      36.271  13.747  15.846  0.00  0.00    -0.385 N 
HETATM   28  H   UNK N   1      35.699  13.197  16.429  0.00  0.00     0.157 HD
HETATM   29  H   UNK N   1      36.545  14.648  16.134  0.00  0.00     0.157 HD
ENDBRANCH  23  27
ENDBRANCH   8  23
BRANCH   9  30
HETATM   30  C   UNK N   1      30.091  15.594   3.132  0.00  0.00     0.102 C 
HETATM   31  N   UNK N   1      29.680  14.489   2.627  0.00  0.00    -0.385 N 
HETATM   32  H   UNK N   1      29.892  13.581   3.060  0.00  0.00     0.157 HD
ATOM     33  HN  UNK N   1      29.126  14.511   1.770  1.00  0.00     0.157 HD
BRANCH  30  34
HETATM   34  N   UNK N   1      29.761  16.810   2.483  0.00  0.00    -0.385 N 
HETATM   35  H   UNK N   1      30.230  17.069   1.657  0.00  0.00     0.157 HD
HETATM   36  H   UNK N   1      29.064  17.394   2.858  0.00  0.00     0.157 HD
ENDBRANCH  30  34
ENDBRANCH   9  30
TORSDOF 4
ENDMDL
MODEL 7
REMARK VINA RESULT:      -6.8      2.586      4.800
REMARK  4 active torsions:
REMARK  status: ('A' for Active; 'I' for Inactive)
REMARK    1  A    between atoms: C_16  and  C_8 
REMARK    2  A    between atoms: C_17  and  C_9 
REMARK    3  A    between atoms: N_20  and  C_16 
REMARK    4  A    between atoms: N_23  and  C_17 
ROOT
HETATM    1  C   UNK N   1      29.680  13.970   4.334  0.00  0.00     0.017 A 
HETATM    2  C   UNK N   1      35.052  13.403  11.231  0.00  0.00     0.017 A 
HETATM    3  C   UNK N   1      30.529  14.076   5.421  0.00  0.00     0.035 A 
HETATM    4  C   UNK N   1      34.230  13.682  10.150  0.00  0.00     0.035 A 
HETATM    5  C   UNK N   1      29.738  16.413   4.012  0.00  0.00     0.047 A 
HETATM    6  C   UNK N   1      35.568  15.800  11.487  0.00  0.00     0.047 A 
HETATM    7  C   UNK N   1      32.825  17.698   7.747  0.00  0.00     0.157 A 
HETATM    8  C   UNK N   1      29.272  15.115   3.613  0.00  0.00     0.009 A 
HETATM    9  C   UNK N   1      35.726  14.438  11.914  0.00  0.00     0.009 A 
HETATM   10  C   UNK N   1      30.596  16.474   5.119  0.00  0.00     0.063 A 
HETATM   11  C   UNK N   1      34.728  16.035  10.390  0.00  0.00     0.063 A 
HETATM   12  C   UNK N   1      30.952  15.341   5.764  0.00  0.00     0.085 A 
HETATM   13  C   UNK N   1      34.106  15.003   9.777  0.00  0.00     0.085 A 
HETATM   14  C   UNK N   1      31.925  16.962   6.735  0.00  0.00     0.112 A 
HETATM   15  C   UNK N   1      33.531  16.789   8.773  0.00  0.00     0.112 A 
HETATM   16  N   UNK N   1      31.206  17.538   5.722  0.00  0.00    -0.342 N 
HETATM   17  N   UNK N   1      34.379  17.199   9.766  0.00  0.00    -0.342 N 
HETATM   18  N   UNK N   1      31.760  15.623   6.749  0.00  0.00    -0.233 N 
HETATM   19  N   UNK N   1      33.373  15.448   8.792  0.00  0.00    -0.233 N 
HETATM   20 Zn   UNK N   1      32.422  14.375   7.785  0.00  0.00     0.000 Zn
HETATM   21  H   UNK N   1      31.142  18.491   5.484  0.00  0.00     0.167 HD
HETATM   22  H   UNK N   1      34.669  18.115   9.981  0.00  0.00     0.167 HD
ENDROOT
BRANCH   8  23
HETATM   23  C   UNK N   1      28.372  14.926   2.451  0.00  0.00     0.102 C 
HETATM   24  N   UNK N   1      27.266  15.585   2.349  0.00  0.00    -0.385 N 
HETATM   25  H   UNK N   1      26.952  16.268   3.058  0.00  0.00     0.157 HD
ATOM     26  HN  UNK N   1      26.676  15.423   1.532  1.00  0.00     0.157 HD
BRANCH  23  27
HETATM   27  N   UNK N   1      28.718  14.009   1.437  0.00  0.00    -0.385 N 
HETATM   28  H   UNK N   1      29.160  13.160   1.670  0.00  0.00     0.157 HD
HETATM   29  H   UNK N   1      28.519  14.217   0.496  0.00  0.00     0.157 HD
ENDBRANCH  23  27
ENDBRANCH   8  23
BRANCH   9  30
HETATM   30  C   UNK N   1      36.574  14.039  13.063  0.00  0.00     0.102 C 
HETATM   31  N   UNK N   1      36.734  14.804  14.081  0.00  0.00    -0.385 N 
HETATM   32  H   UNK N   1      36.285  15.726  14.145  0.00  0.00     0.157 HD
ATOM     33  HN  UNK N   1      37.326  14.487  14.850  1.00  0.00     0.157 HD
BRANCH  30  34
HETATM   34  N   UNK N   1      37.222  12.780  13.041  0.00  0.00    -0.385 N 
HETATM   35  H   UNK N   1      37.941  12.608  12.392  0.00  0.00     0.157 HD
HETATM   36  H   UNK N   1      36.952  12.077  13.675  0.00  0.00     0.157 HD
ENDBRANCH  30  34
ENDBRANCH   9  30
TORSDOF 4
ENDMDL
MODEL 8
REMARK VINA RESULT:      -6.7      4.912      7.860
REMARK  4 active torsions:
REMARK  status: ('A' for Active; 'I' for Inactive)
REMARK    1  A    between atoms: C_16  and  C_8 
REMARK    2  A    between atoms: C_17  and  C_9 
REMARK    3  A    between atoms: N_20  and  C_16 
REMARK    4  A    between atoms: N_23  and  C_17 
ROOT
HETATM    1  C   UNK N   1      26.113  18.213   3.658  0.00  0.00     0.017 A 
HETATM    2  C   UNK N   1      32.987  13.946   7.017  0.00  0.00     0.017 A 
HETATM    3  C   UNK N   1      27.176  17.655   4.344  0.00  0.00     0.035 A 
HETATM    4  C   UNK N   1      31.908  14.732   6.642  0.00  0.00     0.035 A 
HETATM    5  C   UNK N   1      25.820  19.905   5.426  0.00  0.00     0.047 A 
HETATM    6  C   UNK N   1      33.278  15.283   9.068  0.00  0.00     0.047 A 
HETATM    7  C   UNK N   1      29.536  18.571   8.515  0.00  0.00     0.157 A 
HETATM    8  C   UNK N   1      25.421  19.333   4.171  0.00  0.00     0.009 A 
HETATM    9  C   UNK N   1      33.684  14.198   8.219  0.00  0.00     0.009 A 
HETATM   10  C   UNK N   1      26.902  19.308   6.087  0.00  0.00     0.063 A 
HETATM   11  C   UNK N   1      32.182  16.050   8.649  0.00  0.00     0.063 A 
HETATM   12  C   UNK N   1      27.525  18.239   5.542  0.00  0.00     0.085 A 
HETATM   13  C   UNK N   1      31.552  15.759   7.489  0.00  0.00     0.085 A 
HETATM   14  C   UNK N   1      28.511  18.689   7.370  0.00  0.00     0.112 A 
HETATM   15  C   UNK N   1      30.561  17.430   8.357  0.00  0.00     0.112 A 
HETATM   16  N   UNK N   1      27.514  19.622   7.269  0.00  0.00    -0.342 N 
HETATM   17  N   UNK N   1      31.568  17.122   9.232  0.00  0.00    -0.342 N 
HETATM   18  N   UNK N   1      28.505  17.853   6.311  0.00  0.00    -0.233 N 
HETATM   19  N   UNK N   1      30.563  16.590   7.299  0.00  0.00    -0.233 N 
HETATM   20 Zn   UNK N   1      29.528  16.495   5.889  0.00  0.00     0.000 Zn
HETATM   21  H   UNK N   1      27.289  20.346   7.896  0.00  0.00     0.167 HD
HETATM   22  H   UNK N   1      31.796  17.567  10.080  0.00  0.00     0.167 HD
ENDROOT
BRANCH   8  23
HETATM   23  C   UNK N   1      24.300  19.887   3.375  0.00  0.00     0.102 C 
HETATM   24  N   UNK N   1      24.503  20.793   2.477  0.00  0.00    -0.385 N 
HETATM   25  H   UNK N   1      25.440  21.175   2.267  0.00  0.00     0.157 HD
ATOM     26  HN  UNK N   1      23.702  21.147   1.952  1.00  0.00     0.157 HD
BRANCH  23  27
HETATM   27  N   UNK N   1      22.986  19.427   3.599  0.00  0.00    -0.385 N 
HETATM   28  H   UNK N   1      22.271  19.649   2.960  0.00  0.00     0.157 HD
HETATM   29  H   UNK N   1      22.783  18.885   4.395  0.00  0.00     0.157 HD
ENDBRANCH  23  27
ENDBRANCH   8  23
BRANCH   9  30
HETATM   30  C   UNK N   1      34.817  13.298   8.537  0.00  0.00     0.102 C 
HETATM   31  N   UNK N   1      34.758  12.035   8.315  0.00  0.00    -0.385 N 
HETATM   32  H   UNK N   1      33.924  11.592   7.910  0.00  0.00     0.157 HD
ATOM     33  HN  UNK N   1      35.564  11.453   8.548  1.00  0.00     0.157 HD
BRANCH  30  34
HETATM   34  N   UNK N   1      35.999  13.842   9.096  0.00  0.00    -0.385 N 
HETATM   35  H   UNK N   1      36.348  14.702   8.768  0.00  0.00     0.157 HD
HETATM   36  H   UNK N   1      36.472  13.360   9.812  0.00  0.00     0.157 HD
ENDBRANCH  30  34
ENDBRANCH   9  30
TORSDOF 4
ENDMDL
MODEL 9
REMARK VINA RESULT:      -6.7      1.767      2.505
REMARK  4 active torsions:
REMARK  status: ('A' for Active; 'I' for Inactive)
REMARK    1  A    between atoms: C_16  and  C_8 
REMARK    2  A    between atoms: C_17  and  C_9 
REMARK    3  A    between atoms: N_20  and  C_16 
REMARK    4  A    between atoms: N_23  and  C_17 
ROOT
HETATM    1  C   UNK N   1      31.907  15.085   5.195  0.00  0.00     0.017 A 
HETATM    2  C   UNK N   1      35.426  11.917  12.565  0.00  0.00     0.017 A 
HETATM    3  C   UNK N   1      32.508  14.771   6.400  0.00  0.00     0.035 A 
HETATM    4  C   UNK N   1      34.937  12.588  11.455  0.00  0.00     0.035 A 
HETATM    5  C   UNK N   1      32.587  17.442   5.436  0.00  0.00     0.047 A 
HETATM    6  C   UNK N   1      36.408  14.007  13.426  0.00  0.00     0.047 A 
HETATM    7  C   UNK N   1      35.025  17.188   9.809  0.00  0.00     0.157 A 
HETATM    8  C   UNK N   1      31.933  16.405   4.690  0.00  0.00     0.009 A 
HETATM    9  C   UNK N   1      36.159  12.599  13.560  0.00  0.00     0.009 A 
HETATM   10  C   UNK N   1      33.183  17.078   6.652  0.00  0.00     0.063 A 
HETATM   11  C   UNK N   1      35.896  14.644  12.288  0.00  0.00     0.063 A 
HETATM   12  C   UNK N   1      33.127  15.797   7.078  0.00  0.00     0.085 A 
HETATM   13  C   UNK N   1      35.199  13.939  11.370  0.00  0.00     0.085 A 
HETATM   14  C   UNK N   1      34.215  16.906   8.528  0.00  0.00     0.112 A 
HETATM   15  C   UNK N   1      35.272  15.959  10.708  0.00  0.00     0.112 A 
HETATM   16  N   UNK N   1      33.877  17.820   7.566  0.00  0.00    -0.342 N 
HETATM   17  N   UNK N   1      35.961  15.949  11.890  0.00  0.00    -0.342 N 
HETATM   18  N   UNK N   1      33.750  15.678   8.218  0.00  0.00    -0.233 N 
HETATM   19  N   UNK N   1      34.812  14.726  10.403  0.00  0.00    -0.233 N 
HETATM   20 Zn   UNK N   1      33.876  14.138   9.044  0.00  0.00     0.000 Zn
HETATM   21  H   UNK N   1      34.084  18.781   7.538  0.00  0.00     0.167 HD
HETATM   22  H   UNK N   1      36.401  16.703  12.346  0.00  0.00     0.167 HD
ENDROOT
BRANCH   8  23
HETATM   23  C   UNK N   1      31.280  16.667   3.385  0.00  0.00     0.102 C 
HETATM   24  N   UNK N   1      31.938  17.187   2.402  0.00  0.00    -0.385 N 
HETATM   25  H   UNK N   1      32.936  17.446   2.470  0.00  0.00     0.157 HD
ATOM     26  HN  UNK N   1      31.449  17.351   1.522  1.00  0.00     0.157 HD
BRANCH  23  27
HETATM   27  N   UNK N   1      29.917  16.351   3.206  0.00  0.00    -0.385 N 
HETATM   28  H   UNK N   1      29.229  16.824   3.727  0.00  0.00     0.157 HD
HETATM   29  H   UNK N   1      29.654  15.657   2.559  0.00  0.00     0.157 HD
ENDBRANCH  23  27
ENDBRANCH   8  23
BRANCH   9  30
HETATM   30  C   UNK N   1      36.630  11.796  14.712  0.00  0.00     0.102 C 
HETATM   31  N   UNK N   1      36.279  12.070  15.916  0.00  0.00    -0.385 N 
HETATM   32  H   UNK N   1      35.657  12.858  16.134  0.00  0.00     0.157 HD
ATOM     33  HN  UNK N   1      36.627  11.488  16.678  1.00  0.00     0.157 HD
BRANCH  30  34
HETATM   34  N   UNK N   1      37.489  10.693  14.483  0.00  0.00    -0.385 N 
HETATM   35  H   UNK N   1      37.117   9.836  14.174  0.00  0.00     0.157 HD
HETATM   36  H   UNK N   1      38.458  10.784  14.633  0.00  0.00     0.157 HD
ENDBRANCH  30  34
ENDBRANCH   9  30
TORSDOF 4
ENDMDL
