REMARK  13 active torsions:
REMARK  status: ('A' for Active; 'I' for Inactive)
REMARK    1  A    between atoms: O_1  and  C_2 
REMARK    2  A    between atoms: C_2  and  C_4 
REMARK    3  A    between atoms: C_8  and  O_9 
REMARK    4  A    between atoms: C_10  and  C_11 
REMARK    5  A    between atoms: C_11  and  C_13 
REMARK    6  A    between atoms: C_14  and  O_15 
REMARK    7  A    between atoms: C_17  and  C_21 
REMARK    8  A    between atoms: C_19  and  O_20 
REMARK    9  A    between atoms: C_21  and  O_23 
REMARK   10  A    between atoms: C_24  and  O_23 
REMARK   11  A    between atoms: C_30  and  N_31 
REMARK       I    between atoms: N_31  and  C_32 
REMARK   12  A    between atoms: C_32  and  C_34 
REMARK   13  A    between atoms: C_37  and  O_38 
ROOT
HETATM    1  C   UNK N   1      -4.322  -4.379   0.147  0.00  0.00     0.081 C 
HETATM    2  C   UNK N   1      -4.613  -5.433  -0.765  0.00  0.00     0.083 C 
HETATM    3  C   UNK N   1      -5.818  -6.136  -0.655  0.00  0.00     0.055 C 
HETATM    4  C   UNK N   1      -6.723  -5.794   0.353  0.00  0.00     0.044 C 
HETATM    5  C   UNK N   1      -6.496  -4.681   1.145  0.00  0.00     0.055 C 
HETATM    6  C   UNK N   1      -5.335  -3.958   1.037  0.00  0.00     0.083 C 
ENDROOT
BRANCH   4   7
HETATM    7  C   UNK N   1      -7.900  -6.592   0.657  0.00  0.00     0.293 C 
HETATM    8  O   UNK N   1      -8.506  -6.378   1.702  0.00  0.00    -0.259 OA
BRANCH   7   9
HETATM    9  O   UNK N   1      -8.373  -7.502  -0.222  0.00  0.00    -0.310 OA
BRANCH   9  10
HETATM   10  C   UNK N   1      -9.678  -7.906  -0.084  0.00  0.00     0.156 C 
HETATM   11  C   UNK N   1      -9.892  -9.297  -0.662  0.00  0.00     0.036 C 
HETATM   12  C   UNK N   1     -10.909 -10.111   0.145  0.00  0.00     0.022 C 
HETATM   13  C   UNK N   1     -12.086  -9.298   0.688  0.00  0.00     0.114 C 
HETATM   14  N   UNK N   1     -12.591  -8.379  -0.322  0.00  0.00    -0.419 N 
HETATM   15  C   UNK N   1     -12.046  -7.061  -0.022  0.00  0.00     0.141 C 
HETATM   16  H   UNK N   1     -13.212  -8.614  -1.096  0.00  0.00     0.153 HD
HETATM   17  C   UNK N   1     -10.666  -6.861  -0.665  0.00  0.00     0.131 C 
BRANCH  17  18
HETATM   18  N   UNK N   1     -10.147  -5.488  -0.542  0.00  0.00    -0.348 N 
HETATM   19  C   UNK N   1     -10.812  -4.360  -0.163  0.00  0.00     0.252 C 
HETATM   20  O   UNK N   1     -12.015  -4.398   0.076  0.00  0.00    -0.268 OA
HETATM   21  H   UNK N   1      -9.195  -5.369  -0.764  0.00  0.00     0.163 HD
BRANCH  19  22
HETATM   22  C   UNK N   1     -10.101  -3.057  -0.033  0.00  0.00     0.032 A 
HETATM   23  C   UNK N   1     -10.794  -1.925   0.424  0.00  0.00     0.020 A 
HETATM   24  C   UNK N   1     -10.142  -0.697   0.571  0.00  0.00     0.037 A 
HETATM   25  C   UNK N   1      -8.786  -0.584   0.258  0.00  0.00     0.065 A 
HETATM   26  C   UNK N   1      -8.083  -1.701  -0.205  0.00  0.00     0.037 A 
HETATM   27  C   UNK N   1      -8.736  -2.935  -0.350  0.00  0.00     0.020 A 
BRANCH  25  28
HETATM   28  O   UNK N   1      -8.161   0.597   0.403  0.00  0.00    -0.361 OA
HETATM   29  H   UNK N   1      -7.230   0.631   0.504  0.00  0.00     0.217 HD
ENDBRANCH  25  28
ENDBRANCH  19  22
ENDBRANCH  17  18
ENDBRANCH   9  10
ENDBRANCH   7   9
ENDBRANCH   4   7
BRANCH   2  30
HETATM   30  O   UNK N   1      -3.734  -5.790  -1.720  0.00  0.00    -0.360 OA
HETATM   31  H   UNK N   1      -3.644  -6.444  -2.385  0.00  0.00     0.217 HD
ENDBRANCH   2  30
BRANCH   6  32
HETATM   32  O   UNK N   1      -5.176  -2.900   1.851  0.00  0.00    -0.360 OA
HETATM   33  H   UNK N   1      -4.482  -2.627   2.418  0.00  0.00     0.217 HD
ENDBRANCH   6  32
BRANCH   1  34
HETATM   34  C   UNK N   1      -2.981  -3.726   0.249  0.00  0.00     0.201 C 
HETATM   35  O   UNK N   1      -2.945  -2.607   0.732  0.00  0.00    -0.286 OA
BRANCH  34  36
HETATM   36  C   UNK N   1      -1.666  -4.458   0.058  0.00  0.00     0.065 A 
HETATM   37  C   UNK N   1      -1.589  -5.884   0.212  0.00  0.00     0.081 A 
HETATM   38  C   UNK N   1      -0.371  -6.549   0.106  0.00  0.00     0.037 A 
HETATM   39  C   UNK N   1       0.801  -5.849  -0.108  0.00  0.00     0.004 A 
HETATM   40  C   UNK N   1       0.771  -4.467  -0.203  0.00  0.00     0.019 A 
HETATM   41  C   UNK N   1      -0.429  -3.745  -0.135  0.00  0.00     0.054 A 
BRANCH  37  42
HETATM   42  O   UNK N   1      -2.658  -6.628   0.539  0.00  0.00    -0.360 OA
HETATM   43  H   UNK N   1      -3.480  -6.241   0.768  0.00  0.00     0.217 HD
ENDBRANCH  37  42
BRANCH  41  44
HETATM   44  C   UNK N   1      -0.286  -2.262  -0.279  0.00  0.00     0.177 C 
HETATM   45  O   UNK N   1      -1.227  -1.544  -0.569  0.00  0.00    -0.646 OA
BRANCH  44  46
HETATM   46  O   UNK N   1       0.933  -1.702  -0.149  0.00  0.00    -0.773 OA
HETATM   47  H   UNK N   1       1.693  -2.241  -0.058  0.00  0.00     0.167 HD
ENDBRANCH  44  46
ENDBRANCH  41  44
ENDBRANCH  34  36
ENDBRANCH   1  34
TORSDOF 13
