MODEL 1
REMARK VINA RESULT:      -5.1      0.000      0.000
REMARK  11 active torsions:
REMARK  status: ('A' for Active; 'I' for Inactive)
REMARK    1  A    between atoms: O_1  and  C_2 
REMARK    2  A    between atoms: C_2  and  C_3 
REMARK    3  A    between atoms: C_3  and  O_4 
REMARK    4  A    between atoms: C_3  and  C_5 
REMARK    5  A    between atoms: C_5  and  O_6 
REMARK    6  A    between atoms: C_5  and  C_7 
REMARK    7  A    between atoms: C_7  and  O_8 
REMARK    8  A    between atoms: C_7  and  C_9 
REMARK    9  A    between atoms: C_9  and  O_10 
REMARK   10  A    between atoms: C_9  and  C_11 
REMARK   11  A    between atoms: C_11  and  O_12 
ROOT
HETATM    1  C   UNK N   1      34.216  16.000   9.284  0.00  0.00     0.188 C 
ENDROOT
BRANCH   1   2
HETATM    2  C   UNK N   1      34.565  15.721  10.763  0.00  0.00     0.180 C 
BRANCH   2   3
HETATM    3  C   UNK N   1      35.967  15.111  10.970  0.00  0.00     0.173 C 
BRANCH   3   4
HETATM    4  C   UNK N   1      36.095  14.470  12.347  0.00  0.00     0.198 C 
BRANCH   4   5
HETATM    5  O   UNK N   1      37.222  13.651  12.415  0.00  0.00    -0.398 OA
HETATM    6  H   UNK N   1      37.660  13.396  13.242  0.00  0.00     0.209 HD
ENDBRANCH   4   5
ENDBRANCH   3   4
BRANCH   3   7
HETATM    7  O   UNK N   1      36.950  16.096  10.874  0.00  0.00    -0.391 OA
HETATM    8  H   UNK N   1      36.718  17.033  10.773  0.00  0.00     0.210 HD
ENDBRANCH   3   7
ENDBRANCH   2   3
BRANCH   2   9
HETATM    9  O   UNK N   1      33.608  14.865  11.315  0.00  0.00    -0.390 OA
HETATM   10  H   UNK N   1      33.750  14.431  12.171  0.00  0.00     0.210 HD
ENDBRANCH   2   9
ENDBRANCH   1   2
BRANCH   1  11
HETATM   11  O   UNK N   1      35.353  15.812   8.493  0.00  0.00    -0.390 OA
HETATM   12  H   UNK N   1      35.308  15.891   7.527  0.00  0.00     0.210 HD
ENDBRANCH   1  11
BRANCH   1  13
HETATM   13  C   UNK N   1      33.712  17.446   9.094  0.00  0.00     0.246 C 
BRANCH  13  14
HETATM   14  O   UNK N   1      32.369  17.450   8.707  0.00  0.00    -0.382 OA
HETATM   15  H   UNK N   1      32.089  17.843   7.866  0.00  0.00     0.210 HD
ENDBRANCH  13  14
BRANCH  13  16
HETATM   16  C   UNK N   1      34.523  18.234   8.094  0.00  0.00     0.172 C 
HETATM   17  O   UNK N   1      35.277  19.115   8.473  0.00  0.00    -0.648 OA
BRANCH  16  18
HETATM   18  O   UNK N   1      34.381  18.008   6.773  0.00  0.00    -0.774 OA
HETATM   19  H   UNK N   1      34.776  18.527   6.100  0.00  0.00     0.167 HD
ENDBRANCH  16  18
ENDBRANCH  13  16
ENDBRANCH   1  13
TORSDOF 11
ENDMDL
MODEL 2
REMARK VINA RESULT:      -5.1      1.030      5.199
REMARK  11 active torsions:
REMARK  status: ('A' for Active; 'I' for Inactive)
REMARK    1  A    between atoms: O_1  and  C_2 
REMARK    2  A    between atoms: C_2  and  C_3 
REMARK    3  A    between atoms: C_3  and  O_4 
REMARK    4  A    between atoms: C_3  and  C_5 
REMARK    5  A    between atoms: C_5  and  O_6 
REMARK    6  A    between atoms: C_5  and  C_7 
REMARK    7  A    between atoms: C_7  and  O_8 
REMARK    8  A    between atoms: C_7  and  C_9 
REMARK    9  A    between atoms: C_9  and  O_10 
REMARK   10  A    between atoms: C_9  and  C_11 
REMARK   11  A    between atoms: C_11  and  O_12 
ROOT
HETATM    1  C   UNK N   1      34.726  15.501  10.543  0.00  0.00     0.188 C 
ENDROOT
BRANCH   1   2
HETATM    2  C   UNK N   1      34.317  16.884   9.989  0.00  0.00     0.180 C 
BRANCH   2   3
HETATM    3  C   UNK N   1      33.444  16.815   8.719  0.00  0.00     0.173 C 
BRANCH   3   4
HETATM    4  C   UNK N   1      33.484  18.128   7.945  0.00  0.00     0.198 C 
BRANCH   4   5
HETATM    5  O   UNK N   1      34.521  18.127   7.012  0.00  0.00    -0.398 OA
HETATM    6  H   UNK N   1      34.404  17.928   6.070  0.00  0.00     0.209 HD
ENDBRANCH   4   5
ENDBRANCH   3   4
BRANCH   3   7
HETATM    7  O   UNK N   1      32.112  16.565   9.051  0.00  0.00    -0.391 OA
HETATM    8  H   UNK N   1      31.389  16.805   8.451  0.00  0.00     0.210 HD
ENDBRANCH   3   7
ENDBRANCH   2   3
BRANCH   2   9
HETATM    9  O   UNK N   1      35.463  17.635   9.715  0.00  0.00    -0.390 OA
HETATM   10  H   UNK N   1      35.673  17.930   8.814  0.00  0.00     0.210 HD
ENDBRANCH   2   9
ENDBRANCH   1   2
BRANCH   1  11
HETATM   11  O   UNK N   1      33.623  14.898  11.153  0.00  0.00    -0.390 OA
HETATM   12  H   UNK N   1      32.727  15.028  10.804  0.00  0.00     0.210 HD
ENDBRANCH   1  11
BRANCH   1  13
HETATM   13  C   UNK N   1      35.857  15.632  11.583  0.00  0.00     0.246 C 
BRANCH  13  14
HETATM   14  O   UNK N   1      37.069  15.932  10.954  0.00  0.00    -0.382 OA
HETATM   15  H   UNK N   1      37.331  15.495  10.130  0.00  0.00     0.210 HD
ENDBRANCH  13  14
BRANCH  13  16
HETATM   16  C   UNK N   1      36.030  14.398  12.437  0.00  0.00     0.172 C 
HETATM   17  O   UNK N   1      35.154  14.064  13.217  0.00  0.00    -0.648 OA
BRANCH  16  18
HETATM   18  O   UNK N   1      37.174  13.687  12.381  0.00  0.00    -0.774 OA
HETATM   19  H   UNK N   1      38.031  14.063  12.342  0.00  0.00     0.167 HD
ENDBRANCH  16  18
ENDBRANCH  13  16
ENDBRANCH   1  13
TORSDOF 11
ENDMDL
MODEL 3
REMARK VINA RESULT:      -4.9      1.746      3.585
REMARK  11 active torsions:
REMARK  status: ('A' for Active; 'I' for Inactive)
REMARK    1  A    between atoms: O_1  and  C_2 
REMARK    2  A    between atoms: C_2  and  C_3 
REMARK    3  A    between atoms: C_3  and  O_4 
REMARK    4  A    between atoms: C_3  and  C_5 
REMARK    5  A    between atoms: C_5  and  O_6 
REMARK    6  A    between atoms: C_5  and  C_7 
REMARK    7  A    between atoms: C_7  and  O_8 
REMARK    8  A    between atoms: C_7  and  C_9 
REMARK    9  A    between atoms: C_9  and  O_10 
REMARK   10  A    between atoms: C_9  and  C_11 
REMARK   11  A    between atoms: C_11  and  O_12 
ROOT
HETATM    1  C   UNK N   1      35.194  15.038  11.848  0.00  0.00     0.188 C 
ENDROOT
BRANCH   1   2
HETATM    2  C   UNK N   1      35.835  13.760  12.434  0.00  0.00     0.180 C 
BRANCH   2   3
HETATM    3  C   UNK N   1      35.528  13.537  13.930  0.00  0.00     0.173 C 
BRANCH   3   4
HETATM    4  C   UNK N   1      36.688  12.844  14.636  0.00  0.00     0.198 C 
BRANCH   4   5
HETATM    5  O   UNK N   1      37.581  13.776  15.164  0.00  0.00    -0.398 OA
HETATM    6  H   UNK N   1      38.444  13.985  14.773  0.00  0.00     0.209 HD
ENDBRANCH   4   5
ENDBRANCH   3   4
BRANCH   3   7
HETATM    7  O   UNK N   1      34.401  12.731  14.085  0.00  0.00    -0.391 OA
HETATM    8  H   UNK N   1      34.315  12.122  14.835  0.00  0.00     0.210 HD
ENDBRANCH   3   7
ENDBRANCH   2   3
BRANCH   2   9
HETATM    9  O   UNK N   1      37.220  13.808  12.254  0.00  0.00    -0.390 OA
HETATM   10  H   UNK N   1      37.783  13.042  12.448  0.00  0.00     0.210 HD
ENDBRANCH   2   9
ENDBRANCH   1   2
BRANCH   1  11
HETATM   11  O   UNK N   1      33.847  14.798  11.567  0.00  0.00    -0.390 OA
HETATM   12  H   UNK N   1      33.374  15.324  10.903  0.00  0.00     0.210 HD
ENDBRANCH   1  11
BRANCH   1  13
HETATM   13  C   UNK N   1      35.903  15.469  10.548  0.00  0.00     0.246 C 
BRANCH  13  14
HETATM   14  O   UNK N   1      37.114  16.105  10.837  0.00  0.00    -0.382 OA
HETATM   15  H   UNK N   1      37.899  15.968  10.286  0.00  0.00     0.210 HD
ENDBRANCH  13  14
BRANCH  13  16
HETATM   16  C   UNK N   1      35.061  16.372   9.679  0.00  0.00     0.172 C 
HETATM   17  O   UNK N   1      34.245  15.894   8.908  0.00  0.00    -0.648 OA
BRANCH  16  18
HETATM   18  O   UNK N   1      35.240  17.707   9.709  0.00  0.00    -0.774 OA
HETATM   19  H   UNK N   1      34.772  18.293  10.271  0.00  0.00     0.167 HD
ENDBRANCH  16  18
ENDBRANCH  13  16
ENDBRANCH   1  13
TORSDOF 11
ENDMDL
MODEL 4
REMARK VINA RESULT:      -4.8      2.197      3.810
REMARK  11 active torsions:
REMARK  status: ('A' for Active; 'I' for Inactive)
REMARK    1  A    between atoms: O_1  and  C_2 
REMARK    2  A    between atoms: C_2  and  C_3 
REMARK    3  A    between atoms: C_3  and  O_4 
REMARK    4  A    between atoms: C_3  and  C_5 
REMARK    5  A    between atoms: C_5  and  O_6 
REMARK    6  A    between atoms: C_5  and  C_7 
REMARK    7  A    between atoms: C_7  and  O_8 
REMARK    8  A    between atoms: C_7  and  C_9 
REMARK    9  A    between atoms: C_9  and  O_10 
REMARK   10  A    between atoms: C_9  and  C_11 
REMARK   11  A    between atoms: C_11  and  O_12 
ROOT
HETATM    1  C   UNK N   1      35.263  13.417  11.434  0.00  0.00     0.188 C 
ENDROOT
BRANCH   1   2
HETATM    2  C   UNK N   1      36.170  13.022  12.622  0.00  0.00     0.180 C 
BRANCH   2   3
HETATM    3  C   UNK N   1      35.703  13.589  13.979  0.00  0.00     0.173 C 
BRANCH   3   4
HETATM    4  C   UNK N   1      36.722  13.307  15.078  0.00  0.00     0.198 C 
BRANCH   4   5
HETATM    5  O   UNK N   1      37.534  14.418  15.304  0.00  0.00    -0.398 OA
HETATM    6  H   UNK N   1      38.071  14.546  16.102  0.00  0.00     0.209 HD
ENDBRANCH   4   5
ENDBRANCH   3   4
BRANCH   3   7
HETATM    7  O   UNK N   1      34.496  13.006  14.367  0.00  0.00    -0.391 OA
HETATM    8  H   UNK N   1      34.402  12.044  14.441  0.00  0.00     0.210 HD
ENDBRANCH   3   7
ENDBRANCH   2   3
BRANCH   2   9
HETATM    9  O   UNK N   1      37.477  13.449  12.373  0.00  0.00    -0.390 OA
HETATM   10  H   UNK N   1      37.673  14.109  11.690  0.00  0.00     0.210 HD
ENDBRANCH   2   9
ENDBRANCH   1   2
BRANCH   1  11
HETATM   11  O   UNK N   1      35.956  13.226  10.236  0.00  0.00    -0.390 OA
HETATM   12  H   UNK N   1      36.866  12.890  10.233  0.00  0.00     0.210 HD
ENDBRANCH   1  11
BRANCH   1  13
HETATM   13  C   UNK N   1      34.835  14.895  11.530  0.00  0.00     0.246 C 
BRANCH  13  14
HETATM   14  O   UNK N   1      33.473  15.030  11.241  0.00  0.00    -0.382 OA
HETATM   15  H   UNK N   1      33.086  15.894  11.031  0.00  0.00     0.210 HD
ENDBRANCH  13  14
BRANCH  13  16
HETATM   16  C   UNK N   1      35.629  15.807  10.626  0.00  0.00     0.172 C 
HETATM   17  O   UNK N   1      35.123  16.258   9.612  0.00  0.00    -0.648 OA
BRANCH  16  18
HETATM   18  O   UNK N   1      36.917  16.088  10.905  0.00  0.00    -0.774 OA
HETATM   19  H   UNK N   1      37.623  15.476  10.825  0.00  0.00     0.167 HD
ENDBRANCH  16  18
ENDBRANCH  13  16
ENDBRANCH   1  13
TORSDOF 11
ENDMDL
MODEL 5
REMARK VINA RESULT:      -4.8      1.182      4.909
REMARK  11 active torsions:
REMARK  status: ('A' for Active; 'I' for Inactive)
REMARK    1  A    between atoms: O_1  and  C_2 
REMARK    2  A    between atoms: C_2  and  C_3 
REMARK    3  A    between atoms: C_3  and  O_4 
REMARK    4  A    between atoms: C_3  and  C_5 
REMARK    5  A    between atoms: C_5  and  O_6 
REMARK    6  A    between atoms: C_5  and  C_7 
REMARK    7  A    between atoms: C_7  and  O_8 
REMARK    8  A    between atoms: C_7  and  C_9 
REMARK    9  A    between atoms: C_9  and  O_10 
REMARK   10  A    between atoms: C_9  and  C_11 
REMARK   11  A    between atoms: C_11  and  O_12 
ROOT
HETATM    1  C   UNK N   1      35.023  16.323  10.394  0.00  0.00     0.188 C 
ENDROOT
BRANCH   1   2
HETATM    2  C   UNK N   1      34.991  16.692   8.893  0.00  0.00     0.180 C 
BRANCH   2   3
HETATM    3  C   UNK N   1      34.286  18.031   8.594  0.00  0.00     0.173 C 
BRANCH   3   4
HETATM    4  C   UNK N   1      33.471  17.954   7.307  0.00  0.00     0.198 C 
BRANCH   4   5
HETATM    5  O   UNK N   1      34.305  17.861   6.193  0.00  0.00    -0.398 OA
HETATM    6  H   UNK N   1      35.036  17.229   6.112  0.00  0.00     0.209 HD
ENDBRANCH   4   5
ENDBRANCH   3   4
BRANCH   3   7
HETATM    7  O   UNK N   1      35.221  19.055   8.437  0.00  0.00    -0.391 OA
HETATM    8  H   UNK N   1      35.980  18.957   7.842  0.00  0.00     0.210 HD
ENDBRANCH   3   7
ENDBRANCH   2   3
BRANCH   2   9
HETATM    9  O   UNK N   1      34.359  15.672   8.176  0.00  0.00    -0.390 OA
HETATM   10  H   UNK N   1      33.923  14.931   8.626  0.00  0.00     0.210 HD
ENDBRANCH   2   9
ENDBRANCH   1   2
BRANCH   1  11
HETATM   11  O   UNK N   1      36.344  16.340  10.850  0.00  0.00    -0.390 OA
HETATM   12  H   UNK N   1      36.545  16.448  11.792  0.00  0.00     0.210 HD
ENDBRANCH   1  11
BRANCH   1  13
HETATM   13  C   UNK N   1      34.433  14.919  10.634  0.00  0.00     0.246 C 
BRANCH  13  14
HETATM   14  O   UNK N   1      33.088  15.010  11.004  0.00  0.00    -0.382 OA
HETATM   15  H   UNK N   1      32.520  14.225  11.035  0.00  0.00     0.210 HD
ENDBRANCH  13  14
BRANCH  13  16
HETATM   16  C   UNK N   1      35.184  14.125  11.675  0.00  0.00     0.172 C 
HETATM   17  O   UNK N   1      36.306  13.709  11.437  0.00  0.00    -0.648 OA
BRANCH  16  18
HETATM   18  O   UNK N   1      34.603  13.824  12.853  0.00  0.00    -0.774 OA
HETATM   19  H   UNK N   1      34.573  12.965  13.226  0.00  0.00     0.167 HD
ENDBRANCH  16  18
ENDBRANCH  13  16
ENDBRANCH   1  13
TORSDOF 11
ENDMDL
MODEL 6
REMARK VINA RESULT:      -4.7      2.389      6.327
REMARK  11 active torsions:
REMARK  status: ('A' for Active; 'I' for Inactive)
REMARK    1  A    between atoms: O_1  and  C_2 
REMARK    2  A    between atoms: C_2  and  C_3 
REMARK    3  A    between atoms: C_3  and  O_4 
REMARK    4  A    between atoms: C_3  and  C_5 
REMARK    5  A    between atoms: C_5  and  O_6 
REMARK    6  A    between atoms: C_5  and  C_7 
REMARK    7  A    between atoms: C_7  and  O_8 
REMARK    8  A    between atoms: C_7  and  C_9 
REMARK    9  A    between atoms: C_9  and  O_10 
REMARK   10  A    between atoms: C_9  and  C_11 
REMARK   11  A    between atoms: C_11  and  O_12 
ROOT
HETATM    1  C   UNK N   1      35.593  13.601  12.864  0.00  0.00     0.188 C 
ENDROOT
BRANCH   1   2
HETATM    2  C   UNK N   1      35.494  14.934  12.089  0.00  0.00     0.180 C 
BRANCH   2   3
HETATM    3  C   UNK N   1      34.598  14.863  10.834  0.00  0.00     0.173 C 
BRANCH   3   4
HETATM    4  C   UNK N   1      34.875  16.026   9.889  0.00  0.00     0.198 C 
BRANCH   4   5
HETATM    5  O   UNK N   1      34.932  17.233  10.584  0.00  0.00    -0.398 OA
HETATM    6  H   UNK N   1      35.147  17.308  11.528  0.00  0.00     0.209 HD
ENDBRANCH   4   5
ENDBRANCH   3   4
BRANCH   3   7
HETATM    7  O   UNK N   1      33.250  14.922  11.189  0.00  0.00    -0.391 OA
HETATM    8  H   UNK N   1      32.915  14.466  11.976  0.00  0.00     0.210 HD
ENDBRANCH   3   7
ENDBRANCH   2   3
BRANCH   2   9
HETATM    9  O   UNK N   1      36.774  15.351  11.713  0.00  0.00    -0.390 OA
HETATM   10  H   UNK N   1      37.251  14.927  10.983  0.00  0.00     0.210 HD
ENDBRANCH   2   9
ENDBRANCH   1   2
BRANCH   1  11
HETATM   11  O   UNK N   1      34.373  12.923  12.782  0.00  0.00    -0.390 OA
HETATM   12  H   UNK N   1      34.125  12.438  11.980  0.00  0.00     0.210 HD
ENDBRANCH   1  11
BRANCH   1  13
HETATM   13  C   UNK N   1      35.926  13.846  14.350  0.00  0.00     0.246 C 
BRANCH  13  14
HETATM   14  O   UNK N   1      37.310  13.845  14.548  0.00  0.00    -0.382 OA
HETATM   15  H   UNK N   1      37.699  13.529  15.377  0.00  0.00     0.210 HD
ENDBRANCH  13  14
BRANCH  13  16
HETATM   16  C   UNK N   1      35.288  12.841  15.279  0.00  0.00     0.172 C 
HETATM   17  O   UNK N   1      34.145  13.007  15.671  0.00  0.00    -0.648 OA
BRANCH  16  18
HETATM   18  O   UNK N   1      35.992  11.781  15.723  0.00  0.00    -0.774 OA
HETATM   19  H   UNK N   1      36.397  11.143  15.169  0.00  0.00     0.167 HD
ENDBRANCH  16  18
ENDBRANCH  13  16
ENDBRANCH   1  13
TORSDOF 11
ENDMDL
MODEL 7
REMARK VINA RESULT:      -4.6     15.094     16.443
REMARK  11 active torsions:
REMARK  status: ('A' for Active; 'I' for Inactive)
REMARK    1  A    between atoms: O_1  and  C_2 
REMARK    2  A    between atoms: C_2  and  C_3 
REMARK    3  A    between atoms: C_3  and  O_4 
REMARK    4  A    between atoms: C_3  and  C_5 
REMARK    5  A    between atoms: C_5  and  O_6 
REMARK    6  A    between atoms: C_5  and  C_7 
REMARK    7  A    between atoms: C_7  and  O_8 
REMARK    8  A    between atoms: C_7  and  C_9 
REMARK    9  A    between atoms: C_9  and  O_10 
REMARK   10  A    between atoms: C_9  and  C_11 
REMARK   11  A    between atoms: C_11  and  O_12 
ROOT
HETATM    1  C   UNK N   1      20.878  18.914   3.242  0.00  0.00     0.188 C 
ENDROOT
BRANCH   1   2
HETATM    2  C   UNK N   1      20.178  17.649   3.788  0.00  0.00     0.180 C 
BRANCH   2   3
HETATM    3  C   UNK N   1      20.911  16.334   3.449  0.00  0.00     0.173 C 
BRANCH   3   4
HETATM    4  C   UNK N   1      19.933  15.255   2.998  0.00  0.00     0.198 C 
BRANCH   4   5
HETATM    5  O   UNK N   1      19.496  15.489   1.694  0.00  0.00    -0.398 OA
HETATM    6  H   UNK N   1      18.670  15.137   1.326  0.00  0.00     0.209 HD
ENDBRANCH   4   5
ENDBRANCH   3   4
BRANCH   3   7
HETATM    7  O   UNK N   1      21.587  15.845   4.567  0.00  0.00    -0.391 OA
HETATM    8  H   UNK N   1      22.441  15.393   4.483  0.00  0.00     0.210 HD
ENDBRANCH   3   7
ENDBRANCH   2   3
BRANCH   2   9
HETATM    9  O   UNK N   1      18.874  17.586   3.291  0.00  0.00    -0.390 OA
HETATM   10  H   UNK N   1      18.372  18.390   3.082  0.00  0.00     0.210 HD
ENDBRANCH   2   9
ENDBRANCH   1   2
BRANCH   1  11
HETATM   11  O   UNK N   1      20.767  19.948   4.175  0.00  0.00    -0.390 OA
HETATM   12  H   UNK N   1      20.306  19.812   5.018  0.00  0.00     0.210 HD
ENDBRANCH   1  11
BRANCH   1  13
HETATM   13  C   UNK N   1      20.240  19.372   1.915  0.00  0.00     0.246 C 
BRANCH  13  14
HETATM   14  O   UNK N   1      20.199  18.316   1.000  0.00  0.00    -0.382 OA
HETATM   15  H   UNK N   1      20.166  17.394   1.297  0.00  0.00     0.210 HD
ENDBRANCH  13  14
BRANCH  13  16
HETATM   16  C   UNK N   1      20.948  20.549   1.287  0.00  0.00     0.172 C 
HETATM   17  O   UNK N   1      21.659  21.271   1.966  0.00  0.00    -0.648 OA
BRANCH  16  18
HETATM   18  O   UNK N   1      20.758  20.842  -0.015  0.00  0.00    -0.774 OA
HETATM   19  H   UNK N   1      20.514  20.218  -0.669  0.00  0.00     0.167 HD
ENDBRANCH  16  18
ENDBRANCH  13  16
ENDBRANCH   1  13
TORSDOF 11
ENDMDL
MODEL 8
REMARK VINA RESULT:      -4.6      1.748      3.113
REMARK  11 active torsions:
REMARK  status: ('A' for Active; 'I' for Inactive)
REMARK    1  A    between atoms: O_1  and  C_2 
REMARK    2  A    between atoms: C_2  and  C_3 
REMARK    3  A    between atoms: C_3  and  O_4 
REMARK    4  A    between atoms: C_3  and  C_5 
REMARK    5  A    between atoms: C_5  and  O_6 
REMARK    6  A    between atoms: C_5  and  C_7 
REMARK    7  A    between atoms: C_7  and  O_8 
REMARK    8  A    between atoms: C_7  and  C_9 
REMARK    9  A    between atoms: C_9  and  O_10 
REMARK   10  A    between atoms: C_9  and  C_11 
REMARK   11  A    between atoms: C_11  and  O_12 
ROOT
HETATM    1  C   UNK N   1      35.943  14.419  11.330  0.00  0.00     0.188 C 
ENDROOT
BRANCH   1   2
HETATM    2  C   UNK N   1      36.160  13.878  12.761  0.00  0.00     0.180 C 
BRANCH   2   3
HETATM    3  C   UNK N   1      36.877  12.513  12.811  0.00  0.00     0.173 C 
BRANCH   3   4
HETATM    4  C   UNK N   1      37.270  12.144  14.237  0.00  0.00     0.198 C 
BRANCH   4   5
HETATM    5  O   UNK N   1      37.383  13.283  15.034  0.00  0.00    -0.398 OA
HETATM    6  H   UNK N   1      37.353  13.273  16.004  0.00  0.00     0.209 HD
ENDBRANCH   4   5
ENDBRANCH   3   4
BRANCH   3   7
HETATM    7  O   UNK N   1      38.045  12.543  12.049  0.00  0.00    -0.391 OA
HETATM    8  H   UNK N   1      38.711  13.236  12.175  0.00  0.00     0.210 HD
ENDBRANCH   3   7
ENDBRANCH   2   3
BRANCH   2   9
HETATM    9  O   UNK N   1      34.927  13.771  13.410  0.00  0.00    -0.390 OA
HETATM   10  H   UNK N   1      34.868  13.541  14.351  0.00  0.00     0.210 HD
ENDBRANCH   2   9
ENDBRANCH   1   2
BRANCH   1  11
HETATM   11  O   UNK N   1      37.133  14.981  10.859  0.00  0.00    -0.390 OA
HETATM   12  H   UNK N   1      37.843  14.423  10.505  0.00  0.00     0.210 HD
ENDBRANCH   1  11
BRANCH   1  13
HETATM   13  C   UNK N   1      34.841  15.498  11.304  0.00  0.00     0.246 C 
BRANCH  13  14
HETATM   14  O   UNK N   1      33.577  14.905  11.239  0.00  0.00    -0.382 OA
HETATM   15  H   UNK N   1      32.938  15.154  10.554  0.00  0.00     0.210 HD
ENDBRANCH  13  14
BRANCH  13  16
HETATM   16  C   UNK N   1      34.991  16.479  10.166  0.00  0.00     0.172 C 
HETATM   17  O   UNK N   1      35.616  17.514  10.327  0.00  0.00    -0.648 OA
BRANCH  16  18
HETATM   18  O   UNK N   1      34.393  16.244   8.982  0.00  0.00    -0.774 OA
HETATM   19  H   UNK N   1      33.916  16.885   8.492  0.00  0.00     0.167 HD
ENDBRANCH  16  18
ENDBRANCH  13  16
ENDBRANCH   1  13
TORSDOF 11
ENDMDL
MODEL 9
REMARK VINA RESULT:      -4.4     15.591     17.051
REMARK  11 active torsions:
REMARK  status: ('A' for Active; 'I' for Inactive)
REMARK    1  A    between atoms: O_1  and  C_2 
REMARK    2  A    between atoms: C_2  and  C_3 
REMARK    3  A    between atoms: C_3  and  O_4 
REMARK    4  A    between atoms: C_3  and  C_5 
REMARK    5  A    between atoms: C_5  and  O_6 
REMARK    6  A    between atoms: C_5  and  C_7 
REMARK    7  A    between atoms: C_7  and  O_8 
REMARK    8  A    between atoms: C_7  and  C_9 
REMARK    9  A    between atoms: C_9  and  O_10 
REMARK   10  A    between atoms: C_9  and  C_11 
REMARK   11  A    between atoms: C_11  and  O_12 
ROOT
HETATM    1  C   UNK N   1      19.786  17.852   2.297  0.00  0.00     0.188 C 
ENDROOT
BRANCH   1   2
HETATM    2  C   UNK N   1      19.828  17.012   1.001  0.00  0.00     0.180 C 
BRANCH   2   3
HETATM    3  C   UNK N   1      20.671  15.725   1.118  0.00  0.00     0.173 C 
BRANCH   3   4
HETATM    4  C   UNK N   1      19.823  14.482   0.875  0.00  0.00     0.198 C 
BRANCH   4   5
HETATM    5  O   UNK N   1      18.739  14.437   1.751  0.00  0.00    -0.398 OA
HETATM    6  H   UNK N   1      18.819  14.299   2.708  0.00  0.00     0.209 HD
ENDBRANCH   4   5
ENDBRANCH   3   4
BRANCH   3   7
HETATM    7  O   UNK N   1      21.222  15.613   2.395  0.00  0.00    -0.391 OA
HETATM    8  H   UNK N   1      21.985  15.038   2.567  0.00  0.00     0.210 HD
ENDBRANCH   3   7
ENDBRANCH   2   3
BRANCH   2   9
HETATM    9  O   UNK N   1      20.329  17.793  -0.044  0.00  0.00    -0.390 OA
HETATM   10  H   UNK N   1      21.023  17.461  -0.637  0.00  0.00     0.210 HD
ENDBRANCH   2   9
ENDBRANCH   1   2
BRANCH   1  11
HETATM   11  O   UNK N   1      18.623  18.628   2.312  0.00  0.00    -0.390 OA
HETATM   12  H   UNK N   1      18.092  18.715   3.119  0.00  0.00     0.210 HD
ENDBRANCH   1  11
BRANCH   1  13
HETATM   13  C   UNK N   1      21.008  18.787   2.394  0.00  0.00     0.246 C 
BRANCH  13  14
HETATM   14  O   UNK N   1      21.710  18.554   3.581  0.00  0.00    -0.382 OA
HETATM   15  H   UNK N   1      21.572  19.109   4.364  0.00  0.00     0.210 HD
ENDBRANCH  13  14
BRANCH  13  16
HETATM   16  C   UNK N   1      20.649  20.251   2.305  0.00  0.00     0.172 C 
HETATM   17  O   UNK N   1      20.610  20.935   3.314  0.00  0.00    -0.648 OA
BRANCH  16  18
HETATM   18  O   UNK N   1      20.320  20.800   1.119  0.00  0.00    -0.774 OA
HETATM   19  H   UNK N   1      20.783  21.506   0.715  0.00  0.00     0.167 HD
ENDBRANCH  16  18
ENDBRANCH  13  16
ENDBRANCH   1  13
TORSDOF 11
ENDMDL
