MODEL 1
REMARK VINA RESULT:      -4.9      0.000      0.000
REMARK  3 active torsions:
REMARK  status: ('A' for Active; 'I' for Inactive)
REMARK    1  A    between atoms: N_1  and  C_2 
REMARK    2  A    between atoms: C_7  and  C_8 
REMARK    3  A    between atoms: C_8  and  O_9 
ROOT
HETATM    1  C   UNK N   1      32.025  17.527   7.744  0.00  0.00     0.042 A 
HETATM    2  C   UNK N   1      31.149  17.189   6.708  0.00  0.00     0.030 A 
HETATM    3  C   UNK N   1      31.618  17.056   5.400  0.00  0.00     0.002 A 
HETATM    4  C   UNK N   1      32.968  17.260   5.118  0.00  0.00     0.001 A 
HETATM    5  C   UNK N   1      33.852  17.598   6.145  0.00  0.00     0.020 A 
HETATM    6  C   UNK N   1      33.399  17.736   7.467  0.00  0.00     0.063 A 
ENDROOT
BRANCH   6   7
HETATM    7  C   UNK N   1      34.385  18.097   8.520  0.00  0.00     0.178 C 
HETATM    8  O   UNK N   1      35.156  19.030   8.364  0.00  0.00    -0.646 OA
BRANCH   7   9
HETATM    9  O   UNK N   1      34.433  17.389   9.665  0.00  0.00    -0.773 OA
HETATM   10  H   UNK N   1      33.788  17.528  10.330  0.00  0.00     0.167 HD
ENDBRANCH   7   9
ENDBRANCH   6   7
BRANCH   1  11
HETATM   11  N   UNK N   1      31.514  17.652   9.053  0.00  0.00    -0.398 N 
HETATM   12  H   UNK N   1      31.611  16.911   9.693  0.00  0.00     0.156 HD
HETATM   13  H   UNK N   1      31.059  18.481   9.327  0.00  0.00     0.156 HD
ENDBRANCH   1  11
TORSDOF 3
ENDMDL
MODEL 2
REMARK VINA RESULT:      -4.7     15.128     16.082
REMARK  3 active torsions:
REMARK  status: ('A' for Active; 'I' for Inactive)
REMARK    1  A    between atoms: N_1  and  C_2 
REMARK    2  A    between atoms: C_7  and  C_8 
REMARK    3  A    between atoms: C_8  and  O_9 
ROOT
HETATM    1  C   UNK N   1      25.606  25.553  -5.319  0.00  0.00     0.042 A 
HETATM    2  C   UNK N   1      24.936  26.719  -5.702  0.00  0.00     0.030 A 
HETATM    3  C   UNK N   1      24.999  27.865  -4.909  0.00  0.00     0.002 A 
HETATM    4  C   UNK N   1      25.735  27.854  -3.724  0.00  0.00     0.001 A 
HETATM    5  C   UNK N   1      26.409  26.696  -3.331  0.00  0.00     0.020 A 
HETATM    6  C   UNK N   1      26.356  25.533  -4.116  0.00  0.00     0.063 A 
ENDROOT
BRANCH   6   7
HETATM    7  C   UNK N   1      27.092  24.329  -3.649  0.00  0.00     0.178 C 
HETATM    8  O   UNK N   1      26.899  23.867  -2.536  0.00  0.00    -0.646 OA
BRANCH   7   9
HETATM    9  O   UNK N   1      27.988  23.734  -4.460  0.00  0.00    -0.773 OA
HETATM   10  H   UNK N   1      27.707  23.349  -5.267  0.00  0.00     0.167 HD
ENDBRANCH   7   9
ENDBRANCH   6   7
BRANCH   1  11
HETATM   11  N   UNK N   1      25.518  24.415  -6.147  0.00  0.00    -0.398 N 
HETATM   12  H   UNK N   1      25.501  24.518  -7.126  0.00  0.00     0.156 HD
HETATM   13  H   UNK N   1      25.473  23.516  -5.747  0.00  0.00     0.156 HD
ENDBRANCH   1  11
TORSDOF 3
ENDMDL
MODEL 3
REMARK VINA RESULT:      -4.7     11.609     12.775
REMARK  3 active torsions:
REMARK  status: ('A' for Active; 'I' for Inactive)
REMARK    1  A    between atoms: N_1  and  C_2 
REMARK    2  A    between atoms: C_7  and  C_8 
REMARK    3  A    between atoms: C_8  and  O_9 
ROOT
HETATM    1  C   UNK N   1      21.886  12.283  11.029  0.00  0.00     0.042 A 
HETATM    2  C   UNK N   1      23.110  11.860  11.558  0.00  0.00     0.030 A 
HETATM    3  C   UNK N   1      24.307  12.183  10.917  0.00  0.00     0.002 A 
HETATM    4  C   UNK N   1      24.289  12.931   9.740  0.00  0.00     0.001 A 
HETATM    5  C   UNK N   1      23.073  13.358   9.202  0.00  0.00     0.020 A 
HETATM    6  C   UNK N   1      21.859  13.044   9.833  0.00  0.00     0.063 A 
ENDROOT
BRANCH   6   7
HETATM    7  C   UNK N   1      20.595  13.525   9.216  0.00  0.00     0.178 C 
HETATM    8  O   UNK N   1      20.456  13.548   8.004  0.00  0.00    -0.646 OA
BRANCH   7   9
HETATM    9  O   UNK N   1      19.582  13.942  10.001  0.00  0.00    -0.773 OA
HETATM   10  H   UNK N   1      19.248  14.813   9.911  0.00  0.00     0.167 HD
ENDBRANCH   7   9
ENDBRANCH   6   7
BRANCH   1  11
HETATM   11  N   UNK N   1      20.698  11.937  11.705  0.00  0.00    -0.398 N 
HETATM   12  H   UNK N   1      19.946  12.571  11.735  0.00  0.00     0.156 HD
HETATM   13  H   UNK N   1      20.620  11.061  12.149  0.00  0.00     0.156 HD
ENDBRANCH   1  11
TORSDOF 3
ENDMDL
MODEL 4
REMARK VINA RESULT:      -4.7     12.584     13.641
REMARK  3 active torsions:
REMARK  status: ('A' for Active; 'I' for Inactive)
REMARK    1  A    between atoms: N_1  and  C_2 
REMARK    2  A    between atoms: C_7  and  C_8 
REMARK    3  A    between atoms: C_8  and  O_9 
ROOT
HETATM    1  C   UNK N   1      19.978  18.452   2.732  0.00  0.00     0.042 A 
HETATM    2  C   UNK N   1      20.176  17.601   3.824  0.00  0.00     0.030 A 
HETATM    3  C   UNK N   1      21.329  17.707   4.603  0.00  0.00     0.002 A 
HETATM    4  C   UNK N   1      22.294  18.666   4.296  0.00  0.00     0.001 A 
HETATM    5  C   UNK N   1      22.106  19.521   3.207  0.00  0.00     0.020 A 
HETATM    6  C   UNK N   1      20.953  19.429   2.412  0.00  0.00     0.063 A 
ENDROOT
BRANCH   6   7
HETATM    7  C   UNK N   1      20.806  20.365   1.267  0.00  0.00     0.178 C 
HETATM    8  O   UNK N   1      20.848  21.573   1.433  0.00  0.00    -0.646 OA
BRANCH   7   9
HETATM    9  O   UNK N   1      20.624  19.880   0.023  0.00  0.00    -0.773 OA
HETATM   10  H   UNK N   1      19.763  19.849  -0.347  0.00  0.00     0.167 HD
ENDBRANCH   7   9
ENDBRANCH   6   7
BRANCH   1  11
HETATM   11  N   UNK N   1      18.800  18.314   1.968  0.00  0.00    -0.398 N 
HETATM   12  H   UNK N   1      18.260  17.494   2.039  0.00  0.00     0.156 HD
HETATM   13  H   UNK N   1      18.516  19.038   1.364  0.00  0.00     0.156 HD
ENDBRANCH   1  11
TORSDOF 3
ENDMDL
MODEL 5
REMARK VINA RESULT:      -4.5     10.679     12.069
REMARK  3 active torsions:
REMARK  status: ('A' for Active; 'I' for Inactive)
REMARK    1  A    between atoms: N_1  and  C_2 
REMARK    2  A    between atoms: C_7  and  C_8 
REMARK    3  A    between atoms: C_8  and  O_9 
ROOT
HETATM    1  C   UNK N   1      35.283  13.260  18.471  0.00  0.00     0.042 A 
HETATM    2  C   UNK N   1      35.261  12.592  19.700  0.00  0.00     0.030 A 
HETATM    3  C   UNK N   1      35.223  11.198  19.746  0.00  0.00     0.002 A 
HETATM    4  C   UNK N   1      35.207  10.460  18.563  0.00  0.00     0.001 A 
HETATM    5  C   UNK N   1      35.229  11.116  17.330  0.00  0.00     0.020 A 
HETATM    6  C   UNK N   1      35.267  12.518  17.264  0.00  0.00     0.063 A 
ENDROOT
BRANCH   6   7
HETATM    7  C   UNK N   1      35.289  13.163  15.924  0.00  0.00     0.178 C 
HETATM    8  O   UNK N   1      34.358  13.029  15.147  0.00  0.00    -0.646 OA
BRANCH   7   9
HETATM    9  O   UNK N   1      36.350  13.908  15.556  0.00  0.00    -0.773 OA
HETATM   10  H   UNK N   1      37.173  13.496  15.378  0.00  0.00     0.167 HD
ENDBRANCH   7   9
ENDBRANCH   6   7
BRANCH   1  11
HETATM   11  N   UNK N   1      35.322  14.670  18.465  0.00  0.00    -0.398 N 
HETATM   12  H   UNK N   1      35.944  15.148  19.060  0.00  0.00     0.156 HD
HETATM   13  H   UNK N   1      34.727  15.177  17.866  0.00  0.00     0.156 HD
ENDBRANCH   1  11
TORSDOF 3
ENDMDL
MODEL 6
REMARK VINA RESULT:      -4.5      3.289      4.188
REMARK  3 active torsions:
REMARK  status: ('A' for Active; 'I' for Inactive)
REMARK    1  A    between atoms: N_1  and  C_2 
REMARK    2  A    between atoms: C_7  and  C_8 
REMARK    3  A    between atoms: C_8  and  O_9 
ROOT
HETATM    1  C   UNK N   1      30.757  17.334   7.909  0.00  0.00     0.042 A 
HETATM    2  C   UNK N   1      31.291  16.971   6.669  0.00  0.00     0.030 A 
HETATM    3  C   UNK N   1      30.553  17.156   5.499  0.00  0.00     0.002 A 
HETATM    4  C   UNK N   1      29.273  17.707   5.561  0.00  0.00     0.001 A 
HETATM    5  C   UNK N   1      28.730  18.074   6.795  0.00  0.00     0.020 A 
HETATM    6  C   UNK N   1      29.458  17.895   7.982  0.00  0.00     0.063 A 
ENDROOT
BRANCH   6   7
HETATM    7  C   UNK N   1      28.830  18.304   9.266  0.00  0.00     0.178 C 
HETATM    8  O   UNK N   1      29.499  18.774  10.171  0.00  0.00    -0.646 OA
BRANCH   7   9
HETATM    9  O   UNK N   1      27.502  18.155   9.440  0.00  0.00    -0.773 OA
HETATM   10  H   UNK N   1      26.968  17.843   8.735  0.00  0.00     0.167 HD
ENDBRANCH   7   9
ENDBRANCH   6   7
BRANCH   1  11
HETATM   11  N   UNK N   1      31.534  17.131   9.069  0.00  0.00    -0.398 N 
HETATM   12  H   UNK N   1      31.352  17.656   9.882  0.00  0.00     0.156 HD
HETATM   13  H   UNK N   1      32.259  16.465   9.067  0.00  0.00     0.156 HD
ENDBRANCH   1  11
TORSDOF 3
ENDMDL
MODEL 7
REMARK VINA RESULT:      -4.4     10.606     11.460
REMARK  3 active torsions:
REMARK  status: ('A' for Active; 'I' for Inactive)
REMARK    1  A    between atoms: N_1  and  C_2 
REMARK    2  A    between atoms: C_7  and  C_8 
REMARK    3  A    between atoms: C_8  and  O_9 
ROOT
HETATM    1  C   UNK N   1      41.691  22.598   2.301  0.00  0.00     0.042 A 
HETATM    2  C   UNK N   1      40.680  21.750   1.841  0.00  0.00     0.030 A 
HETATM    3  C   UNK N   1      40.668  20.401   2.202  0.00  0.00     0.002 A 
HETATM    4  C   UNK N   1      41.669  19.891   3.028  0.00  0.00     0.001 A 
HETATM    5  C   UNK N   1      42.685  20.730   3.494  0.00  0.00     0.020 A 
HETATM    6  C   UNK N   1      42.713  22.088   3.141  0.00  0.00     0.063 A 
ENDROOT
BRANCH   6   7
HETATM    7  C   UNK N   1      43.817  22.933   3.666  0.00  0.00     0.178 C 
HETATM    8  O   UNK N   1      44.973  22.544   3.640  0.00  0.00    -0.646 OA
BRANCH   7   9
HETATM    9  O   UNK N   1      43.546  24.149   4.180  0.00  0.00    -0.773 OA
HETATM   10  H   UNK N   1      43.014  24.225   4.948  0.00  0.00     0.167 HD
ENDBRANCH   7   9
ENDBRANCH   6   7
BRANCH   1  11
HETATM   11  N   UNK N   1      41.669  23.954   1.914  0.00  0.00    -0.398 N 
HETATM   12  H   UNK N   1      41.495  24.654   2.583  0.00  0.00     0.156 HD
HETATM   13  H   UNK N   1      41.827  24.201   0.974  0.00  0.00     0.156 HD
ENDBRANCH   1  11
TORSDOF 3
ENDMDL
MODEL 8
REMARK VINA RESULT:      -4.4      1.550      2.446
REMARK  3 active torsions:
REMARK  status: ('A' for Active; 'I' for Inactive)
REMARK    1  A    between atoms: N_1  and  C_2 
REMARK    2  A    between atoms: C_7  and  C_8 
REMARK    3  A    between atoms: C_8  and  O_9 
ROOT
HETATM    1  C   UNK N   1      32.750  17.272   6.461  0.00  0.00     0.042 A 
HETATM    2  C   UNK N   1      31.484  17.014   5.926  0.00  0.00     0.030 A 
HETATM    3  C   UNK N   1      30.339  17.182   6.706  0.00  0.00     0.002 A 
HETATM    4  C   UNK N   1      30.451  17.610   8.029  0.00  0.00     0.001 A 
HETATM    5  C   UNK N   1      31.711  17.871   8.574  0.00  0.00     0.020 A 
HETATM    6  C   UNK N   1      32.874  17.708   7.805  0.00  0.00     0.063 A 
ENDROOT
BRANCH   6   7
HETATM    7  C   UNK N   1      34.188  18.000   8.436  0.00  0.00     0.178 C 
HETATM    8  O   UNK N   1      34.527  17.443   9.468  0.00  0.00    -0.646 OA
BRANCH   7   9
HETATM    9  O   UNK N   1      35.022  18.892   7.867  0.00  0.00    -0.773 OA
HETATM   10  H   UNK N   1      35.342  18.746   6.998  0.00  0.00     0.167 HD
ENDBRANCH   7   9
ENDBRANCH   6   7
BRANCH   1  11
HETATM   11  N   UNK N   1      33.884  17.091   5.642  0.00  0.00    -0.398 N 
HETATM   12  H   UNK N   1      33.783  16.713   4.738  0.00  0.00     0.156 HD
HETATM   13  H   UNK N   1      34.777  17.341   5.973  0.00  0.00     0.156 HD
ENDBRANCH   1  11
TORSDOF 3
ENDMDL
MODEL 9
REMARK VINA RESULT:      -4.4      3.894      4.686
REMARK  3 active torsions:
REMARK  status: ('A' for Active; 'I' for Inactive)
REMARK    1  A    between atoms: N_1  and  C_2 
REMARK    2  A    between atoms: C_7  and  C_8 
REMARK    3  A    between atoms: C_8  and  O_9 
ROOT
HETATM    1  C   UNK N   1      28.213  18.707   6.535  0.00  0.00     0.042 A 
HETATM    2  C   UNK N   1      28.567  18.474   5.202  0.00  0.00     0.030 A 
HETATM    3  C   UNK N   1      29.673  17.682   4.892  0.00  0.00     0.002 A 
HETATM    4  C   UNK N   1      30.435  17.116   5.913  0.00  0.00     0.001 A 
HETATM    5  C   UNK N   1      30.092  17.341   7.248  0.00  0.00     0.020 A 
HETATM    6  C   UNK N   1      28.982  18.135   7.579  0.00  0.00     0.063 A 
ENDROOT
BRANCH   6   7
HETATM    7  C   UNK N   1      28.663  18.341   9.017  0.00  0.00     0.178 C 
HETATM    8  O   UNK N   1      29.521  18.705   9.805  0.00  0.00    -0.646 OA
BRANCH   7   9
HETATM    9  O   UNK N   1      27.410  18.126   9.463  0.00  0.00    -0.773 OA
HETATM   10  H   UNK N   1      26.969  18.787   9.960  0.00  0.00     0.167 HD
ENDBRANCH   7   9
ENDBRANCH   6   7
BRANCH   1  11
HETATM   11  N   UNK N   1      27.089  19.513   6.809  0.00  0.00    -0.398 N 
HETATM   12  H   UNK N   1      27.159  20.493   6.750  0.00  0.00     0.156 HD
HETATM   13  H   UNK N   1      26.232  19.096   7.059  0.00  0.00     0.156 HD
ENDBRANCH   1  11
TORSDOF 3
ENDMDL
