MODEL 1
REMARK VINA RESULT:      -8.0      0.000      0.000
REMARK  14 active torsions:
REMARK  status: ('A' for Active; 'I' for Inactive)
REMARK    1  A    between atoms: C_2  and  O_3 
REMARK    2  A    between atoms: O_3  and  C_4 
REMARK    3  A    between atoms: C_4  and  C_6 
REMARK    4  A    between atoms: C_6  and  O_7 
REMARK    5  A    between atoms: O_7  and  N_8 
REMARK    6  A    between atoms: C_10  and  C_11 
REMARK    7  A    between atoms: C_10  and  C_18 
REMARK    8  A    between atoms: C_18  and  C_21 
REMARK    9  A    between atoms: C_27  and  C_28 
REMARK   10  A    between atoms: C_28  and  N_29 
REMARK   11  A    between atoms: N_29  and  C_30 
REMARK   12  A    between atoms: C_33  and  C_36 
REMARK   13  A    between atoms: C_36  and  N_37 
REMARK   14  A    between atoms: C_36  and  N_38 
ROOT
HETATM    1  C   UNK N   1      34.271  15.549   9.032  0.00  0.00    -0.041 A 
HETATM    2  C   UNK N   1      35.469  15.098   8.420  0.00  0.00     0.011 A 
HETATM    3  C   UNK N   1      36.241  14.093   9.019  0.00  0.00     0.033 A 
HETATM    4  C   UNK N   1      35.806  13.605  10.246  0.00  0.00     0.062 A 
HETATM    5  N   UNK N   1      36.320  12.608  10.968  0.00  0.00    -0.338 N 
HETATM    6  C   UNK N   1      37.453  11.795  10.562  0.00  0.00     0.158 C 
HETATM    7  C   UNK N   1      35.534  12.541  12.082  0.00  0.00     0.102 A 
HETATM    8  N   UNK N   1      34.536  13.460  12.053  0.00  0.00    -0.343 N 
ATOM      9  HN  UNK N   1      33.813  13.625  12.755  1.00  0.00     0.167 HD
HETATM   10  C   UNK N   1      34.715  14.103  10.885  0.00  0.00     0.061 A 
HETATM   11  C   UNK N   1      33.906  15.070  10.310  0.00  0.00     0.040 A 
ENDROOT
BRANCH   1  12
HETATM   12  C   UNK N   1      33.326  16.443   8.289  0.00  0.00     0.034 A 
HETATM   13  C   UNK N   1      33.987  16.987   7.030  0.00  0.00     0.022 A 
HETATM   14  C   UNK N   1      33.762  17.902   8.208  0.00  0.00     0.022 A 
BRANCH  12  15
HETATM   15  C   UNK N   1      31.868  16.004   7.973  0.00  0.00     0.072 C 
HETATM   16  N   UNK N   1      31.571  14.837   7.486  0.00  0.00    -0.267 N 
ATOM     17  HN  UNK N   1      30.587  14.640   7.304  1.00  0.00     0.194 HD
BRANCH  16  18
HETATM   18  O   UNK N   1      32.438  13.888   7.210  0.00  0.00    -0.270 OA
BRANCH  18  19
HETATM   19  C   UNK N   1      32.573  13.453   5.914  0.00  0.00     0.312 C 
BRANCH  19  20
HETATM   20  C   UNK N   1      31.801  14.308   4.959  0.00  0.00     0.285 C 
HETATM   21  O   UNK N   1      30.611  14.090   4.771  0.00  0.00    -0.263 OA
BRANCH  20  22
HETATM   22  O   UNK N   1      32.414  15.362   4.367  0.00  0.00    -0.320 OA
BRANCH  22  23
HETATM   23  C   UNK N   1      31.739  16.266   3.578  0.00  0.00     0.174 C 
HETATM   24  C   UNK N   1      31.952  17.670   4.102  0.00  0.00     0.034 C 
ENDBRANCH  22  23
ENDBRANCH  20  22
ENDBRANCH  19  20
ENDBRANCH  18  19
ENDBRANCH  16  18
BRANCH  15  25
HETATM   25  C   UNK N   1      30.702  16.901   8.214  0.00  0.00     0.057 A 
HETATM   26  C   UNK N   1      29.857  17.334   7.183  0.00  0.00     0.031 A 
HETATM   27  C   UNK N   1      28.804  18.202   7.470  0.00  0.00     0.004 A 
HETATM   28  C   UNK N   1      28.592  18.626   8.781  0.00  0.00     0.017 A 
HETATM   29  C   UNK N   1      29.445  18.179   9.788  0.00  0.00     0.088 A 
HETATM   30  N   UNK N   1      30.473  17.345   9.485  0.00  0.00    -0.364 N 
ATOM     31  HN  UNK N   1      31.098  17.041  10.232  1.00  0.00     0.165 HD
ENDBRANCH  15  25
ENDBRANCH  12  15
ENDBRANCH   1  12
BRANCH   7  32
HETATM   32  C   UNK N   1      35.678  11.581  13.232  0.00  0.00     0.196 C 
BRANCH  32  33
HETATM   33  N   UNK N   1      34.572  11.620  14.157  0.00  0.00    -0.383 N 
HETATM   34  H   UNK N   1      33.658  11.512  13.807  0.00  0.00     0.160 HD
BRANCH  33  35
HETATM   35  C   UNK N   1      34.749  11.808  15.550  0.00  0.00     0.028 A 
HETATM   36  C   UNK N   1      35.009  10.701  16.359  0.00  0.00     0.030 A 
HETATM   37  C   UNK N   1      35.215  10.866  17.729  0.00  0.00     0.017 A 
HETATM   38  C   UNK N   1      35.177  12.146  18.304  0.00  0.00     0.007 A 
HETATM   39  C   UNK N   1      34.931  13.259  17.487  0.00  0.00     0.017 A 
HETATM   40  C   UNK N   1      34.716  13.092  16.118  0.00  0.00     0.030 A 
BRANCH  38  41
HETATM   41  C   UNK N   1      35.371  12.322  19.758  0.00  0.00     0.102 C 
BRANCH  41  42
HETATM   42  N   UNK N   1      34.810  13.437  20.420  0.00  0.00    -0.385 N 
HETATM   43  H   UNK N   1      34.639  13.669  21.362  0.00  0.00     0.157 HD
HETATM   44  H   UNK N   1      34.523  14.145  19.797  0.00  0.00     0.157 HD
ENDBRANCH  41  42
BRANCH  41  45
HETATM   45  N   UNK N   1      36.015  11.445  20.436  0.00  0.00    -0.385 N 
HETATM   46  H   UNK N   1      36.181  11.589  21.396  0.00  0.00     0.157 HD
ATOM     47  HN  UNK N   1      36.356  10.598  19.982  1.00  0.00     0.157 HD
ENDBRANCH  41  45
ENDBRANCH  38  41
ENDBRANCH  33  35
ENDBRANCH  32  33
ENDBRANCH   7  32
TORSDOF 14
ENDMDL
MODEL 2
REMARK VINA RESULT:      -7.8      1.913      3.299
REMARK  14 active torsions:
REMARK  status: ('A' for Active; 'I' for Inactive)
REMARK    1  A    between atoms: C_2  and  O_3 
REMARK    2  A    between atoms: O_3  and  C_4 
REMARK    3  A    between atoms: C_4  and  C_6 
REMARK    4  A    between atoms: C_6  and  O_7 
REMARK    5  A    between atoms: O_7  and  N_8 
REMARK    6  A    between atoms: C_10  and  C_11 
REMARK    7  A    between atoms: C_10  and  C_18 
REMARK    8  A    between atoms: C_18  and  C_21 
REMARK    9  A    between atoms: C_27  and  C_28 
REMARK   10  A    between atoms: C_28  and  N_29 
REMARK   11  A    between atoms: N_29  and  C_30 
REMARK   12  A    between atoms: C_33  and  C_36 
REMARK   13  A    between atoms: C_36  and  N_37 
REMARK   14  A    between atoms: C_36  and  N_38 
ROOT
HETATM    1  C   UNK N   1      33.978  15.844   8.565  0.00  0.00    -0.041 A 
HETATM    2  C   UNK N   1      35.027  15.226   7.837  0.00  0.00     0.011 A 
HETATM    3  C   UNK N   1      35.713  14.127   8.369  0.00  0.00     0.033 A 
HETATM    4  C   UNK N   1      35.352  13.712   9.646  0.00  0.00     0.062 A 
HETATM    5  N   UNK N   1      35.799  12.657  10.331  0.00  0.00    -0.338 N 
HETATM    6  C   UNK N   1      36.757  11.691   9.822  0.00  0.00     0.158 C 
HETATM    7  C   UNK N   1      35.139  12.708  11.524  0.00  0.00     0.102 A 
HETATM    8  N   UNK N   1      34.281  13.758  11.583  0.00  0.00    -0.343 N 
ATOM      9  HN  UNK N   1      33.670  14.027  12.355  1.00  0.00     0.167 HD
HETATM   10  C   UNK N   1      34.418  14.362  10.390  0.00  0.00     0.061 A 
HETATM   11  C   UNK N   1      33.693  15.430   9.885  0.00  0.00     0.040 A 
ENDROOT
BRANCH   1  12
HETATM   12  C   UNK N   1      33.090  16.858   7.909  0.00  0.00     0.034 A 
HETATM   13  C   UNK N   1      33.755  17.419   6.660  0.00  0.00     0.022 A 
HETATM   14  C   UNK N   1      33.647  18.278   7.896  0.00  0.00     0.022 A 
BRANCH  12  15
HETATM   15  C   UNK N   1      31.591  16.563   7.622  0.00  0.00     0.072 C 
HETATM   16  N   UNK N   1      30.622  17.111   8.293  0.00  0.00    -0.267 N 
ATOM     17  HN  UNK N   1      29.669  16.853   8.038  1.00  0.00     0.194 HD
BRANCH  16  18
HETATM   18  O   UNK N   1      30.772  17.974   9.273  0.00  0.00    -0.270 OA
BRANCH  18  19
HETATM   19  C   UNK N   1      29.663  18.559   9.833  0.00  0.00     0.312 C 
BRANCH  19  20
HETATM   20  C   UNK N   1      28.415  18.219   9.080  0.00  0.00     0.285 C 
HETATM   21  O   UNK N   1      27.753  17.243   9.408  0.00  0.00    -0.263 OA
BRANCH  20  22
HETATM   22  O   UNK N   1      27.994  19.041   8.088  0.00  0.00    -0.320 OA
BRANCH  22  23
HETATM   23  C   UNK N   1      27.895  18.632   6.777  0.00  0.00     0.174 C 
HETATM   24  C   UNK N   1      27.819  19.836   5.863  0.00  0.00     0.034 C 
ENDBRANCH  22  23
ENDBRANCH  20  22
ENDBRANCH  19  20
ENDBRANCH  18  19
ENDBRANCH  16  18
BRANCH  15  25
HETATM   25  C   UNK N   1      31.159  15.627   6.545  0.00  0.00     0.057 A 
HETATM   26  C   UNK N   1      30.163  15.954   5.616  0.00  0.00     0.031 A 
HETATM   27  C   UNK N   1      29.779  15.019   4.655  0.00  0.00     0.004 A 
HETATM   28  C   UNK N   1      30.395  13.768   4.618  0.00  0.00     0.017 A 
HETATM   29  C   UNK N   1      31.385  13.469   5.552  0.00  0.00     0.088 A 
HETATM   30  N   UNK N   1      31.734  14.389   6.489  0.00  0.00    -0.364 N 
ATOM     31  HN  UNK N   1      32.448  14.147   7.176  1.00  0.00     0.165 HD
ENDBRANCH  15  25
ENDBRANCH  12  15
ENDBRANCH   1  12
BRANCH   7  32
HETATM   32  C   UNK N   1      35.274  11.745  12.673  0.00  0.00     0.196 C 
BRANCH  32  33
HETATM   33  N   UNK N   1      34.262  11.912  13.686  0.00  0.00    -0.383 N 
HETATM   34  H   UNK N   1      33.326  12.036  13.406  0.00  0.00     0.160 HD
BRANCH  33  35
HETATM   35  C   UNK N   1      34.561  11.904  15.071  0.00  0.00     0.028 A 
HETATM   36  C   UNK N   1      34.689  10.681  15.733  0.00  0.00     0.030 A 
HETATM   37  C   UNK N   1      35.012  10.649  17.090  0.00  0.00     0.017 A 
HETATM   38  C   UNK N   1      35.225  11.841  17.798  0.00  0.00     0.007 A 
HETATM   39  C   UNK N   1      35.112  13.068  17.128  0.00  0.00     0.017 A 
HETATM   40  C   UNK N   1      34.780  13.100  15.772  0.00  0.00     0.030 A 
BRANCH  38  41
HETATM   41  C   UNK N   1      35.543  11.811  19.240  0.00  0.00     0.102 C 
BRANCH  41  42
HETATM   42  N   UNK N   1      36.252  10.719  19.789  0.00  0.00    -0.385 N 
HETATM   43  H   UNK N   1      36.226  10.239  20.648  0.00  0.00     0.157 HD
HETATM   44  H   UNK N   1      36.927  10.355  19.171  0.00  0.00     0.157 HD
ENDBRANCH  41  42
BRANCH  41  45
HETATM   45  N   UNK N   1      35.212  12.793  19.998  0.00  0.00    -0.385 N 
HETATM   46  H   UNK N   1      35.873  13.488  20.218  0.00  0.00     0.157 HD
ATOM     47  HN  UNK N   1      34.266  12.852  20.371  1.00  0.00     0.157 HD
ENDBRANCH  41  45
ENDBRANCH  38  41
ENDBRANCH  33  35
ENDBRANCH  32  33
ENDBRANCH   7  32
TORSDOF 14
ENDMDL
MODEL 3
REMARK VINA RESULT:      -7.8      7.187     11.705
REMARK  14 active torsions:
REMARK  status: ('A' for Active; 'I' for Inactive)
REMARK    1  A    between atoms: C_2  and  O_3 
REMARK    2  A    between atoms: O_3  and  C_4 
REMARK    3  A    between atoms: C_4  and  C_6 
REMARK    4  A    between atoms: C_6  and  O_7 
REMARK    5  A    between atoms: O_7  and  N_8 
REMARK    6  A    between atoms: C_10  and  C_11 
REMARK    7  A    between atoms: C_10  and  C_18 
REMARK    8  A    between atoms: C_18  and  C_21 
REMARK    9  A    between atoms: C_27  and  C_28 
REMARK   10  A    between atoms: C_28  and  N_29 
REMARK   11  A    between atoms: N_29  and  C_30 
REMARK   12  A    between atoms: C_33  and  C_36 
REMARK   13  A    between atoms: C_36  and  N_37 
REMARK   14  A    between atoms: C_36  and  N_38 
ROOT
HETATM    1  C   UNK N   1      22.858  13.849   6.275  0.00  0.00    -0.041 A 
HETATM    2  C   UNK N   1      23.457  13.025   5.287  0.00  0.00     0.011 A 
HETATM    3  C   UNK N   1      24.684  13.380   4.712  0.00  0.00     0.033 A 
HETATM    4  C   UNK N   1      25.250  14.584   5.115  0.00  0.00     0.062 A 
HETATM    5  N   UNK N   1      26.433  15.098   4.774  0.00  0.00    -0.338 N 
HETATM    6  C   UNK N   1      27.399  14.440   3.912  0.00  0.00     0.158 C 
HETATM    7  C   UNK N   1      26.499  16.293   5.431  0.00  0.00     0.102 A 
HETATM    8  N   UNK N   1      25.392  16.518   6.184  0.00  0.00    -0.343 N 
ATOM      9  HN  UNK N   1      25.185  17.328   6.769  1.00  0.00     0.167 HD
HETATM   10  C   UNK N   1      24.632  15.426   5.985  0.00  0.00     0.061 A 
HETATM   11  C   UNK N   1      23.436  15.095   6.603  0.00  0.00     0.040 A 
ENDROOT
BRANCH   1  12
HETATM   12  C   UNK N   1      21.677  13.362   7.058  0.00  0.00     0.034 A 
HETATM   13  C   UNK N   1      21.485  11.865   6.857  0.00  0.00     0.022 A 
HETATM   14  C   UNK N   1      20.525  12.832   6.210  0.00  0.00     0.022 A 
BRANCH  12  15
HETATM   15  C   UNK N   1      21.492  13.721   8.560  0.00  0.00     0.072 C 
HETATM   16  N   UNK N   1      20.592  14.559   8.980  0.00  0.00    -0.267 N 
ATOM     17  HN  UNK N   1      20.548  14.739   9.983  1.00  0.00     0.194 HD
BRANCH  16  18
HETATM   18  O   UNK N   1      19.732  15.194   8.215  0.00  0.00    -0.270 OA
BRANCH  18  19
HETATM   19  C   UNK N   1      19.181  16.373   8.653  0.00  0.00     0.312 C 
BRANCH  19  20
HETATM   20  C   UNK N   1      20.075  17.541   8.379  0.00  0.00     0.285 C 
HETATM   21  O   UNK N   1      19.884  18.604   8.954  0.00  0.00    -0.263 OA
BRANCH  20  22
HETATM   22  O   UNK N   1      21.136  17.383   7.549  0.00  0.00    -0.320 OA
BRANCH  22  23
HETATM   23  C   UNK N   1      21.215  18.001   6.321  0.00  0.00     0.174 C 
HETATM   24  C   UNK N   1      20.675  17.084   5.245  0.00  0.00     0.034 C 
ENDBRANCH  22  23
ENDBRANCH  20  22
ENDBRANCH  19  20
ENDBRANCH  18  19
ENDBRANCH  16  18
BRANCH  15  25
HETATM   25  C   UNK N   1      22.338  13.119   9.629  0.00  0.00     0.057 A 
HETATM   26  C   UNK N   1      23.733  13.037   9.529  0.00  0.00     0.031 A 
HETATM   27  C   UNK N   1      24.465  12.428  10.549  0.00  0.00     0.004 A 
HETATM   28  C   UNK N   1      23.806  11.913  11.665  0.00  0.00     0.017 A 
HETATM   29  C   UNK N   1      22.418  12.010  11.740  0.00  0.00     0.088 A 
HETATM   30  N   UNK N   1      21.723  12.594  10.729  0.00  0.00    -0.364 N 
ATOM     31  HN  UNK N   1      20.706  12.641  10.793  1.00  0.00     0.165 HD
ENDBRANCH  15  25
ENDBRANCH  12  15
ENDBRANCH   1  12
BRANCH   7  32
HETATM   32  C   UNK N   1      27.632  17.282   5.393  0.00  0.00     0.196 C 
BRANCH  32  33
HETATM   33  N   UNK N   1      28.010  17.775   6.695  0.00  0.00    -0.383 N 
HETATM   34  H   UNK N   1      27.312  18.142   7.284  0.00  0.00     0.160 HD
BRANCH  33  35
HETATM   35  C   UNK N   1      29.348  17.750   7.159  0.00  0.00     0.028 A 
HETATM   36  C   UNK N   1      29.650  18.322   8.397  0.00  0.00     0.030 A 
HETATM   37  C   UNK N   1      30.956  18.284   8.888  0.00  0.00     0.017 A 
HETATM   38  C   UNK N   1      31.974  17.660   8.150  0.00  0.00     0.007 A 
HETATM   39  C   UNK N   1      31.666  17.072   6.915  0.00  0.00     0.017 A 
HETATM   40  C   UNK N   1      30.361  17.118   6.421  0.00  0.00     0.030 A 
BRANCH  38  41
HETATM   41  C   UNK N   1      33.362  17.639   8.655  0.00  0.00     0.102 C 
BRANCH  41  42
HETATM   42  N   UNK N   1      33.782  16.618   9.538  0.00  0.00    -0.385 N 
HETATM   43  H   UNK N   1      34.641  16.174   9.723  0.00  0.00     0.157 HD
HETATM   44  H   UNK N   1      33.047  16.271  10.096  0.00  0.00     0.157 HD
ENDBRANCH  41  42
BRANCH  41  45
HETATM   45  N   UNK N   1      34.206  18.523   8.267  0.00  0.00    -0.385 N 
HETATM   46  H   UNK N   1      33.889  19.374   7.890  0.00  0.00     0.157 HD
ATOM     47  HN  UNK N   1      35.206  18.343   8.350  1.00  0.00     0.157 HD
ENDBRANCH  41  45
ENDBRANCH  38  41
ENDBRANCH  33  35
ENDBRANCH  32  33
ENDBRANCH   7  32
TORSDOF 14
ENDMDL
MODEL 4
REMARK VINA RESULT:      -7.7      7.474     12.012
REMARK  14 active torsions:
REMARK  status: ('A' for Active; 'I' for Inactive)
REMARK    1  A    between atoms: C_2  and  O_3 
REMARK    2  A    between atoms: O_3  and  C_4 
REMARK    3  A    between atoms: C_4  and  C_6 
REMARK    4  A    between atoms: C_6  and  O_7 
REMARK    5  A    between atoms: O_7  and  N_8 
REMARK    6  A    between atoms: C_10  and  C_11 
REMARK    7  A    between atoms: C_10  and  C_18 
REMARK    8  A    between atoms: C_18  and  C_21 
REMARK    9  A    between atoms: C_27  and  C_28 
REMARK   10  A    between atoms: C_28  and  N_29 
REMARK   11  A    between atoms: N_29  and  C_30 
REMARK   12  A    between atoms: C_33  and  C_36 
REMARK   13  A    between atoms: C_36  and  N_37 
REMARK   14  A    between atoms: C_36  and  N_38 
ROOT
HETATM    1  C   UNK N   1      23.167  13.872   6.664  0.00  0.00    -0.041 A 
HETATM    2  C   UNK N   1      23.903  12.821   6.059  0.00  0.00     0.011 A 
HETATM    3  C   UNK N   1      25.200  13.043   5.579  0.00  0.00     0.033 A 
HETATM    4  C   UNK N   1      25.701  14.336   5.679  0.00  0.00     0.062 A 
HETATM    5  N   UNK N   1      26.921  14.778   5.367  0.00  0.00    -0.338 N 
HETATM    6  C   UNK N   1      28.002  13.937   4.880  0.00  0.00     0.158 C 
HETATM    7  C   UNK N   1      26.892  16.114   5.641  0.00  0.00     0.102 A 
HETATM    8  N   UNK N   1      25.688  16.503   6.134  0.00  0.00    -0.343 N 
ATOM      9  HN  UNK N   1      25.398  17.440   6.417  1.00  0.00     0.167 HD
HETATM   10  C   UNK N   1      24.965  15.370   6.166  0.00  0.00     0.061 A 
HETATM   11  C   UNK N   1      23.692  15.183   6.684  0.00  0.00     0.040 A 
ENDROOT
BRANCH   1  12
HETATM   12  C   UNK N   1      21.887  13.587   7.387  0.00  0.00     0.034 A 
HETATM   13  C   UNK N   1      21.475  12.135   7.189  0.00  0.00     0.022 A 
HETATM   14  C   UNK N   1      20.712  13.228   6.483  0.00  0.00     0.022 A 
BRANCH  12  15
HETATM   15  C   UNK N   1      21.682  13.995   8.874  0.00  0.00     0.072 C 
HETATM   16  N   UNK N   1      21.040  15.068   9.230  0.00  0.00    -0.267 N 
ATOM     17  HN  UNK N   1      20.961  15.259  10.229  1.00  0.00     0.194 HD
BRANCH  16  18
HETATM   18  O   UNK N   1      20.483  15.927   8.405  0.00  0.00    -0.270 OA
BRANCH  18  19
HETATM   19  C   UNK N   1      19.212  16.380   8.660  0.00  0.00     0.312 C 
BRANCH  19  20
HETATM   20  C   UNK N   1      19.208  17.814   9.087  0.00  0.00     0.285 C 
HETATM   21  O   UNK N   1      20.089  18.568   8.696  0.00  0.00    -0.263 OA
BRANCH  20  22
HETATM   22  O   UNK N   1      18.184  18.278   9.845  0.00  0.00    -0.320 OA
BRANCH  22  23
HETATM   23  C   UNK N   1      18.381  19.070  10.953  0.00  0.00     0.174 C 
HETATM   24  C   UNK N   1      17.158  19.026  11.845  0.00  0.00     0.034 C 
ENDBRANCH  22  23
ENDBRANCH  20  22
ENDBRANCH  19  20
ENDBRANCH  18  19
ENDBRANCH  16  18
BRANCH  15  25
HETATM   25  C   UNK N   1      22.208  13.174  10.001  0.00  0.00     0.057 A 
HETATM   26  C   UNK N   1      21.370  12.555  10.938  0.00  0.00     0.031 A 
HETATM   27  C   UNK N   1      21.927  11.830  11.992  0.00  0.00     0.004 A 
HETATM   28  C   UNK N   1      23.313  11.716  12.100  0.00  0.00     0.017 A 
HETATM   29  C   UNK N   1      24.123  12.338  11.152  0.00  0.00     0.088 A 
HETATM   30  N   UNK N   1      23.561  13.052  10.143  0.00  0.00    -0.364 N 
ATOM     31  HN  UNK N   1      24.169  13.515   9.468  1.00  0.00     0.165 HD
ENDBRANCH  15  25
ENDBRANCH  12  15
ENDBRANCH   1  12
BRANCH   7  32
HETATM   32  C   UNK N   1      28.018  17.097   5.467  0.00  0.00     0.196 C 
BRANCH  32  33
HETATM   33  N   UNK N   1      28.574  17.563   6.713  0.00  0.00    -0.383 N 
HETATM   34  H   UNK N   1      27.963  17.896   7.410  0.00  0.00     0.160 HD
BRANCH  33  35
HETATM   35  C   UNK N   1      29.966  17.559   6.975  0.00  0.00     0.028 A 
HETATM   36  C   UNK N   1      30.422  17.927   8.242  0.00  0.00     0.030 A 
HETATM   37  C   UNK N   1      31.787  17.904   8.531  0.00  0.00     0.017 A 
HETATM   38  C   UNK N   1      32.712  17.497   7.557  0.00  0.00     0.007 A 
HETATM   39  C   UNK N   1      32.251  17.113   6.290  0.00  0.00     0.017 A 
HETATM   40  C   UNK N   1      30.887  17.145   5.999  0.00  0.00     0.030 A 
BRANCH  38  41
HETATM   41  C   UNK N   1      34.159  17.495   7.852  0.00  0.00     0.102 C 
BRANCH  41  42
HETATM   42  N   UNK N   1      34.770  18.632   8.427  0.00  0.00    -0.385 N 
HETATM   43  H   UNK N   1      35.279  19.397   8.073  0.00  0.00     0.157 HD
HETATM   44  H   UNK N   1      34.662  18.668   9.406  0.00  0.00     0.157 HD
ENDBRANCH  41  42
BRANCH  41  45
HETATM   45  N   UNK N   1      34.865  16.448   7.626  0.00  0.00    -0.385 N 
HETATM   46  H   UNK N   1      34.572  15.793   6.952  0.00  0.00     0.157 HD
ATOM     47  HN  UNK N   1      35.729  16.294   8.145  1.00  0.00     0.157 HD
ENDBRANCH  41  45
ENDBRANCH  38  41
ENDBRANCH  33  35
ENDBRANCH  32  33
ENDBRANCH   7  32
TORSDOF 14
ENDMDL
MODEL 5
REMARK VINA RESULT:      -7.5      7.277     11.136
REMARK  14 active torsions:
REMARK  status: ('A' for Active; 'I' for Inactive)
REMARK    1  A    between atoms: C_2  and  O_3 
REMARK    2  A    between atoms: O_3  and  C_4 
REMARK    3  A    between atoms: C_4  and  C_6 
REMARK    4  A    between atoms: C_6  and  O_7 
REMARK    5  A    between atoms: O_7  and  N_8 
REMARK    6  A    between atoms: C_10  and  C_11 
REMARK    7  A    between atoms: C_10  and  C_18 
REMARK    8  A    between atoms: C_18  and  C_21 
REMARK    9  A    between atoms: C_27  and  C_28 
REMARK   10  A    between atoms: C_28  and  N_29 
REMARK   11  A    between atoms: N_29  and  C_30 
REMARK   12  A    between atoms: C_33  and  C_36 
REMARK   13  A    between atoms: C_36  and  N_37 
REMARK   14  A    between atoms: C_36  and  N_38 
ROOT
HETATM    1  C   UNK N   1      25.666  17.963   4.766  0.00  0.00    -0.041 A 
HETATM    2  C   UNK N   1      24.588  18.873   4.610  0.00  0.00     0.011 A 
HETATM    3  C   UNK N   1      23.263  18.420   4.648  0.00  0.00     0.033 A 
HETATM    4  C   UNK N   1      23.063  17.052   4.793  0.00  0.00     0.062 A 
HETATM    5  N   UNK N   1      21.911  16.394   4.930  0.00  0.00    -0.338 N 
HETATM    6  C   UNK N   1      20.604  17.026   4.995  0.00  0.00     0.158 C 
HETATM    7  C   UNK N   1      22.266  15.079   5.024  0.00  0.00     0.102 A 
HETATM    8  N   UNK N   1      23.613  14.914   4.967  0.00  0.00    -0.343 N 
ATOM      9  HN  UNK N   1      24.141  14.042   5.012  1.00  0.00     0.167 HD
HETATM   10  C   UNK N   1      24.092  16.165   4.841  0.00  0.00     0.061 A 
HETATM   11  C   UNK N   1      25.416  16.576   4.843  0.00  0.00     0.040 A 
ENDROOT
BRANCH   1  12
HETATM   12  C   UNK N   1      27.064  18.466   4.964  0.00  0.00     0.034 A 
HETATM   13  C   UNK N   1      27.050  19.809   5.682  0.00  0.00     0.022 A 
HETATM   14  C   UNK N   1      27.389  19.754   4.213  0.00  0.00     0.022 A 
BRANCH  12  15
HETATM   15  C   UNK N   1      28.179  17.560   5.558  0.00  0.00     0.072 C 
HETATM   16  N   UNK N   1      28.871  16.728   4.839  0.00  0.00    -0.267 N 
ATOM     17  HN  UNK N   1      29.578  16.169   5.316  1.00  0.00     0.194 HD
BRANCH  16  18
HETATM   18  O   UNK N   1      28.733  16.549   3.544  0.00  0.00    -0.270 OA
BRANCH  18  19
HETATM   19  C   UNK N   1      29.847  16.327   2.771  0.00  0.00     0.312 C 
BRANCH  19  20
HETATM   20  C   UNK N   1      31.094  16.271   3.597  0.00  0.00     0.285 C 
HETATM   21  O   UNK N   1      31.609  15.190   3.850  0.00  0.00    -0.263 OA
BRANCH  20  22
HETATM   22  O   UNK N   1      31.679  17.429   3.993  0.00  0.00    -0.320 OA
BRANCH  22  23
HETATM   23  C   UNK N   1      33.009  17.505   4.342  0.00  0.00     0.174 C 
HETATM   24  C   UNK N   1      33.153  17.450   5.848  0.00  0.00     0.034 C 
ENDBRANCH  22  23
ENDBRANCH  20  22
ENDBRANCH  19  20
ENDBRANCH  18  19
ENDBRANCH  16  18
BRANCH  15  25
HETATM   25  C   UNK N   1      28.536  17.590   7.005  0.00  0.00     0.057 A 
HETATM   26  C   UNK N   1      29.826  17.898   7.457  0.00  0.00     0.031 A 
HETATM   27  C   UNK N   1      30.105  17.872   8.824  0.00  0.00     0.004 A 
HETATM   28  C   UNK N   1      29.097  17.550   9.732  0.00  0.00     0.017 A 
HETATM   29  C   UNK N   1      27.822  17.250   9.256  0.00  0.00     0.088 A 
HETATM   30  N   UNK N   1      27.575  17.266   7.920  0.00  0.00    -0.364 N 
ATOM     31  HN  UNK N   1      26.641  17.027   7.588  1.00  0.00     0.165 HD
ENDBRANCH  15  25
ENDBRANCH  12  15
ENDBRANCH   1  12
BRANCH   7  32
HETATM   32  C   UNK N   1      21.342  13.904   5.192  0.00  0.00     0.196 C 
BRANCH  32  33
HETATM   33  N   UNK N   1      20.717  13.844   6.491  0.00  0.00    -0.383 N 
HETATM   34  H   UNK N   1      19.772  14.108   6.574  0.00  0.00     0.160 HD
BRANCH  33  35
HETATM   35  C   UNK N   1      21.409  13.421   7.652  0.00  0.00     0.028 A 
HETATM   36  C   UNK N   1      21.034  13.936   8.894  0.00  0.00     0.030 A 
HETATM   37  C   UNK N   1      21.683  13.511  10.054  0.00  0.00     0.017 A 
HETATM   38  C   UNK N   1      22.707  12.554   9.985  0.00  0.00     0.007 A 
HETATM   39  C   UNK N   1      23.071  12.026   8.738  0.00  0.00     0.017 A 
HETATM   40  C   UNK N   1      22.428  12.457   7.577  0.00  0.00     0.030 A 
BRANCH  38  41
HETATM   41  C   UNK N   1      23.412  12.120  11.209  0.00  0.00     0.102 C 
BRANCH  41  42
HETATM   42  N   UNK N   1      24.819  12.224  11.293  0.00  0.00    -0.385 N 
HETATM   43  H   UNK N   1      25.496  11.928  11.943  0.00  0.00     0.157 HD
HETATM   44  H   UNK N   1      25.211  12.703  10.527  0.00  0.00     0.157 HD
ENDBRANCH  41  42
BRANCH  41  45
HETATM   45  N   UNK N   1      22.751  11.683  12.217  0.00  0.00    -0.385 N 
HETATM   46  H   UNK N   1      23.187  11.093  12.873  0.00  0.00     0.157 HD
ATOM     47  HN  UNK N   1      21.773  11.946  12.339  1.00  0.00     0.157 HD
ENDBRANCH  41  45
ENDBRANCH  38  41
ENDBRANCH  33  35
ENDBRANCH  32  33
ENDBRANCH   7  32
TORSDOF 14
ENDMDL
MODEL 6
REMARK VINA RESULT:      -7.4      3.690     10.925
REMARK  14 active torsions:
REMARK  status: ('A' for Active; 'I' for Inactive)
REMARK    1  A    between atoms: C_2  and  O_3 
REMARK    2  A    between atoms: O_3  and  C_4 
REMARK    3  A    between atoms: C_4  and  C_6 
REMARK    4  A    between atoms: C_6  and  O_7 
REMARK    5  A    between atoms: O_7  and  N_8 
REMARK    6  A    between atoms: C_10  and  C_11 
REMARK    7  A    between atoms: C_10  and  C_18 
REMARK    8  A    between atoms: C_18  and  C_21 
REMARK    9  A    between atoms: C_27  and  C_28 
REMARK   10  A    between atoms: C_28  and  N_29 
REMARK   11  A    between atoms: N_29  and  C_30 
REMARK   12  A    between atoms: C_33  and  C_36 
REMARK   13  A    between atoms: C_36  and  N_37 
REMARK   14  A    between atoms: C_36  and  N_38 
ROOT
HETATM    1  C   UNK N   1      34.895  12.102  12.759  0.00  0.00    -0.041 A 
HETATM    2  C   UNK N   1      35.240  11.484  11.529  0.00  0.00     0.011 A 
HETATM    3  C   UNK N   1      35.439  12.256  10.377  0.00  0.00     0.033 A 
HETATM    4  C   UNK N   1      35.237  13.627  10.487  0.00  0.00     0.062 A 
HETATM    5  N   UNK N   1      35.435  14.569   9.564  0.00  0.00    -0.338 N 
HETATM    6  C   UNK N   1      35.958  14.321   8.232  0.00  0.00     0.158 C 
HETATM    7  C   UNK N   1      35.078  15.738  10.173  0.00  0.00     0.102 A 
HETATM    8  N   UNK N   1      34.684  15.539  11.457  0.00  0.00    -0.343 N 
ATOM      9  HN  UNK N   1      34.367  16.236  12.132  1.00  0.00     0.167 HD
HETATM   10  C   UNK N   1      34.809  14.212  11.637  0.00  0.00     0.061 A 
HETATM   11  C   UNK N   1      34.635  13.489  12.807  0.00  0.00     0.040 A 
ENDROOT
BRANCH   1  12
HETATM   12  C   UNK N   1      34.914  11.317  14.036  0.00  0.00     0.034 A 
HETATM   13  C   UNK N   1      34.724   9.833  13.752  0.00  0.00     0.022 A 
HETATM   14  C   UNK N   1      33.599  10.622  14.375  0.00  0.00     0.022 A 
BRANCH  12  15
HETATM   15  C   UNK N   1      36.034  11.513  15.096  0.00  0.00     0.072 C 
HETATM   16  N   UNK N   1      37.291  11.296  14.845  0.00  0.00    -0.267 N 
ATOM     17  HN  UNK N   1      37.954  11.445  15.605  1.00  0.00     0.194 HD
BRANCH  16  18
HETATM   18  O   UNK N   1      37.775  10.900  13.689  0.00  0.00    -0.270 OA
BRANCH  18  19
HETATM   19  C   UNK N   1      38.240   9.615  13.556  0.00  0.00     0.312 C 
BRANCH  19  20
HETATM   20  C   UNK N   1      38.921   9.140  14.801  0.00  0.00     0.285 C 
HETATM   21  O   UNK N   1      40.088   9.446  15.012  0.00  0.00    -0.263 OA
BRANCH  20  22
HETATM   22  O   UNK N   1      38.213   8.436  15.718  0.00  0.00    -0.320 OA
BRANCH  22  23
HETATM   23  C   UNK N   1      37.216   7.553  15.366  0.00  0.00     0.174 C 
HETATM   24  C   UNK N   1      36.043   7.694  16.313  0.00  0.00     0.034 C 
ENDBRANCH  22  23
ENDBRANCH  20  22
ENDBRANCH  19  20
ENDBRANCH  18  19
ENDBRANCH  16  18
BRANCH  15  25
HETATM   25  C   UNK N   1      35.740  11.972  16.483  0.00  0.00     0.057 A 
HETATM   26  C   UNK N   1      35.414  13.301  16.785  0.00  0.00     0.031 A 
HETATM   27  C   UNK N   1      35.186  13.675  18.109  0.00  0.00     0.004 A 
HETATM   28  C   UNK N   1      35.273  12.722  19.124  0.00  0.00     0.017 A 
HETATM   29  C   UNK N   1      35.596  11.406  18.797  0.00  0.00     0.088 A 
HETATM   30  N   UNK N   1      35.829  11.067  17.502  0.00  0.00    -0.364 N 
ATOM     31  HN  UNK N   1      36.081  10.103  17.283  1.00  0.00     0.165 HD
ENDBRANCH  15  25
ENDBRANCH  12  15
ENDBRANCH   1  12
BRANCH   7  32
HETATM   32  C   UNK N   1      35.111  17.117   9.572  0.00  0.00     0.196 C 
BRANCH  32  33
HETATM   33  N   UNK N   1      33.805  17.632   9.242  0.00  0.00    -0.383 N 
HETATM   34  H   UNK N   1      33.308  18.137   9.926  0.00  0.00     0.160 HD
BRANCH  33  35
HETATM   35  C   UNK N   1      33.208  17.441   7.971  0.00  0.00     0.028 A 
HETATM   36  C   UNK N   1      31.823  17.294   7.885  0.00  0.00     0.030 A 
HETATM   37  C   UNK N   1      31.211  17.134   6.641  0.00  0.00     0.017 A 
HETATM   38  C   UNK N   1      31.979  17.132   5.467  0.00  0.00     0.007 A 
HETATM   39  C   UNK N   1      33.369  17.297   5.554  0.00  0.00     0.017 A 
HETATM   40  C   UNK N   1      33.981  17.448   6.799  0.00  0.00     0.030 A 
BRANCH  38  41
HETATM   41  C   UNK N   1      31.337  16.938   4.150  0.00  0.00     0.102 C 
BRANCH  41  42
HETATM   42  N   UNK N   1      30.195  16.113   4.031  0.00  0.00    -0.385 N 
HETATM   43  H   UNK N   1      29.898  15.434   3.383  0.00  0.00     0.157 HD
HETATM   44  H   UNK N   1      29.550  16.248   4.763  0.00  0.00     0.157 HD
ENDBRANCH  41  42
BRANCH  41  45
HETATM   45  N   UNK N   1      31.785  17.547   3.114  0.00  0.00    -0.385 N 
HETATM   46  H   UNK N   1      31.665  18.520   3.024  0.00  0.00     0.157 HD
ATOM     47  HN  UNK N   1      32.266  17.023   2.384  1.00  0.00     0.157 HD
ENDBRANCH  41  45
ENDBRANCH  38  41
ENDBRANCH  33  35
ENDBRANCH  32  33
ENDBRANCH   7  32
TORSDOF 14
ENDMDL
MODEL 7
REMARK VINA RESULT:      -7.3      7.065     13.022
REMARK  14 active torsions:
REMARK  status: ('A' for Active; 'I' for Inactive)
REMARK    1  A    between atoms: C_2  and  O_3 
REMARK    2  A    between atoms: O_3  and  C_4 
REMARK    3  A    between atoms: C_4  and  C_6 
REMARK    4  A    between atoms: C_6  and  O_7 
REMARK    5  A    between atoms: O_7  and  N_8 
REMARK    6  A    between atoms: C_10  and  C_11 
REMARK    7  A    between atoms: C_10  and  C_18 
REMARK    8  A    between atoms: C_18  and  C_21 
REMARK    9  A    between atoms: C_27  and  C_28 
REMARK   10  A    between atoms: C_28  and  N_29 
REMARK   11  A    between atoms: N_29  and  C_30 
REMARK   12  A    between atoms: C_33  and  C_36 
REMARK   13  A    between atoms: C_36  and  N_37 
REMARK   14  A    between atoms: C_36  and  N_38 
ROOT
HETATM    1  C   UNK N   1      27.278  15.604   5.375  0.00  0.00    -0.041 A 
HETATM    2  C   UNK N   1      26.991  15.225   4.037  0.00  0.00     0.011 A 
HETATM    3  C   UNK N   1      25.682  14.912   3.651  0.00  0.00     0.033 A 
HETATM    4  C   UNK N   1      24.704  14.941   4.639  0.00  0.00     0.062 A 
HETATM    5  N   UNK N   1      23.389  14.758   4.508  0.00  0.00    -0.338 N 
HETATM    6  C   UNK N   1      22.712  14.523   3.244  0.00  0.00     0.158 C 
HETATM    7  C   UNK N   1      22.890  14.879   5.772  0.00  0.00     0.102 A 
HETATM    8  N   UNK N   1      23.865  15.152   6.677  0.00  0.00    -0.343 N 
ATOM      9  HN  UNK N   1      23.766  15.288   7.683  1.00  0.00     0.167 HD
HETATM   10  C   UNK N   1      24.989  15.204   5.942  0.00  0.00     0.061 A 
HETATM   11  C   UNK N   1      26.265  15.555   6.357  0.00  0.00     0.040 A 
ENDROOT
BRANCH   1  12
HETATM   12  C   UNK N   1      28.620  16.165   5.735  0.00  0.00     0.034 A 
HETATM   13  C   UNK N   1      29.553  16.130   4.533  0.00  0.00     0.022 A 
HETATM   14  C   UNK N   1      29.767  15.163   5.670  0.00  0.00     0.022 A 
BRANCH  12  15
HETATM   15  C   UNK N   1      28.761  17.526   6.474  0.00  0.00     0.072 C 
HETATM   16  N   UNK N   1      29.539  17.696   7.501  0.00  0.00    -0.267 N 
ATOM     17  HN  UNK N   1      29.562  18.622   7.926  1.00  0.00     0.194 HD
BRANCH  16  18
HETATM   18  O   UNK N   1      30.300  16.767   8.036  0.00  0.00    -0.270 OA
BRANCH  18  19
HETATM   19  C   UNK N   1      31.472  17.129   8.655  0.00  0.00     0.312 C 
BRANCH  19  20
HETATM   20  C   UNK N   1      32.455  17.708   7.688  0.00  0.00     0.285 C 
HETATM   21  O   UNK N   1      33.403  18.363   8.101  0.00  0.00    -0.263 OA
BRANCH  20  22
HETATM   22  O   UNK N   1      32.324  17.436   6.366  0.00  0.00    -0.320 OA
BRANCH  22  23
HETATM   23  C   UNK N   1      33.401  17.378   5.510  0.00  0.00     0.174 C 
HETATM   24  C   UNK N   1      32.927  17.464   4.075  0.00  0.00     0.034 C 
ENDBRANCH  22  23
ENDBRANCH  20  22
ENDBRANCH  19  20
ENDBRANCH  18  19
ENDBRANCH  16  18
BRANCH  15  25
HETATM   25  C   UNK N   1      28.010  18.741   6.047  0.00  0.00     0.057 A 
HETATM   26  C   UNK N   1      27.893  19.122   4.703  0.00  0.00     0.031 A 
HETATM   27  C   UNK N   1      27.207  20.291   4.372  0.00  0.00     0.004 A 
HETATM   28  C   UNK N   1      26.634  21.068   5.378  0.00  0.00     0.017 A 
HETATM   29  C   UNK N   1      26.763  20.666   6.706  0.00  0.00     0.088 A 
HETATM   30  N   UNK N   1      27.448  19.532   7.008  0.00  0.00    -0.364 N 
ATOM     31  HN  UNK N   1      27.547  19.261   7.987  1.00  0.00     0.165 HD
ENDBRANCH  15  25
ENDBRANCH  12  15
ENDBRANCH   1  12
BRANCH   7  32
HETATM   32  C   UNK N   1      21.449  14.760   6.190  0.00  0.00     0.196 C 
BRANCH  32  33
HETATM   33  N   UNK N   1      20.784  16.031   6.334  0.00  0.00    -0.383 N 
HETATM   34  H   UNK N   1      20.307  16.224   7.174  0.00  0.00     0.160 HD
BRANCH  33  35
HETATM   35  C   UNK N   1      20.790  17.015   5.315  0.00  0.00     0.028 A 
HETATM   36  C   UNK N   1      19.971  16.843   4.198  0.00  0.00     0.030 A 
HETATM   37  C   UNK N   1      19.940  17.814   3.195  0.00  0.00     0.017 A 
HETATM   38  C   UNK N   1      20.719  18.975   3.306  0.00  0.00     0.007 A 
HETATM   39  C   UNK N   1      21.530  19.153   4.437  0.00  0.00     0.017 A 
HETATM   40  C   UNK N   1      21.567  18.178   5.435  0.00  0.00     0.030 A 
BRANCH  38  41
HETATM   41  C   UNK N   1      20.707  19.992   2.235  0.00  0.00     0.102 C 
BRANCH  41  42
HETATM   42  N   UNK N   1      20.427  19.618   0.902  0.00  0.00    -0.385 N 
HETATM   43  H   UNK N   1      20.836  18.995   0.258  0.00  0.00     0.157 HD
HETATM   44  H   UNK N   1      19.642  20.086   0.532  0.00  0.00     0.157 HD
ENDBRANCH  41  42
BRANCH  41  45
HETATM   45  N   UNK N   1      20.912  21.228   2.513  0.00  0.00    -0.385 N 
HETATM   46  H   UNK N   1      21.641  21.718   2.069  0.00  0.00     0.157 HD
ATOM     47  HN  UNK N   1      20.319  21.702   3.194  1.00  0.00     0.157 HD
ENDBRANCH  41  45
ENDBRANCH  38  41
ENDBRANCH  33  35
ENDBRANCH  32  33
ENDBRANCH   7  32
TORSDOF 14
ENDMDL
MODEL 8
REMARK VINA RESULT:      -7.2      2.370      3.889
REMARK  14 active torsions:
REMARK  status: ('A' for Active; 'I' for Inactive)
REMARK    1  A    between atoms: C_2  and  O_3 
REMARK    2  A    between atoms: O_3  and  C_4 
REMARK    3  A    between atoms: C_4  and  C_6 
REMARK    4  A    between atoms: C_6  and  O_7 
REMARK    5  A    between atoms: O_7  and  N_8 
REMARK    6  A    between atoms: C_10  and  C_11 
REMARK    7  A    between atoms: C_10  and  C_18 
REMARK    8  A    between atoms: C_18  and  C_21 
REMARK    9  A    between atoms: C_27  and  C_28 
REMARK   10  A    between atoms: C_28  and  N_29 
REMARK   11  A    between atoms: N_29  and  C_30 
REMARK   12  A    between atoms: C_33  and  C_36 
REMARK   13  A    between atoms: C_36  and  N_37 
REMARK   14  A    between atoms: C_36  and  N_38 
ROOT
HETATM    1  C   UNK N   1      33.693  16.097   9.006  0.00  0.00    -0.041 A 
HETATM    2  C   UNK N   1      34.823  16.479   9.774  0.00  0.00     0.011 A 
HETATM    3  C   UNK N   1      35.573  15.518  10.466  0.00  0.00     0.033 A 
HETATM    4  C   UNK N   1      35.131  14.202  10.402  0.00  0.00     0.062 A 
HETATM    5  N   UNK N   1      35.708  13.110  10.906  0.00  0.00    -0.338 N 
HETATM    6  C   UNK N   1      36.980  13.100  11.609  0.00  0.00     0.158 C 
HETATM    7  C   UNK N   1      34.869  12.085  10.576  0.00  0.00     0.102 A 
HETATM    8  N   UNK N   1      33.798  12.518   9.863  0.00  0.00    -0.343 N 
ATOM      9  HN  UNK N   1      33.024  11.964   9.496  1.00  0.00     0.167 HD
HETATM   10  C   UNK N   1      33.992  13.844   9.751  0.00  0.00     0.061 A 
HETATM   11  C   UNK N   1      33.244  14.758   9.025  0.00  0.00     0.040 A 
ENDROOT
BRANCH   1  12
HETATM   12  C   UNK N   1      33.035  17.075   8.081  0.00  0.00     0.034 A 
HETATM   13  C   UNK N   1      33.980  17.456   6.949  0.00  0.00     0.022 A 
HETATM   14  C   UNK N   1      33.689  18.453   8.043  0.00  0.00     0.022 A 
BRANCH  12  15
HETATM   15  C   UNK N   1      31.607  16.830   7.518  0.00  0.00     0.072 C 
HETATM   16  N   UNK N   1      30.527  17.073   8.199  0.00  0.00    -0.267 N 
ATOM     17  HN  UNK N   1      29.633  16.875   7.750  1.00  0.00     0.194 HD
BRANCH  16  18
HETATM   18  O   UNK N   1      30.495  17.556   9.421  0.00  0.00    -0.270 OA
BRANCH  18  19
HETATM   19  C   UNK N   1      29.590  18.541   9.734  0.00  0.00     0.312 C 
BRANCH  19  20
HETATM   20  C   UNK N   1      28.258  18.293   9.098  0.00  0.00     0.285 C 
HETATM   21  O   UNK N   1      27.592  17.324   9.436  0.00  0.00    -0.263 OA
BRANCH  20  22
HETATM   22  O   UNK N   1      27.773  19.191   8.205  0.00  0.00    -0.320 OA
BRANCH  22  23
HETATM   23  C   UNK N   1      27.960  19.061   6.847  0.00  0.00     0.174 C 
HETATM   24  C   UNK N   1      27.579  20.349   6.147  0.00  0.00     0.034 C 
ENDBRANCH  22  23
ENDBRANCH  20  22
ENDBRANCH  19  20
ENDBRANCH  18  19
ENDBRANCH  16  18
BRANCH  15  25
HETATM   25  C   UNK N   1      31.378  16.299   6.144  0.00  0.00     0.057 A 
HETATM   26  C   UNK N   1      31.650  14.970   5.794  0.00  0.00     0.031 A 
HETATM   27  C   UNK N   1      31.448  14.544   4.481  0.00  0.00     0.004 A 
HETATM   28  C   UNK N   1      30.968  15.441   3.527  0.00  0.00     0.017 A 
HETATM   29  C   UNK N   1      30.702  16.757   3.902  0.00  0.00     0.088 A 
HETATM   30  N   UNK N   1      30.920  17.154   5.183  0.00  0.00    -0.364 N 
ATOM     31  HN  UNK N   1      30.736  18.125   5.435  1.00  0.00     0.165 HD
ENDBRANCH  15  25
ENDBRANCH  12  15
ENDBRANCH   1  12
BRANCH   7  32
HETATM   32  C   UNK N   1      35.050  10.628  10.905  0.00  0.00     0.196 C 
BRANCH  32  33
HETATM   33  N   UNK N   1      34.099  10.132  11.869  0.00  0.00    -0.383 N 
HETATM   34  H   UNK N   1      33.210   9.848  11.554  0.00  0.00     0.160 HD
BRANCH  33  35
HETATM   35  C   UNK N   1      34.392  10.038  13.252  0.00  0.00     0.028 A 
HETATM   36  C   UNK N   1      33.695  10.845  14.152  0.00  0.00     0.030 A 
HETATM   37  C   UNK N   1      33.948  10.749  15.522  0.00  0.00     0.017 A 
HETATM   38  C   UNK N   1      34.893   9.832  16.007  0.00  0.00     0.007 A 
HETATM   39  C   UNK N   1      35.581   9.011  15.101  0.00  0.00     0.017 A 
HETATM   40  C   UNK N   1      35.334   9.114  13.732  0.00  0.00     0.030 A 
BRANCH  38  41
HETATM   41  C   UNK N   1      35.180   9.745  17.453  0.00  0.00     0.102 C 
BRANCH  41  42
HETATM   42  N   UNK N   1      36.389  10.263  17.970  0.00  0.00    -0.385 N 
HETATM   43  H   UNK N   1      36.777  11.165  18.049  0.00  0.00     0.157 HD
HETATM   44  H   UNK N   1      36.978   9.563  18.335  0.00  0.00     0.157 HD
ENDBRANCH  41  42
BRANCH  41  45
HETATM   45  N   UNK N   1      34.319   9.234  18.255  0.00  0.00    -0.385 N 
HETATM   46  H   UNK N   1      34.030   8.300  18.138  0.00  0.00     0.157 HD
ATOM     47  HN  UNK N   1      33.934   9.796  19.014  1.00  0.00     0.157 HD
ENDBRANCH  41  45
ENDBRANCH  38  41
ENDBRANCH  33  35
ENDBRANCH  32  33
ENDBRANCH   7  32
TORSDOF 14
ENDMDL
MODEL 9
REMARK VINA RESULT:      -7.2      6.871     11.292
REMARK  14 active torsions:
REMARK  status: ('A' for Active; 'I' for Inactive)
REMARK    1  A    between atoms: C_2  and  O_3 
REMARK    2  A    between atoms: O_3  and  C_4 
REMARK    3  A    between atoms: C_4  and  C_6 
REMARK    4  A    between atoms: C_6  and  O_7 
REMARK    5  A    between atoms: O_7  and  N_8 
REMARK    6  A    between atoms: C_10  and  C_11 
REMARK    7  A    between atoms: C_10  and  C_18 
REMARK    8  A    between atoms: C_18  and  C_21 
REMARK    9  A    between atoms: C_27  and  C_28 
REMARK   10  A    between atoms: C_28  and  N_29 
REMARK   11  A    between atoms: N_29  and  C_30 
REMARK   12  A    between atoms: C_33  and  C_36 
REMARK   13  A    between atoms: C_36  and  N_37 
REMARK   14  A    between atoms: C_36  and  N_38 
ROOT
HETATM    1  C   UNK N   1      24.625  15.235   2.971  0.00  0.00    -0.041 A 
HETATM    2  C   UNK N   1      24.909  14.027   2.282  0.00  0.00     0.011 A 
HETATM    3  C   UNK N   1      26.232  13.666   1.994  0.00  0.00     0.033 A 
HETATM    4  C   UNK N   1      27.230  14.559   2.367  0.00  0.00     0.062 A 
HETATM    5  N   UNK N   1      28.552  14.410   2.271  0.00  0.00    -0.338 N 
HETATM    6  C   UNK N   1      29.212  13.215   1.773  0.00  0.00     0.158 C 
HETATM    7  C   UNK N   1      29.073  15.572   2.762  0.00  0.00     0.102 A 
HETATM    8  N   UNK N   1      28.102  16.426   3.177  0.00  0.00    -0.343 N 
ATOM      9  HN  UNK N   1      28.215  17.357   3.580  1.00  0.00     0.167 HD
HETATM   10  C   UNK N   1      26.957  15.763   2.936  0.00  0.00     0.061 A 
HETATM   11  C   UNK N   1      25.666  16.141   3.270  0.00  0.00     0.040 A 
ENDROOT
BRANCH   1  12
HETATM   12  C   UNK N   1      23.245  15.509   3.488  0.00  0.00     0.034 A 
HETATM   13  C   UNK N   1      22.358  14.284   3.315  0.00  0.00     0.022 A 
HETATM   14  C   UNK N   1      22.151  15.484   2.426  0.00  0.00     0.022 A 
BRANCH  12  15
HETATM   15  C   UNK N   1      23.012  16.138   4.891  0.00  0.00     0.072 C 
HETATM   16  N   UNK N   1      22.766  17.402   5.067  0.00  0.00    -0.267 N 
ATOM     17  HN  UNK N   1      22.632  17.725   6.025  1.00  0.00     0.194 HD
BRANCH  16  18
HETATM   18  O   UNK N   1      22.674  18.296   4.108  0.00  0.00    -0.270 OA
BRANCH  18  19
HETATM   19  C   UNK N   1      23.722  19.156   3.885  0.00  0.00     0.312 C 
BRANCH  19  20
HETATM   20  C   UNK N   1      23.313  20.325   3.047  0.00  0.00     0.285 C 
HETATM   21  O   UNK N   1      24.111  20.823   2.264  0.00  0.00    -0.263 OA
BRANCH  20  22
HETATM   22  O   UNK N   1      22.035  20.774   3.113  0.00  0.00    -0.320 OA
BRANCH  22  23
HETATM   23  C   UNK N   1      21.199  20.796   2.019  0.00  0.00     0.174 C 
HETATM   24  C   UNK N   1      20.587  19.427   1.810  0.00  0.00     0.034 C 
ENDBRANCH  22  23
ENDBRANCH  20  22
ENDBRANCH  19  20
ENDBRANCH  18  19
ENDBRANCH  16  18
BRANCH  15  25
HETATM   25  C   UNK N   1      23.049  15.324   6.139  0.00  0.00     0.057 A 
HETATM   26  C   UNK N   1      24.191  14.624   6.549  0.00  0.00     0.031 A 
HETATM   27  C   UNK N   1      24.150  13.850   7.710  0.00  0.00     0.004 A 
HETATM   28  C   UNK N   1      22.976  13.786   8.459  0.00  0.00     0.017 A 
HETATM   29  C   UNK N   1      21.855  14.495   8.031  0.00  0.00     0.088 A 
HETATM   30  N   UNK N   1      21.912  15.230   6.890  0.00  0.00    -0.364 N 
ATOM     31  HN  UNK N   1      21.077  15.728   6.582  1.00  0.00     0.165 HD
ENDBRANCH  15  25
ENDBRANCH  12  15
ENDBRANCH   1  12
BRANCH   7  32
HETATM   32  C   UNK N   1      30.530  15.929   2.883  0.00  0.00     0.196 C 
BRANCH  32  33
HETATM   33  N   UNK N   1      30.761  17.198   3.528  0.00  0.00    -0.383 N 
HETATM   34  H   UNK N   1      30.379  18.011   3.124  0.00  0.00     0.160 HD
BRANCH  33  35
HETATM   35  C   UNK N   1      31.516  17.321   4.720  0.00  0.00     0.028 A 
HETATM   36  C   UNK N   1      30.867  17.210   5.951  0.00  0.00     0.030 A 
HETATM   37  C   UNK N   1      31.596  17.299   7.138  0.00  0.00     0.017 A 
HETATM   38  C   UNK N   1      32.986  17.488   7.106  0.00  0.00     0.007 A 
HETATM   39  C   UNK N   1      33.638  17.583   5.868  0.00  0.00     0.017 A 
HETATM   40  C   UNK N   1      32.907  17.503   4.681  0.00  0.00     0.030 A 
BRANCH  38  41
HETATM   41  C   UNK N   1      33.756  17.607   8.360  0.00  0.00     0.102 C 
BRANCH  41  42
HETATM   42  N   UNK N   1      33.504  16.725   9.436  0.00  0.00    -0.385 N 
HETATM   43  H   UNK N   1      33.149  15.810   9.511  0.00  0.00     0.157 HD
HETATM   44  H   UNK N   1      33.737  17.116  10.310  0.00  0.00     0.157 HD
ENDBRANCH  41  42
BRANCH  41  45
HETATM   45  N   UNK N   1      34.686  18.484   8.470  0.00  0.00    -0.385 N 
HETATM   46  H   UNK N   1      34.685  19.277   7.887  0.00  0.00     0.157 HD
ATOM     47  HN  UNK N   1      35.425  18.360   9.160  1.00  0.00     0.157 HD
ENDBRANCH  41  45
ENDBRANCH  38  41
ENDBRANCH  33  35
ENDBRANCH  32  33
ENDBRANCH   7  32
TORSDOF 14
ENDMDL
