REMARK  14 active torsions:
REMARK  status: ('A' for Active; 'I' for Inactive)
REMARK    1  A    between atoms: C_9  and  C_4 
REMARK    2  A    between atoms: O_22  and  C_4 
REMARK    3  A    between atoms: C_10  and  C_5 
REMARK    4  A    between atoms: O_23  and  C_5 
REMARK    5  A    between atoms: N_20  and  C_6 
REMARK    6  A    between atoms: N_21  and  C_7 
REMARK    7  A    between atoms: O_32  and  C_8 
REMARK    8  A    between atoms: C_12  and  O_24 
REMARK    9  A    between atoms: C_13  and  O_25 
REMARK   10  A    between atoms: C_14  and  O_26 
REMARK   11  A    between atoms: C_15  and  O_27 
REMARK   12  A    between atoms: C_16  and  O_35 
REMARK   13  A    between atoms: C_17  and  O_32 
REMARK   14  A    between atoms: C_18  and  O_35 
ROOT
HETATM    1  C   UNK N   1       1.308   6.537   0.194  0.00  0.00     0.180 C 
HETATM    2  C   UNK N   1       0.353   3.976  -0.581  0.00  0.00     0.256 C 
HETATM    3  C   UNK N   1      -0.448   4.776   0.460  0.00  0.00     0.188 C 
HETATM    4  C   UNK N   1      -0.235   6.287   0.188  0.00  0.00     0.187 C 
HETATM    5  C   UNK N   1       1.845   4.416  -0.503  0.00  0.00     0.303 C 
HETATM    6  F   UNK N   1       0.175   2.615  -0.427  0.00  0.00    -0.241 F 
HETATM    7  O   UNK N   1       1.935   5.774  -0.809  0.00  0.00    -0.348 OA
ENDROOT
BRANCH   4   8
HETATM    8  O   UNK N   1      -0.781   6.543  -1.087  0.00  0.00    -0.348 OA
BRANCH   8   9
HETATM    9  C   UNK N   1      -1.495   7.752  -1.272  0.00  0.00     0.292 C 
HETATM   10  C   UNK N   1      -2.875   7.953  -0.553  0.00  0.00     0.204 C 
HETATM   11  C   UNK N   1      -2.829   8.981   0.588  0.00  0.00     0.183 C 
HETATM   12  C   UNK N   1      -2.022  10.202   0.132  0.00  0.00     0.180 C 
HETATM   13  C   UNK N   1      -0.622   9.732  -0.259  0.00  0.00     0.179 C 
HETATM   14  O   UNK N   1      -0.655   8.890  -1.403  0.00  0.00    -0.348 OA
BRANCH  10  15
HETATM   15  O   UNK N   1      -3.788   8.447  -1.494  0.00  0.00    -0.388 OA
HETATM   16  H   UNK N   1      -3.808   9.166  -2.145  0.00  0.00     0.210 HD
ENDBRANCH  10  15
BRANCH  11  17
HETATM   17  O   UNK N   1      -2.269   8.434   1.745  0.00  0.00    -0.390 OA
HETATM   18  H   UNK N   1      -2.403   7.908   2.548  0.00  0.00     0.210 HD
ENDBRANCH  11  17
BRANCH  12  19
HETATM   19  O   UNK N   1      -1.951  11.133   1.173  0.00  0.00    -0.390 OA
HETATM   20  H   UNK N   1      -1.367  11.414   1.895  0.00  0.00     0.210 HD
ENDBRANCH  12  19
BRANCH  13  21
HETATM   21  C   UNK N   1       0.249  10.942  -0.599  0.00  0.00     0.198 C 
BRANCH  21  22
HETATM   22  O   UNK N   1       1.522  10.551  -1.022  0.00  0.00    -0.398 OA
HETATM   23  H   UNK N   1       1.729   9.650  -1.315  0.00  0.00     0.209 HD
ENDBRANCH  21  22
ENDBRANCH  13  21
ENDBRANCH   8   9
ENDBRANCH   4   8
BRANCH   1  24
HETATM   24  C   UNK N   1       1.754   7.948  -0.058  0.00  0.00     0.198 C 
BRANCH  24  25
HETATM   25  O   UNK N   1       3.147   8.012  -0.153  0.00  0.00    -0.398 OA
HETATM   26  H   UNK N   1       3.669   7.197  -0.219  0.00  0.00     0.209 HD
ENDBRANCH  24  25
ENDBRANCH   1  24
BRANCH   3  27
HETATM   27  O   UNK N   1      -1.804   4.444   0.378  0.00  0.00    -0.390 OA
HETATM   28  H   UNK N   1      -2.474   5.144   0.321  0.00  0.00     0.210 HD
ENDBRANCH   3  27
BRANCH   5  29
HETATM   29  O   UNK N   1       2.472   4.147   0.725  0.00  0.00    -0.315 OA
BRANCH  29  30
HETATM   30  C   UNK N   1       2.692   2.862   0.988  0.00  0.00     0.105 C 
HETATM   31  C   UNK N   1       1.695   2.149   1.647  0.00  0.00     0.042 C 
HETATM   32  C   UNK N   1       1.578   0.792   1.420  0.00  0.00     0.039 C 
HETATM   33  C   UNK N   1       2.466   0.154   0.547  0.00  0.00     0.105 C 
HETATM   34  C   UNK N   1       3.597   0.842   0.071  0.00  0.00     0.075 C 
HETATM   35  C   UNK N   1       3.737   2.211   0.309  0.00  0.00     0.138 C 
BRANCH  33  36
HETATM   36  N   UNK N   1       2.114  -1.098  -0.019  0.00  0.00    -0.116 N 
HETATM   37  O   UNK N   1       1.023  -1.547   0.187  0.00  0.00    -0.532 OA
HETATM   38  O   UNK N   1       2.768  -1.550  -0.906  0.00  0.00    -0.532 OA
ENDBRANCH  33  36
BRANCH  35  39
HETATM   39  N   UNK N   1       4.820   2.941  -0.283  0.00  0.00    -0.113 N 
HETATM   40  O   UNK N   1       4.957   4.110  -0.061  0.00  0.00    -0.532 OA
HETATM   41  O   UNK N   1       5.651   2.371  -0.919  0.00  0.00    -0.532 OA
ENDBRANCH  35  39
ENDBRANCH  29  30
ENDBRANCH   5  29
TORSDOF 14
