REMARK  11 active torsions:
REMARK  status: ('A' for Active; 'I' for Inactive)
REMARK    1  A    between atoms: C_2  and  C_1 
REMARK    2  A    between atoms: C_4  and  C_1 
REMARK    3  A    between atoms: O_6  and  C_2 
REMARK    4  A    between atoms: C_5  and  C_3 
REMARK    5  A    between atoms: O_12  and  C_3 
REMARK    6  A    between atoms: C_5  and  C_4 
REMARK    7  A    between atoms: C_4  and  O_7 
REMARK    8  A    between atoms: C_5  and  O_8 
REMARK    9  A    between atoms: P_13  and  O_9 
REMARK   10  A    between atoms: P_13  and  O_10 
REMARK   11  A    between atoms: P_13  and  O_12 
ROOT
HETATM    1  C   UNK N   1       2.359   0.168   0.378  0.00  0.00     0.171 C 
ENDROOT
BRANCH   1   2
HETATM    2  C   UNK N   1       3.706   0.733   0.818  0.00  0.00     0.214 C 
BRANCH   2   3
HETATM    3  O   UNK N   1       4.430   1.227  -0.273  0.00  0.00    -0.294 OA
BRANCH   3   4
HETATM    4  P   UNK N   1       5.882   1.870   0.431  0.00  0.00     0.390 P 
HETATM    5  O   UNK N   1       5.381   3.066  -0.422  0.00  0.00    -0.632 OA
BRANCH   4   6
HETATM    6  O   UNK N   1       7.275   2.237  -0.536  0.00  0.00    -0.307 OA
HETATM    7  H   UNK N   1       7.842   1.665  -1.076  0.00  0.00     0.222 HD
ENDBRANCH   4   6
BRANCH   4   8
HETATM    8  O   UNK N   1       6.277   0.547  -0.624  0.00  0.00    -0.307 OA
HETATM    9  H   UNK N   1       5.748  -0.013  -1.212  0.00  0.00     0.222 HD
ENDBRANCH   4   8
ENDBRANCH   3   4
ENDBRANCH   2   3
ENDBRANCH   1   2
BRANCH   1  10
HETATM   10  C   UNK N   1       1.395   1.266  -0.114  0.00  0.00     0.151 C 
BRANCH  10  11
HETATM   11  C   UNK N   1       0.071   0.668  -0.603  0.00  0.00     0.060 C 
BRANCH  11  12
HETATM   12  C   UNK N   1      -0.678  -0.078   0.493  0.00  0.00     0.166 C 
BRANCH  12  13
HETATM   13  O   UNK N   1      -1.749  -0.773  -0.067  0.00  0.00    -0.401 OA
HETATM   14  H   UNK N   1      -2.540  -0.369  -0.457  0.00  0.00     0.209 HD
ENDBRANCH  12  13
ENDBRANCH  11  12
ENDBRANCH  10  11
BRANCH  10  15
HETATM   15  O   UNK N   1       1.146   2.189   0.903  0.00  0.00    -0.393 OA
HETATM   16  H   UNK N   1       1.615   2.659   1.610  0.00  0.00     0.210 HD
ENDBRANCH  10  15
ENDBRANCH   1  10
BRANCH   1  17
HETATM   17  O   UNK N   1       2.563  -0.782  -0.624  0.00  0.00    -0.391 OA
HETATM   18  H   UNK N   1       2.062  -1.235  -1.320  0.00  0.00     0.210 HD
ENDBRANCH   1  17
TORSDOF 11
