MODEL 1
REMARK VINA RESULT:      -6.6      0.000      0.000
REMARK  3 active torsions:
REMARK  status: ('A' for Active; 'I' for Inactive)
REMARK    1  A    between atoms: O_2  and  C_3 
REMARK    2  A    between atoms: C_9  and  C_14 
REMARK    3  A    between atoms: C_17  and  O_18 
ROOT
HETATM    1  C   UNK N   1      31.095  17.004   8.245  0.00  0.00     0.070 A 
HETATM    2  C   UNK N   1      30.430  18.026   8.932  0.00  0.00     0.038 A 
HETATM    3  C   UNK N   1      29.346  18.688   8.346  0.00  0.00     0.021 A 
HETATM    4  C   UNK N   1      28.917  18.333   7.058  0.00  0.00     0.049 A 
HETATM    5  C   UNK N   1      27.840  18.982   6.434  0.00  0.00     0.197 A 
HETATM    6  O   UNK N   1      27.252  19.880   7.015  0.00  0.00    -0.286 OA
HETATM    7  C   UNK N   1      27.464  18.592   5.127  0.00  0.00     0.048 A 
HETATM    8  C   UNK N   1      28.197  17.560   4.517  0.00  0.00     0.159 A 
HETATM    9  O   UNK N   1      29.203  16.959   5.140  0.00  0.00    -0.321 OA
HETATM   10  C   UNK N   1      29.585  17.302   6.362  0.00  0.00     0.091 A 
HETATM   11  C   UNK N   1      30.663  16.645   6.957  0.00  0.00     0.075 A 
ENDROOT
BRANCH   7  12
HETATM   12  C   UNK N   1      26.339  19.215   4.367  0.00  0.00    -0.020 A 
HETATM   13  C   UNK N   1      26.555  20.247   3.437  0.00  0.00     0.015 A 
HETATM   14  C   UNK N   1      25.480  20.828   2.757  0.00  0.00     0.037 A 
HETATM   15  C   UNK N   1      24.179  20.379   2.989  0.00  0.00     0.065 A 
HETATM   16  C   UNK N   1      23.951  19.348   3.901  0.00  0.00     0.037 A 
HETATM   17  C   UNK N   1      25.022  18.775   4.590  0.00  0.00     0.015 A 
BRANCH  15  18
HETATM   18  O   UNK N   1      23.147  20.937   2.338  0.00  0.00    -0.361 OA
HETATM   19  H   UNK N   1      23.234  21.177   1.436  0.00  0.00     0.217 HD
ENDBRANCH  15  18
ENDBRANCH   7  12
BRANCH   1  20
HETATM   20  O   UNK N   1      32.147  16.389   8.834  0.00  0.00    -0.356 OA
HETATM   21  C   UNK N   1      33.438  16.862   8.755  0.00  0.00     0.210 C 
ENDBRANCH   1  20
TORSDOF 3
ENDMDL
MODEL 2
REMARK VINA RESULT:      -6.5      0.921      2.241
REMARK  3 active torsions:
REMARK  status: ('A' for Active; 'I' for Inactive)
REMARK    1  A    between atoms: O_2  and  C_3 
REMARK    2  A    between atoms: C_9  and  C_14 
REMARK    3  A    between atoms: C_17  and  O_18 
ROOT
HETATM    1  C   UNK N   1      31.448  16.257   8.196  0.00  0.00     0.070 A 
HETATM    2  C   UNK N   1      31.419  15.678   6.922  0.00  0.00     0.038 A 
HETATM    3  C   UNK N   1      30.512  16.129   5.957  0.00  0.00     0.021 A 
HETATM    4  C   UNK N   1      29.621  17.169   6.260  0.00  0.00     0.049 A 
HETATM    5  C   UNK N   1      28.691  17.641   5.320  0.00  0.00     0.197 A 
HETATM    6  O   UNK N   1      28.646  17.143   4.206  0.00  0.00    -0.286 OA
HETATM    7  C   UNK N   1      27.805  18.680   5.689  0.00  0.00     0.048 A 
HETATM    8  C   UNK N   1      27.907  19.193   6.993  0.00  0.00     0.159 A 
HETATM    9  O   UNK N   1      28.806  18.732   7.854  0.00  0.00    -0.321 OA
HETATM   10  C   UNK N   1      29.648  17.757   7.543  0.00  0.00     0.091 A 
HETATM   11  C   UNK N   1      30.558  17.302   8.498  0.00  0.00     0.075 A 
ENDROOT
BRANCH   7  12
HETATM   12  C   UNK N   1      26.774  19.256   4.774  0.00  0.00    -0.020 A 
HETATM   13  C   UNK N   1      25.424  18.872   4.844  0.00  0.00     0.015 A 
HETATM   14  C   UNK N   1      24.484  19.409   3.959  0.00  0.00     0.037 A 
HETATM   15  C   UNK N   1      24.880  20.344   2.999  0.00  0.00     0.065 A 
HETATM   16  C   UNK N   1      26.215  20.743   2.925  0.00  0.00     0.037 A 
HETATM   17  C   UNK N   1      27.156  20.197   3.800  0.00  0.00     0.015 A 
BRANCH  15  18
HETATM   18  O   UNK N   1      23.979  20.859   2.148  0.00  0.00    -0.361 OA
HETATM   19  H   UNK N   1      23.947  21.784   2.001  0.00  0.00     0.217 HD
ENDBRANCH  15  18
ENDBRANCH   7  12
BRANCH   1  20
HETATM   20  O   UNK N   1      32.329  15.792   9.112  0.00  0.00    -0.356 OA
HETATM   21  C   UNK N   1      33.675  16.079   9.075  0.00  0.00     0.210 C 
ENDBRANCH   1  20
TORSDOF 3
ENDMDL
MODEL 3
REMARK VINA RESULT:      -6.4      4.864      7.665
REMARK  3 active torsions:
REMARK  status: ('A' for Active; 'I' for Inactive)
REMARK    1  A    between atoms: O_2  and  C_3 
REMARK    2  A    between atoms: C_9  and  C_14 
REMARK    3  A    between atoms: C_17  and  O_18 
ROOT
HETATM    1  C   UNK N   1      35.875  14.676  12.420  0.00  0.00     0.070 A 
HETATM    2  C   UNK N   1      35.289  13.568  11.796  0.00  0.00     0.038 A 
HETATM    3  C   UNK N   1      34.613  13.713  10.580  0.00  0.00     0.021 A 
HETATM    4  C   UNK N   1      34.514  14.974   9.975  0.00  0.00     0.049 A 
HETATM    5  C   UNK N   1      33.835  15.159   8.760  0.00  0.00     0.197 A 
HETATM    6  O   UNK N   1      33.311  14.206   8.205  0.00  0.00    -0.286 OA
HETATM    7  C   UNK N   1      33.753  16.459   8.207  0.00  0.00     0.048 A 
HETATM    8  C   UNK N   1      34.368  17.508   8.911  0.00  0.00     0.159 A 
HETATM    9  O   UNK N   1      35.013  17.297  10.051  0.00  0.00    -0.321 OA
HETATM   10  C   UNK N   1      35.105  16.094  10.600  0.00  0.00     0.091 A 
HETATM   11  C   UNK N   1      35.780  15.939  11.811  0.00  0.00     0.075 A 
ENDROOT
BRANCH   7  12
HETATM   12  C   UNK N   1      33.053  16.772   6.925  0.00  0.00    -0.020 A 
HETATM   13  C   UNK N   1      31.653  16.867   6.850  0.00  0.00     0.015 A 
HETATM   14  C   UNK N   1      31.023  17.138   5.631  0.00  0.00     0.037 A 
HETATM   15  C   UNK N   1      31.784  17.329   4.476  0.00  0.00     0.065 A 
HETATM   16  C   UNK N   1      33.175  17.248   4.538  0.00  0.00     0.037 A 
HETATM   17  C   UNK N   1      33.805  16.964   5.751  0.00  0.00     0.015 A 
BRANCH  15  18
HETATM   18  O   UNK N   1      31.180  17.587   3.306  0.00  0.00    -0.361 OA
HETATM   19  H   UNK N   1      30.259  17.760   3.280  0.00  0.00     0.217 HD
ENDBRANCH  15  18
ENDBRANCH   7  12
BRANCH   1  20
HETATM   20  O   UNK N   1      36.514  14.506  13.601  0.00  0.00    -0.356 OA
HETATM   21  C   UNK N   1      36.099  13.609  14.560  0.00  0.00     0.210 C 
ENDBRANCH   1  20
TORSDOF 3
ENDMDL
MODEL 4
REMARK VINA RESULT:      -6.4      5.608      7.636
REMARK  3 active torsions:
REMARK  status: ('A' for Active; 'I' for Inactive)
REMARK    1  A    between atoms: O_2  and  C_3 
REMARK    2  A    between atoms: C_9  and  C_14 
REMARK    3  A    between atoms: C_17  and  O_18 
ROOT
HETATM    1  C   UNK N   1      20.664  13.922   9.256  0.00  0.00     0.070 A 
HETATM    2  C   UNK N   1      21.658  13.325   8.471  0.00  0.00     0.038 A 
HETATM    3  C   UNK N   1      22.300  14.052   7.464  0.00  0.00     0.021 A 
HETATM    4  C   UNK N   1      21.951  15.390   7.230  0.00  0.00     0.049 A 
HETATM    5  C   UNK N   1      22.568  16.148   6.222  0.00  0.00     0.197 A 
HETATM    6  O   UNK N   1      23.432  15.642   5.523  0.00  0.00    -0.286 OA
HETATM    7  C   UNK N   1      22.161  17.488   6.020  0.00  0.00     0.048 A 
HETATM    8  C   UNK N   1      21.151  17.997   6.854  0.00  0.00     0.159 A 
HETATM    9  O   UNK N   1      20.597  17.256   7.807  0.00  0.00    -0.321 OA
HETATM   10  C   UNK N   1      20.951  15.996   8.019  0.00  0.00     0.091 A 
HETATM   11  C   UNK N   1      20.317  15.264   9.024  0.00  0.00     0.075 A 
ENDROOT
BRANCH   7  12
HETATM   12  C   UNK N   1      22.744  18.384   4.976  0.00  0.00    -0.020 A 
HETATM   13  C   UNK N   1      24.126  18.628   4.897  0.00  0.00     0.015 A 
HETATM   14  C   UNK N   1      24.641  19.491   3.925  0.00  0.00     0.037 A 
HETATM   15  C   UNK N   1      23.784  20.111   3.012  0.00  0.00     0.065 A 
HETATM   16  C   UNK N   1      22.411  19.869   3.072  0.00  0.00     0.037 A 
HETATM   17  C   UNK N   1      21.894  19.018   4.052  0.00  0.00     0.015 A 
BRANCH  15  18
HETATM   18  O   UNK N   1      24.278  20.939   2.080  0.00  0.00    -0.361 OA
HETATM   19  H   UNK N   1      24.039  21.845   2.083  0.00  0.00     0.217 HD
ENDBRANCH  15  18
ENDBRANCH   7  12
BRANCH   1  20
HETATM   20  O   UNK N   1      20.052  13.190  10.216  0.00  0.00    -0.356 OA
HETATM   21  C   UNK N   1      20.735  12.367  11.084  0.00  0.00     0.210 C 
ENDBRANCH   1  20
TORSDOF 3
ENDMDL
MODEL 5
REMARK VINA RESULT:      -6.3      6.913      8.041
REMARK  3 active torsions:
REMARK  status: ('A' for Active; 'I' for Inactive)
REMARK    1  A    between atoms: O_2  and  C_3 
REMARK    2  A    between atoms: C_9  and  C_14 
REMARK    3  A    between atoms: C_17  and  O_18 
ROOT
HETATM    1  C   UNK N   1      21.797  13.095  10.099  0.00  0.00     0.070 A 
HETATM    2  C   UNK N   1      22.911  13.070   9.252  0.00  0.00     0.038 A 
HETATM    3  C   UNK N   1      22.947  13.866   8.103  0.00  0.00     0.021 A 
HETATM    4  C   UNK N   1      21.862  14.698   7.788  0.00  0.00     0.049 A 
HETATM    5  C   UNK N   1      21.859  15.503   6.638  0.00  0.00     0.197 A 
HETATM    6  O   UNK N   1      22.819  15.490   5.883  0.00  0.00    -0.286 OA
HETATM    7  C   UNK N   1      20.728  16.308   6.363  0.00  0.00     0.048 A 
HETATM    8  C   UNK N   1      19.656  16.260   7.270  0.00  0.00     0.159 A 
HETATM    9  O   UNK N   1      19.697  15.496   8.355  0.00  0.00    -0.321 OA
HETATM   10  C   UNK N   1      20.737  14.727   8.640  0.00  0.00     0.091 A 
HETATM   11  C   UNK N   1      20.712  13.931   9.786  0.00  0.00     0.075 A 
ENDROOT
BRANCH   7  12
HETATM   12  C   UNK N   1      20.614  17.198   5.169  0.00  0.00    -0.020 A 
HETATM   13  C   UNK N   1      21.273  18.438   5.104  0.00  0.00     0.015 A 
HETATM   14  C   UNK N   1      21.129  19.263   3.984  0.00  0.00     0.037 A 
HETATM   15  C   UNK N   1      20.334  18.854   2.910  0.00  0.00     0.065 A 
HETATM   16  C   UNK N   1      19.683  17.621   2.957  0.00  0.00     0.037 A 
HETATM   17  C   UNK N   1      19.815  16.803   4.080  0.00  0.00     0.015 A 
BRANCH  15  18
HETATM   18  O   UNK N   1      20.194  19.645   1.836  0.00  0.00    -0.361 OA
HETATM   19  H   UNK N   1      20.951  19.990   1.405  0.00  0.00     0.217 HD
ENDBRANCH  15  18
ENDBRANCH   7  12
BRANCH   1  20
HETATM   20  O   UNK N   1      21.787  12.305  11.199  0.00  0.00    -0.356 OA
HETATM   21  C   UNK N   1      22.926  11.968  11.894  0.00  0.00     0.210 C 
ENDBRANCH   1  20
TORSDOF 3
ENDMDL
MODEL 6
REMARK VINA RESULT:      -6.2      6.821      7.891
REMARK  3 active torsions:
REMARK  status: ('A' for Active; 'I' for Inactive)
REMARK    1  A    between atoms: O_2  and  C_3 
REMARK    2  A    between atoms: C_9  and  C_14 
REMARK    3  A    between atoms: C_17  and  O_18 
ROOT
HETATM    1  C   UNK N   1      22.471  12.391  10.596  0.00  0.00     0.070 A 
HETATM    2  C   UNK N   1      21.140  12.814  10.700  0.00  0.00     0.038 A 
HETATM    3  C   UNK N   1      20.603  13.704   9.764  0.00  0.00     0.021 A 
HETATM    4  C   UNK N   1      21.397  14.182   8.711  0.00  0.00     0.049 A 
HETATM    5  C   UNK N   1      20.894  15.083   7.759  0.00  0.00     0.197 A 
HETATM    6  O   UNK N   1      19.738  15.469   7.837  0.00  0.00    -0.286 OA
HETATM    7  C   UNK N   1      21.747  15.544   6.729  0.00  0.00     0.048 A 
HETATM    8  C   UNK N   1      23.069  15.067   6.712  0.00  0.00     0.159 A 
HETATM    9  O   UNK N   1      23.508  14.205   7.621  0.00  0.00    -0.321 OA
HETATM   10  C   UNK N   1      22.738  13.756   8.602  0.00  0.00     0.091 A 
HETATM   11  C   UNK N   1      23.264  12.866   9.539  0.00  0.00     0.075 A 
ENDROOT
BRANCH   7  12
HETATM   12  C   UNK N   1      21.322  16.505   5.667  0.00  0.00    -0.020 A 
HETATM   13  C   UNK N   1      21.672  17.866   5.716  0.00  0.00     0.015 A 
HETATM   14  C   UNK N   1      21.240  18.748   4.721  0.00  0.00     0.037 A 
HETATM   15  C   UNK N   1      20.462  18.280   3.659  0.00  0.00     0.065 A 
HETATM   16  C   UNK N   1      20.116  16.930   3.592  0.00  0.00     0.037 A 
HETATM   17  C   UNK N   1      20.536  16.051   4.592  0.00  0.00     0.015 A 
BRANCH  15  18
HETATM   18  O   UNK N   1      20.046  19.126   2.705  0.00  0.00    -0.361 OA
HETATM   19  H   UNK N   1      20.505  19.929   2.556  0.00  0.00     0.217 HD
ENDBRANCH  15  18
ENDBRANCH   7  12
BRANCH   1  20
HETATM   20  O   UNK N   1      22.966  11.537  11.523  0.00  0.00    -0.356 OA
HETATM   21  C   UNK N   1      23.140  11.880  12.846  0.00  0.00     0.210 C 
ENDBRANCH   1  20
TORSDOF 3
ENDMDL
MODEL 7
REMARK VINA RESULT:      -6.1     10.354     14.087
REMARK  3 active torsions:
REMARK  status: ('A' for Active; 'I' for Inactive)
REMARK    1  A    between atoms: O_2  and  C_3 
REMARK    2  A    between atoms: C_9  and  C_14 
REMARK    3  A    between atoms: C_17  and  O_18 
ROOT
HETATM    1  C   UNK N   1      35.564  12.981   9.882  0.00  0.00     0.070 A 
HETATM    2  C   UNK N   1      36.379  13.986  10.417  0.00  0.00     0.038 A 
HETATM    3  C   UNK N   1      36.515  14.129  11.801  0.00  0.00     0.021 A 
HETATM    4  C   UNK N   1      35.831  13.264  12.669  0.00  0.00     0.049 A 
HETATM    5  C   UNK N   1      35.936  13.384  14.064  0.00  0.00     0.197 A 
HETATM    6  O   UNK N   1      36.637  14.259  14.549  0.00  0.00    -0.286 OA
HETATM    7  C   UNK N   1      35.209  12.494  14.889  0.00  0.00     0.048 A 
HETATM    8  C   UNK N   1      34.412  11.523  14.259  0.00  0.00     0.159 A 
HETATM    9  O   UNK N   1      34.345  11.429  12.937  0.00  0.00    -0.321 OA
HETATM   10  C   UNK N   1      35.009  12.249  12.135  0.00  0.00     0.091 A 
HETATM   11  C   UNK N   1      34.883  12.112  10.752  0.00  0.00     0.075 A 
ENDROOT
BRANCH   7  12
HETATM   12  C   UNK N   1      35.241  12.533  16.382  0.00  0.00    -0.020 A 
HETATM   13  C   UNK N   1      35.074  13.732  17.096  0.00  0.00     0.015 A 
HETATM   14  C   UNK N   1      35.134  13.742  18.493  0.00  0.00     0.037 A 
HETATM   15  C   UNK N   1      35.349  12.553  19.194  0.00  0.00     0.065 A 
HETATM   16  C   UNK N   1      35.505  11.354  18.499  0.00  0.00     0.037 A 
HETATM   17  C   UNK N   1      35.460  11.344  17.103  0.00  0.00     0.015 A 
BRANCH  15  18
HETATM   18  O   UNK N   1      35.407  12.563  20.535  0.00  0.00    -0.361 OA
HETATM   19  H   UNK N   1      36.153  12.205  20.975  0.00  0.00     0.217 HD
ENDBRANCH  15  18
ENDBRANCH   7  12
BRANCH   1  20
HETATM   20  O   UNK N   1      35.444  12.874   8.539  0.00  0.00    -0.356 OA
HETATM   21  C   UNK N   1      36.121  13.684   7.655  0.00  0.00     0.210 C 
ENDBRANCH   1  20
TORSDOF 3
ENDMDL
MODEL 8
REMARK VINA RESULT:      -6.1     11.936     15.521
REMARK  3 active torsions:
REMARK  status: ('A' for Active; 'I' for Inactive)
REMARK    1  A    between atoms: O_2  and  C_3 
REMARK    2  A    between atoms: C_9  and  C_14 
REMARK    3  A    between atoms: C_17  and  O_18 
ROOT
HETATM    1  C   UNK N   1      36.818  13.432  11.680  0.00  0.00     0.070 A 
HETATM    2  C   UNK N   1      37.680  12.367  11.966  0.00  0.00     0.038 A 
HETATM    3  C   UNK N   1      37.556  11.655  13.164  0.00  0.00     0.021 A 
HETATM    4  C   UNK N   1      36.564  12.005  14.091  0.00  0.00     0.049 A 
HETATM    5  C   UNK N   1      36.415  11.319  15.307  0.00  0.00     0.197 A 
HETATM    6  O   UNK N   1      37.163  10.392  15.578  0.00  0.00    -0.286 OA
HETATM    7  C   UNK N   1      35.407  11.729  16.211  0.00  0.00     0.048 A 
HETATM    8  C   UNK N   1      34.595  12.813  15.837  0.00  0.00     0.159 A 
HETATM    9  O   UNK N   1      34.754  13.432  14.673  0.00  0.00    -0.321 OA
HETATM   10  C   UNK N   1      35.691  13.077  13.805  0.00  0.00     0.091 A 
HETATM   11  C   UNK N   1      35.821  13.780  12.607  0.00  0.00     0.075 A 
ENDROOT
BRANCH   7  12
HETATM   12  C   UNK N   1      35.163  11.077  17.533  0.00  0.00    -0.020 A 
HETATM   13  C   UNK N   1      34.634   9.778  17.631  0.00  0.00     0.015 A 
HETATM   14  C   UNK N   1      34.393   9.201  18.882  0.00  0.00     0.037 A 
HETATM   15  C   UNK N   1      34.687   9.909  20.049  0.00  0.00     0.065 A 
HETATM   16  C   UNK N   1      35.222  11.195  19.966  0.00  0.00     0.037 A 
HETATM   17  C   UNK N   1      35.451  11.777  18.718  0.00  0.00     0.015 A 
BRANCH  15  18
HETATM   18  O   UNK N   1      34.454   9.357  21.249  0.00  0.00    -0.361 OA
HETATM   19  H   UNK N   1      34.390   8.426  21.334  0.00  0.00     0.217 HD
ENDBRANCH  15  18
ENDBRANCH   7  12
BRANCH   1  20
HETATM   20  O   UNK N   1      36.969  14.109  10.517  0.00  0.00    -0.356 OA
HETATM   21  C   UNK N   1      38.144  14.120   9.800  0.00  0.00     0.210 C 
ENDBRANCH   1  20
TORSDOF 3
ENDMDL
MODEL 9
REMARK VINA RESULT:      -6.1     10.777     14.450
REMARK  3 active torsions:
REMARK  status: ('A' for Active; 'I' for Inactive)
REMARK    1  A    between atoms: O_2  and  C_3 
REMARK    2  A    between atoms: C_9  and  C_14 
REMARK    3  A    between atoms: C_17  and  O_18 
ROOT
HETATM    1  C   UNK N   1      35.747  13.602  10.283  0.00  0.00     0.070 A 
HETATM    2  C   UNK N   1      34.951  12.471  10.500  0.00  0.00     0.038 A 
HETATM    3  C   UNK N   1      34.731  11.996  11.797  0.00  0.00     0.021 A 
HETATM    4  C   UNK N   1      35.309  12.650  12.895  0.00  0.00     0.049 A 
HETATM    5  C   UNK N   1      35.117  12.196  14.209  0.00  0.00     0.197 A 
HETATM    6  O   UNK N   1      34.432  11.207  14.418  0.00  0.00    -0.286 OA
HETATM    7  C   UNK N   1      35.741  12.887  15.275  0.00  0.00     0.048 A 
HETATM    8  C   UNK N   1      36.526  14.008  14.956  0.00  0.00     0.159 A 
HETATM    9  O   UNK N   1      36.676  14.418  13.702  0.00  0.00    -0.321 OA
HETATM   10  C   UNK N   1      36.111  13.792  12.680  0.00  0.00     0.091 A 
HETATM   11  C   UNK N   1      36.322  14.260  11.383  0.00  0.00     0.075 A 
ENDROOT
BRANCH   7  12
HETATM   12  C   UNK N   1      35.611  12.492  16.710  0.00  0.00    -0.020 A 
HETATM   13  C   UNK N   1      35.892  11.186  17.146  0.00  0.00     0.015 A 
HETATM   14  C   UNK N   1      35.739  10.836  18.492  0.00  0.00     0.037 A 
HETATM   15  C   UNK N   1      35.313  11.790  19.419  0.00  0.00     0.065 A 
HETATM   16  C   UNK N   1      35.040  13.093  19.001  0.00  0.00     0.037 A 
HETATM   17  C   UNK N   1      35.181  13.440  17.656  0.00  0.00     0.015 A 
BRANCH  15  18
HETATM   18  O   UNK N   1      35.164  11.455  20.710  0.00  0.00    -0.361 OA
HETATM   19  H   UNK N   1      35.838  10.979  21.152  0.00  0.00     0.217 HD
ENDBRANCH  15  18
ENDBRANCH   7  12
BRANCH   1  20
HETATM   20  O   UNK N   1      35.951  14.032   9.016  0.00  0.00    -0.356 OA
HETATM   21  C   UNK N   1      37.139  13.856   8.343  0.00  0.00     0.210 C 
ENDBRANCH   1  20
TORSDOF 3
ENDMDL
