MODEL 1
REMARK VINA RESULT:      -8.4      0.000      0.000
REMARK  6 active torsions:
REMARK  status: ('A' for Active; 'I' for Inactive)
REMARK    1  A    between atoms: O_40  and  C_19 
REMARK    2  A    between atoms: C_27  and  C_20 
REMARK    3  A    between atoms: C_28  and  C_21 
REMARK    4  A    between atoms: O_39  and  C_24 
REMARK    5  A    between atoms: C_29  and  C_25 
REMARK    6  A    between atoms: O_40  and  C_26 
REMARK       I    between atoms: N_36  and  C_30 
REMARK       I    between atoms: N_37  and  C_30 
ROOT
HETATM    1  C   UNK N   1      27.792  12.415   1.925  0.00  0.00     0.133 C 
HETATM    2  C   UNK N   1      28.988  11.093   3.479  0.00  0.00     0.133 C 
HETATM    3  C   UNK N   1      28.589  13.665   2.295  0.00  0.00     0.147 C 
HETATM    4  C   UNK N   1      29.836  12.284   3.916  0.00  0.00     0.147 C 
HETATM    5  C   UNK N   1      27.360  17.611   3.731  0.00  0.00     0.144 C 
HETATM    6  C   UNK N   1      27.342  16.095   4.009  0.00  0.00     0.156 C 
HETATM    7  C   UNK N   1      29.284  17.085   4.736  0.00  0.00     0.121 C 
HETATM    8  C   UNK N   1      29.333  14.606   4.445  0.00  0.00     0.327 C 
HETATM    9  N   UNK N   1      28.634  11.230   2.069  0.00  0.00    -0.418 N 
HETATM   10  N   UNK N   1      28.459  18.051   4.559  0.00  0.00    -0.364 N 
ATOM     11  HN  UNK N   1      28.562  18.989   4.947  1.00  0.00     0.162 HD
HETATM   12  N   UNK N   1      29.138  13.524   3.622  0.00  0.00    -0.331 N 
HETATM   13  N   UNK N   1      28.781  15.853   4.194  0.00  0.00    -0.273 N 
HETATM   14  O   UNK N   1      30.079  14.467   5.403  0.00  0.00    -0.247 OA
HETATM   15  H   UNK N   1      28.924  10.607   1.315  0.00  0.00     0.153 HD
ENDROOT
BRANCH   7  16
HETATM   16  C   UNK N   1      30.633  17.312   5.371  0.00  0.00     0.042 A 
HETATM   17  C   UNK N   1      31.767  17.443   4.554  0.00  0.00     0.021 A 
HETATM   18  C   UNK N   1      33.042  17.602   5.088  0.00  0.00     0.038 A 
HETATM   19  C   UNK N   1      33.223  17.637   6.467  0.00  0.00     0.070 A 
HETATM   20  C   UNK N   1      32.102  17.555   7.307  0.00  0.00     0.074 A 
HETATM   21  C   UNK N   1      30.811  17.415   6.779  0.00  0.00     0.086 A 
BRANCH  19  22
HETATM   22  O   UNK N   1      34.480  17.739   6.959  0.00  0.00    -0.356 OA
HETATM   23  C   UNK N   1      34.755  18.110   8.256  0.00  0.00     0.210 C 
ENDBRANCH  19  22
BRANCH  21  24
HETATM   24  O   UNK N   1      29.774  17.330   7.642  0.00  0.00    -0.346 OA
BRANCH  24  25
HETATM   25  C   UNK N   1      29.386  18.389   8.437  0.00  0.00     0.120 C 
HETATM   26  C   UNK N   1      28.032  18.888   7.978  0.00  0.00     0.040 C 
HETATM   27  C   UNK N   1      29.287  17.970   9.896  0.00  0.00     0.040 C 
ENDBRANCH  24  25
ENDBRANCH  21  24
ENDBRANCH   7  16
BRANCH   5  28
HETATM   28  C   UNK N   1      26.112  18.453   3.761  0.00  0.00    -0.033 A 
HETATM   29  C   UNK N   1      24.907  17.953   4.279  0.00  0.00     0.011 A 
HETATM   30  C   UNK N   1      23.712  18.656   4.087  0.00  0.00     0.024 A 
HETATM   31  C   UNK N   1      23.716  19.862   3.378  0.00  0.00     0.034 A 
HETATM   32  C   UNK N   1      24.915  20.378   2.885  0.00  0.00     0.024 A 
HETATM   33 Cl   UNK N   1      22.214  20.710   3.073  0.00  0.00    -0.084 Cl
HETATM   34  C   UNK N   1      26.105  19.669   3.063  0.00  0.00     0.011 A 
ENDBRANCH   5  28
BRANCH   6  35
HETATM   35  C   UNK N   1      26.421  15.277   3.134  0.00  0.00    -0.032 A 
HETATM   36  C   UNK N   1      26.235  15.555   1.771  0.00  0.00     0.011 A 
HETATM   37  C   UNK N   1      25.277  14.842   1.037  0.00  0.00     0.024 A 
HETATM   38  C   UNK N   1      24.492  13.866   1.664  0.00  0.00     0.034 A 
HETATM   39  C   UNK N   1      24.658  13.601   3.022  0.00  0.00     0.024 A 
HETATM   40 Cl   UNK N   1      23.285  12.982   0.756  0.00  0.00    -0.084 Cl
HETATM   41  C   UNK N   1      25.608  14.311   3.753  0.00  0.00     0.011 A 
ENDBRANCH   6  35
TORSDOF 6
ENDMDL
MODEL 2
REMARK VINA RESULT:      -7.7      8.634     12.682
REMARK  6 active torsions:
REMARK  status: ('A' for Active; 'I' for Inactive)
REMARK    1  A    between atoms: O_40  and  C_19 
REMARK    2  A    between atoms: C_27  and  C_20 
REMARK    3  A    between atoms: C_28  and  C_21 
REMARK    4  A    between atoms: O_39  and  C_24 
REMARK    5  A    between atoms: C_29  and  C_25 
REMARK    6  A    between atoms: O_40  and  C_26 
REMARK       I    between atoms: N_36  and  C_30 
REMARK       I    between atoms: N_37  and  C_30 
ROOT
HETATM    1  C   UNK N   1      36.960  12.343  14.757  0.00  0.00     0.133 C 
HETATM    2  C   UNK N   1      36.535  14.666  14.894  0.00  0.00     0.133 C 
HETATM    3  C   UNK N   1      36.813  12.354  13.236  0.00  0.00     0.147 C 
HETATM    4  C   UNK N   1      36.370  14.776  13.382  0.00  0.00     0.147 C 
HETATM    5  C   UNK N   1      34.207  10.118  10.524  0.00  0.00     0.144 C 
HETATM    6  C   UNK N   1      34.264  11.098  11.713  0.00  0.00     0.156 C 
HETATM    7  C   UNK N   1      34.457  12.177   9.693  0.00  0.00     0.121 C 
HETATM    8  C   UNK N   1      35.213  13.437  11.711  0.00  0.00     0.327 C 
HETATM    9  N   UNK N   1      37.505  13.620  15.210  0.00  0.00    -0.418 N 
HETATM   10  N   UNK N   1      33.991  11.015   9.412  0.00  0.00    -0.364 N 
ATOM     11  HN  UNK N   1      33.536  10.763   8.535  1.00  0.00     0.162 HD
HETATM   12  N   UNK N   1      36.013  13.482  12.825  0.00  0.00    -0.331 N 
HETATM   13  N   UNK N   1      34.894  12.255  11.060  0.00  0.00    -0.273 N 
HETATM   14  O   UNK N   1      34.822  14.497  11.246  0.00  0.00    -0.247 OA
HETATM   15  H   UNK N   1      38.406  13.758  15.668  0.00  0.00     0.153 HD
ENDROOT
BRANCH   7  16
HETATM   16  C   UNK N   1      34.573  13.250   8.641  0.00  0.00     0.042 A 
HETATM   17  C   UNK N   1      33.425  13.956   8.245  0.00  0.00     0.021 A 
HETATM   18  C   UNK N   1      33.466  14.920   7.242  0.00  0.00     0.038 A 
HETATM   19  C   UNK N   1      34.665  15.211   6.601  0.00  0.00     0.070 A 
HETATM   20  C   UNK N   1      35.837  14.554   7.008  0.00  0.00     0.074 A 
HETATM   21  C   UNK N   1      35.811  13.596   8.031  0.00  0.00     0.086 A 
BRANCH  19  22
HETATM   22  O   UNK N   1      34.665  16.114   5.593  0.00  0.00    -0.356 OA
HETATM   23  C   UNK N   1      33.581  16.906   5.289  0.00  0.00     0.210 C 
ENDBRANCH  19  22
BRANCH  21  24
HETATM   24  O   UNK N   1      36.972  12.991   8.368  0.00  0.00    -0.346 OA
BRANCH  24  25
HETATM   25  C   UNK N   1      38.115  13.702   8.672  0.00  0.00     0.120 C 
HETATM   26  C   UNK N   1      38.527  13.401  10.098  0.00  0.00     0.040 C 
HETATM   27  C   UNK N   1      39.256  13.327   7.740  0.00  0.00     0.040 C 
ENDBRANCH  24  25
ENDBRANCH  21  24
ENDBRANCH   7  16
BRANCH   5  28
HETATM   28  C   UNK N   1      33.376   8.863  10.551  0.00  0.00    -0.033 A 
HETATM   29  C   UNK N   1      33.951   7.613  10.827  0.00  0.00     0.011 A 
HETATM   30  C   UNK N   1      33.218   6.439  10.618  0.00  0.00     0.024 A 
HETATM   31  C   UNK N   1      31.908   6.508  10.134  0.00  0.00     0.034 A 
HETATM   32  C   UNK N   1      31.321   7.750   9.884  0.00  0.00     0.024 A 
HETATM   33 Cl   UNK N   1      31.011   5.041   9.803  0.00  0.00    -0.084 Cl
HETATM   34  C   UNK N   1      32.057   8.921  10.078  0.00  0.00     0.011 A 
ENDBRANCH   5  28
BRANCH   6  35
HETATM   35  C   UNK N   1      34.684  10.502  13.036  0.00  0.00    -0.032 A 
HETATM   36  C   UNK N   1      35.674   9.513  13.135  0.00  0.00     0.011 A 
HETATM   37  C   UNK N   1      35.936   8.909  14.373  0.00  0.00     0.024 A 
HETATM   38  C   UNK N   1      35.201   9.276  15.507  0.00  0.00     0.034 A 
HETATM   39  C   UNK N   1      34.202  10.243  15.409  0.00  0.00     0.024 A 
HETATM   40 Cl   UNK N   1      35.515   8.516  17.051  0.00  0.00    -0.084 Cl
HETATM   41  C   UNK N   1      33.938  10.842  14.180  0.00  0.00     0.011 A 
ENDBRANCH   6  35
TORSDOF 6
ENDMDL
MODEL 3
REMARK VINA RESULT:      -7.7      5.568      8.634
REMARK  6 active torsions:
REMARK  status: ('A' for Active; 'I' for Inactive)
REMARK    1  A    between atoms: O_40  and  C_19 
REMARK    2  A    between atoms: C_27  and  C_20 
REMARK    3  A    between atoms: C_28  and  C_21 
REMARK    4  A    between atoms: O_39  and  C_24 
REMARK    5  A    between atoms: C_29  and  C_25 
REMARK    6  A    between atoms: O_40  and  C_26 
REMARK       I    between atoms: N_36  and  C_30 
REMARK       I    between atoms: N_37  and  C_30 
ROOT
HETATM    1  C   UNK N   1      21.150  10.998   2.206  0.00  0.00     0.133 C 
HETATM    2  C   UNK N   1      22.328  11.858   0.344  0.00  0.00     0.133 C 
HETATM    3  C   UNK N   1      20.837  12.402   2.722  0.00  0.00     0.147 C 
HETATM    4  C   UNK N   1      22.066  13.296   0.778  0.00  0.00     0.147 C 
HETATM    5  C   UNK N   1      21.654  14.375   6.541  0.00  0.00     0.144 C 
HETATM    6  C   UNK N   1      22.271  13.677   5.313  0.00  0.00     0.156 C 
HETATM    7  C   UNK N   1      21.853  15.903   4.924  0.00  0.00     0.121 C 
HETATM    8  C   UNK N   1      22.178  14.458   2.914  0.00  0.00     0.327 C 
HETATM    9  N   UNK N   1      21.210  11.009   0.747  0.00  0.00    -0.418 N 
HETATM   10  N   UNK N   1      21.811  15.769   6.199  0.00  0.00    -0.364 N 
ATOM     11  HN  UNK N   1      21.880  16.534   6.871  1.00  0.00     0.162 HD
HETATM   12  N   UNK N   1      21.802  13.343   2.206  0.00  0.00    -0.331 N 
HETATM   13  N   UNK N   1      21.888  14.629   4.259  0.00  0.00    -0.273 N 
HETATM   14  O   UNK N   1      22.736  15.358   2.306  0.00  0.00    -0.247 OA
HETATM   15  H   UNK N   1      20.580  10.510   0.119  0.00  0.00     0.153 HD
ENDROOT
BRANCH   7  16
HETATM   16  C   UNK N   1      21.787  17.262   4.275  0.00  0.00     0.042 A 
HETATM   17  C   UNK N   1      20.587  17.687   3.683  0.00  0.00     0.021 A 
HETATM   18  C   UNK N   1      20.486  18.909   3.025  0.00  0.00     0.038 A 
HETATM   19  C   UNK N   1      21.589  19.751   2.941  0.00  0.00     0.070 A 
HETATM   20  C   UNK N   1      22.789  19.373   3.564  0.00  0.00     0.074 A 
HETATM   21  C   UNK N   1      22.896  18.153   4.246  0.00  0.00     0.086 A 
BRANCH  19  22
HETATM   22  O   UNK N   1      21.477  20.909   2.249  0.00  0.00    -0.356 OA
HETATM   23  C   UNK N   1      20.714  21.038   1.111  0.00  0.00     0.210 C 
ENDBRANCH  19  22
BRANCH  21  24
HETATM   24  O   UNK N   1      24.083  17.843   4.816  0.00  0.00    -0.346 OA
BRANCH  24  25
HETATM   25  C   UNK N   1      25.134  17.318   4.092  0.00  0.00     0.120 C 
HETATM   26  C   UNK N   1      26.327  18.243   4.203  0.00  0.00     0.040 C 
HETATM   27  C   UNK N   1      25.525  15.945   4.614  0.00  0.00     0.040 C 
ENDBRANCH  24  25
ENDBRANCH  21  24
ENDBRANCH   7  16
BRANCH   5  28
HETATM   28  C   UNK N   1      22.000  13.982   7.952  0.00  0.00    -0.033 A 
HETATM   29  C   UNK N   1      23.305  13.602   8.304  0.00  0.00     0.011 A 
HETATM   30  C   UNK N   1      23.557  13.020   9.553  0.00  0.00     0.024 A 
HETATM   31  C   UNK N   1      22.507  12.817  10.454  0.00  0.00     0.034 A 
HETATM   32  C   UNK N   1      21.213  13.217  10.121  0.00  0.00     0.024 A 
HETATM   33 Cl   UNK N   1      22.803  12.024  11.988  0.00  0.00    -0.084 Cl
HETATM   34  C   UNK N   1      20.958  13.784   8.870  0.00  0.00     0.011 A 
ENDBRANCH   5  28
BRANCH   6  35
HETATM   35  C   UNK N   1      22.091  12.178   5.249  0.00  0.00    -0.032 A 
HETATM   36  C   UNK N   1      20.900  11.547   5.639  0.00  0.00     0.011 A 
HETATM   37  C   UNK N   1      20.831  10.147   5.674  0.00  0.00     0.024 A 
HETATM   38  C   UNK N   1      21.952   9.377   5.339  0.00  0.00     0.034 A 
HETATM   39  C   UNK N   1      23.143  10.000   4.971  0.00  0.00     0.024 A 
HETATM   40 Cl   UNK N   1      21.875   7.630   5.394  0.00  0.00    -0.084 Cl
HETATM   41  C   UNK N   1      23.214  11.391   4.938  0.00  0.00     0.011 A 
ENDBRANCH   6  35
TORSDOF 6
ENDMDL
MODEL 4
REMARK VINA RESULT:      -7.5      1.719      5.294
REMARK  6 active torsions:
REMARK  status: ('A' for Active; 'I' for Inactive)
REMARK    1  A    between atoms: O_40  and  C_19 
REMARK    2  A    between atoms: C_27  and  C_20 
REMARK    3  A    between atoms: C_28  and  C_21 
REMARK    4  A    between atoms: O_39  and  C_24 
REMARK    5  A    between atoms: C_29  and  C_25 
REMARK    6  A    between atoms: O_40  and  C_26 
REMARK       I    between atoms: N_36  and  C_30 
REMARK       I    between atoms: N_37  and  C_30 
ROOT
HETATM    1  C   UNK N   1      24.964  17.780   4.019  0.00  0.00     0.133 C 
HETATM    2  C   UNK N   1      25.945  19.848   3.424  0.00  0.00     0.133 C 
HETATM    3  C   UNK N   1      26.204  17.359   4.807  0.00  0.00     0.147 C 
HETATM    4  C   UNK N   1      27.225  19.517   4.185  0.00  0.00     0.147 C 
HETATM    5  C   UNK N   1      28.830  13.873   4.505  0.00  0.00     0.144 C 
HETATM    6  C   UNK N   1      28.257  15.100   3.769  0.00  0.00     0.156 C 
HETATM    7  C   UNK N   1      30.092  15.635   5.046  0.00  0.00     0.121 C 
HETATM    8  C   UNK N   1      28.619  17.528   4.354  0.00  0.00     0.327 C 
HETATM    9  N   UNK N   1      24.802  19.229   4.089  0.00  0.00    -0.418 N 
HETATM   10  N   UNK N   1      30.123  14.358   4.928  0.00  0.00    -0.364 N 
ATOM     11  HN  UNK N   1      30.941  13.774   5.105  1.00  0.00     0.162 HD
HETATM   12  N   UNK N   1      27.360  18.078   4.328  0.00  0.00    -0.331 N 
HETATM   13  N   UNK N   1      28.846  16.179   4.576  0.00  0.00    -0.273 N 
HETATM   14  O   UNK N   1      29.572  18.283   4.240  0.00  0.00    -0.247 OA
HETATM   15  H   UNK N   1      24.024  19.723   4.527  0.00  0.00     0.153 HD
ENDROOT
BRANCH   7  16
HETATM   16  C   UNK N   1      31.228  16.392   5.685  0.00  0.00     0.042 A 
HETATM   17  C   UNK N   1      32.434  16.547   4.985  0.00  0.00     0.021 A 
HETATM   18  C   UNK N   1      33.532  17.192   5.548  0.00  0.00     0.038 A 
HETATM   19  C   UNK N   1      33.456  17.706   6.837  0.00  0.00     0.070 A 
HETATM   20  C   UNK N   1      32.247  17.606   7.544  0.00  0.00     0.074 A 
HETATM   21  C   UNK N   1      31.129  16.977   6.979  0.00  0.00     0.086 A 
BRANCH  19  22
HETATM   22  O   UNK N   1      34.555  18.280   7.379  0.00  0.00    -0.356 OA
HETATM   23  C   UNK N   1      34.911  18.132   8.700  0.00  0.00     0.210 C 
ENDBRANCH  19  22
BRANCH  21  24
HETATM   24  O   UNK N   1      29.997  16.904   7.716  0.00  0.00    -0.346 OA
BRANCH  24  25
HETATM   25  C   UNK N   1      29.580  17.934   8.533  0.00  0.00     0.120 C 
HETATM   26  C   UNK N   1      28.485  18.713   7.836  0.00  0.00     0.040 C 
HETATM   27  C   UNK N   1      29.042  17.402   9.852  0.00  0.00     0.040 C 
ENDBRANCH  24  25
ENDBRANCH  21  24
ENDBRANCH   7  16
BRANCH   5  28
HETATM   28  C   UNK N   1      28.789  12.487   3.918  0.00  0.00    -0.033 A 
HETATM   29  C   UNK N   1      29.181  12.243   2.593  0.00  0.00     0.011 A 
HETATM   30  C   UNK N   1      28.916  11.005   1.996  0.00  0.00     0.024 A 
HETATM   31  C   UNK N   1      28.260  10.005   2.720  0.00  0.00     0.034 A 
HETATM   32  C   UNK N   1      27.892  10.231   4.047  0.00  0.00     0.024 A 
HETATM   33 Cl   UNK N   1      27.862   8.479   1.957  0.00  0.00    -0.084 Cl
HETATM   34  C   UNK N   1      28.142  11.472   4.639  0.00  0.00     0.011 A 
ENDBRANCH   5  28
BRANCH   6  35
HETATM   35  C   UNK N   1      26.806  15.003   3.361  0.00  0.00    -0.032 A 
HETATM   36  C   UNK N   1      25.827  14.435   4.192  0.00  0.00     0.011 A 
HETATM   37  C   UNK N   1      24.522  14.260   3.714  0.00  0.00     0.024 A 
HETATM   38  C   UNK N   1      24.194  14.633   2.404  0.00  0.00     0.034 A 
HETATM   39  C   UNK N   1      25.167  15.178   1.569  0.00  0.00     0.024 A 
HETATM   40 Cl   UNK N   1      22.569  14.405   1.797  0.00  0.00    -0.084 Cl
HETATM   41  C   UNK N   1      26.466  15.350   2.041  0.00  0.00     0.011 A 
ENDBRANCH   6  35
TORSDOF 6
ENDMDL
MODEL 5
REMARK VINA RESULT:      -7.4      2.999      5.949
REMARK  6 active torsions:
REMARK  status: ('A' for Active; 'I' for Inactive)
REMARK    1  A    between atoms: O_40  and  C_19 
REMARK    2  A    between atoms: C_27  and  C_20 
REMARK    3  A    between atoms: C_28  and  C_21 
REMARK    4  A    between atoms: O_39  and  C_24 
REMARK    5  A    between atoms: C_29  and  C_25 
REMARK    6  A    between atoms: O_40  and  C_26 
REMARK       I    between atoms: N_36  and  C_30 
REMARK       I    between atoms: N_37  and  C_30 
ROOT
HETATM    1  C   UNK N   1      23.594  19.418   3.748  0.00  0.00     0.133 C 
HETATM    2  C   UNK N   1      25.373  20.365   2.510  0.00  0.00     0.133 C 
HETATM    3  C   UNK N   1      24.530  19.027   4.891  0.00  0.00     0.147 C 
HETATM    4  C   UNK N   1      26.384  20.016   3.598  0.00  0.00     0.147 C 
HETATM    5  C   UNK N   1      25.395  15.181   6.790  0.00  0.00     0.144 C 
HETATM    6  C   UNK N   1      25.410  15.979   5.472  0.00  0.00     0.156 C 
HETATM    7  C   UNK N   1      27.292  16.359   6.734  0.00  0.00     0.121 C 
HETATM    8  C   UNK N   1      26.782  18.033   4.953  0.00  0.00     0.327 C 
HETATM    9  N   UNK N   1      24.073  20.643   3.114  0.00  0.00    -0.418 N 
HETATM   10  N   UNK N   1      26.770  15.293   7.218  0.00  0.00    -0.364 N 
ATOM     11  HN  UNK N   1      27.255  14.623   7.816  1.00  0.00     0.162 HD
HETATM   12  N   UNK N   1      25.884  18.915   4.404  0.00  0.00    -0.331 N 
HETATM   13  N   UNK N   1      26.405  17.009   5.808  0.00  0.00    -0.273 N 
HETATM   14  O   UNK N   1      27.968  18.209   4.721  0.00  0.00    -0.247 OA
HETATM   15  H   UNK N   1      23.584  21.538   3.097  0.00  0.00     0.153 HD
ENDROOT
BRANCH   7  16
HETATM   16  C   UNK N   1      28.642  16.850   7.191  0.00  0.00     0.042 A 
HETATM   17  C   UNK N   1      28.716  17.884   8.139  0.00  0.00     0.021 A 
HETATM   18  C   UNK N   1      29.935  18.410   8.557  0.00  0.00     0.038 A 
HETATM   19  C   UNK N   1      31.126  17.914   8.038  0.00  0.00     0.070 A 
HETATM   20  C   UNK N   1      31.084  16.849   7.124  0.00  0.00     0.074 A 
HETATM   21  C   UNK N   1      29.863  16.298   6.711  0.00  0.00     0.086 A 
BRANCH  19  22
HETATM   22  O   UNK N   1      32.293  18.480   8.423  0.00  0.00    -0.356 OA
HETATM   23  C   UNK N   1      33.527  17.981   8.070  0.00  0.00     0.210 C 
ENDBRANCH  19  22
BRANCH  21  24
HETATM   24  O   UNK N   1      29.890  15.282   5.820  0.00  0.00    -0.346 OA
BRANCH  24  25
HETATM   25  C   UNK N   1      30.089  15.488   4.470  0.00  0.00     0.120 C 
HETATM   26  C   UNK N   1      31.331  14.743   4.029  0.00  0.00     0.040 C 
HETATM   27  C   UNK N   1      28.902  14.990   3.660  0.00  0.00     0.040 C 
ENDBRANCH  24  25
ENDBRANCH  21  24
ENDBRANCH   7  16
BRANCH   5  28
HETATM   28  C   UNK N   1      24.761  13.820   6.904  0.00  0.00    -0.033 A 
HETATM   29  C   UNK N   1      24.252  13.352   8.125  0.00  0.00     0.011 A 
HETATM   30  C   UNK N   1      23.884  12.009   8.267  0.00  0.00     0.024 A 
HETATM   31  C   UNK N   1      24.020  11.129   7.188  0.00  0.00     0.034 A 
HETATM   32  C   UNK N   1      24.499  11.595   5.963  0.00  0.00     0.024 A 
HETATM   33 Cl   UNK N   1      23.628   9.433   7.380  0.00  0.00    -0.084 Cl
HETATM   34  C   UNK N   1      24.882  12.931   5.826  0.00  0.00     0.011 A 
ENDBRANCH   5  28
BRANCH   6  35
HETATM   35  C   UNK N   1      24.059  16.237   4.845  0.00  0.00    -0.032 A 
HETATM   36  C   UNK N   1      22.935  16.599   5.603  0.00  0.00     0.011 A 
HETATM   37  C   UNK N   1      21.681  16.705   4.985  0.00  0.00     0.024 A 
HETATM   38  C   UNK N   1      21.544  16.435   3.617  0.00  0.00     0.034 A 
HETATM   39  C   UNK N   1      22.654  16.055   2.865  0.00  0.00     0.024 A 
HETATM   40 Cl   UNK N   1      19.979  16.554   2.843  0.00  0.00    -0.084 Cl
HETATM   41  C   UNK N   1      23.900  15.946   3.478  0.00  0.00     0.011 A 
ENDBRANCH   6  35
TORSDOF 6
ENDMDL
MODEL 6
REMARK VINA RESULT:      -7.4      2.161      2.883
REMARK  6 active torsions:
REMARK  status: ('A' for Active; 'I' for Inactive)
REMARK    1  A    between atoms: O_40  and  C_19 
REMARK    2  A    between atoms: C_27  and  C_20 
REMARK    3  A    between atoms: C_28  and  C_21 
REMARK    4  A    between atoms: O_39  and  C_24 
REMARK    5  A    between atoms: C_29  and  C_25 
REMARK    6  A    between atoms: O_40  and  C_26 
REMARK       I    between atoms: N_36  and  C_30 
REMARK       I    between atoms: N_37  and  C_30 
ROOT
HETATM    1  C   UNK N   1      27.673  12.675   2.231  0.00  0.00     0.133 C 
HETATM    2  C   UNK N   1      28.692  10.787   3.226  0.00  0.00     0.133 C 
HETATM    3  C   UNK N   1      28.874  13.562   2.560  0.00  0.00     0.147 C 
HETATM    4  C   UNK N   1      29.935  11.590   3.596  0.00  0.00     0.147 C 
HETATM    5  C   UNK N   1      29.235  17.299   4.806  0.00  0.00     0.144 C 
HETATM    6  C   UNK N   1      28.808  15.819   4.861  0.00  0.00     0.156 C 
HETATM    7  C   UNK N   1      31.065  16.082   5.203  0.00  0.00     0.121 C 
HETATM    8  C   UNK N   1      30.289  13.797   4.561  0.00  0.00     0.327 C 
HETATM    9  N   UNK N   1      28.120  11.307   1.987  0.00  0.00    -0.418 N 
HETATM   10  N   UNK N   1      30.559  17.247   5.381  0.00  0.00    -0.364 N 
ATOM     11  HN  UNK N   1      31.023  18.020   5.859  1.00  0.00     0.162 HD
HETATM   12  N   UNK N   1      29.609  13.004   3.669  0.00  0.00    -0.331 N 
HETATM   13  N   UNK N   1      30.108  15.170   4.637  0.00  0.00    -0.273 N 
HETATM   14  O   UNK N   1      31.133  13.267   5.266  0.00  0.00    -0.247 OA
HETATM   15  H   UNK N   1      28.046  10.802   1.103  0.00  0.00     0.153 HD
ENDROOT
BRANCH   7  16
HETATM   16  C   UNK N   1      32.517  15.804   5.498  0.00  0.00     0.042 A 
HETATM   17  C   UNK N   1      33.398  15.533   4.439  0.00  0.00     0.021 A 
HETATM   18  C   UNK N   1      34.736  15.219   4.659  0.00  0.00     0.038 A 
HETATM   19  C   UNK N   1      35.238  15.167   5.955  0.00  0.00     0.070 A 
HETATM   20  C   UNK N   1      34.392  15.479   7.031  0.00  0.00     0.074 A 
HETATM   21  C   UNK N   1      33.048  15.816   6.819  0.00  0.00     0.086 A 
BRANCH  19  22
HETATM   22  O   UNK N   1      36.529  14.807   6.142  0.00  0.00    -0.356 OA
HETATM   23  C   UNK N   1      37.211  13.972   5.286  0.00  0.00     0.210 C 
ENDBRANCH  19  22
BRANCH  21  24
HETATM   24  O   UNK N   1      32.282  16.095   7.898  0.00  0.00    -0.346 OA
BRANCH  24  25
HETATM   25  C   UNK N   1      32.403  17.274   8.605  0.00  0.00     0.120 C 
HETATM   26  C   UNK N   1      33.319  18.215   7.853  0.00  0.00     0.040 C 
HETATM   27  C   UNK N   1      31.050  17.943   8.785  0.00  0.00     0.040 C 
ENDBRANCH  24  25
ENDBRANCH  21  24
ENDBRANCH   7  16
BRANCH   5  28
HETATM   28  C   UNK N   1      28.340  18.416   5.272  0.00  0.00    -0.033 A 
HETATM   29  C   UNK N   1      27.833  19.368   4.374  0.00  0.00     0.011 A 
HETATM   30  C   UNK N   1      27.202  20.523   4.853  0.00  0.00     0.024 A 
HETATM   31  C   UNK N   1      27.075  20.731   6.230  0.00  0.00     0.034 A 
HETATM   32  C   UNK N   1      27.553  19.775   7.128  0.00  0.00     0.024 A 
HETATM   33 Cl   UNK N   1      26.352  22.206   6.836  0.00  0.00    -0.084 Cl
HETATM   34  C   UNK N   1      28.196  18.630   6.651  0.00  0.00     0.011 A 
ENDBRANCH   5  28
BRANCH   6  35
HETATM   35  C   UNK N   1      27.523  15.479   4.143  0.00  0.00    -0.032 A 
HETATM   36  C   UNK N   1      27.184  16.038   2.901  0.00  0.00     0.011 A 
HETATM   37  C   UNK N   1      25.926  15.781   2.340  0.00  0.00     0.024 A 
HETATM   38  C   UNK N   1      24.999  14.983   3.023  0.00  0.00     0.034 A 
HETATM   39  C   UNK N   1      25.323  14.443   4.265  0.00  0.00     0.024 A 
HETATM   40 Cl   UNK N   1      23.422  14.670   2.332  0.00  0.00    -0.084 Cl
HETATM   41  C   UNK N   1      26.572  14.699   4.826  0.00  0.00     0.011 A 
ENDBRANCH   6  35
TORSDOF 6
ENDMDL
MODEL 7
REMARK VINA RESULT:      -7.3      5.643      8.275
REMARK  6 active torsions:
REMARK  status: ('A' for Active; 'I' for Inactive)
REMARK    1  A    between atoms: O_40  and  C_19 
REMARK    2  A    between atoms: C_27  and  C_20 
REMARK    3  A    between atoms: C_28  and  C_21 
REMARK    4  A    between atoms: O_39  and  C_24 
REMARK    5  A    between atoms: C_29  and  C_25 
REMARK    6  A    between atoms: O_40  and  C_26 
REMARK       I    between atoms: N_36  and  C_30 
REMARK       I    between atoms: N_37  and  C_30 
ROOT
HETATM    1  C   UNK N   1      21.412  10.660   2.353  0.00  0.00     0.133 C 
HETATM    2  C   UNK N   1      22.992  11.204   0.680  0.00  0.00     0.133 C 
HETATM    3  C   UNK N   1      21.520  12.050   2.980  0.00  0.00     0.147 C 
HETATM    4  C   UNK N   1      23.168  12.615   1.233  0.00  0.00     0.147 C 
HETATM    5  C   UNK N   1      22.530  13.375   7.026  0.00  0.00     0.144 C 
HETATM    6  C   UNK N   1      23.012  12.596   5.786  0.00  0.00     0.156 C 
HETATM    7  C   UNK N   1      23.383  14.855   5.587  0.00  0.00     0.121 C 
HETATM    8  C   UNK N   1      23.429  13.524   3.476  0.00  0.00     0.327 C 
HETATM    9  N   UNK N   1      21.623  10.750   0.911  0.00  0.00    -0.418 N 
HETATM   10  N   UNK N   1      23.167  14.657   6.836  0.00  0.00    -0.364 N 
ATOM     11  HN  UNK N   1      23.411  15.308   7.583  1.00  0.00     0.162 HD
HETATM   12  N   UNK N   1      22.786  12.650   2.634  0.00  0.00    -0.331 N 
HETATM   13  N   UNK N   1      23.071  13.690   4.805  0.00  0.00    -0.273 N 
HETATM   14  O   UNK N   1      24.309  14.227   3.003  0.00  0.00    -0.247 OA
HETATM   15  H   UNK N   1      20.934  10.533   0.191  0.00  0.00     0.153 HD
ENDROOT
BRANCH   7  16
HETATM   16  C   UNK N   1      23.831  16.200   5.073  0.00  0.00     0.042 A 
HETATM   17  C   UNK N   1      25.147  16.626   5.310  0.00  0.00     0.021 A 
HETATM   18  C   UNK N   1      25.598  17.879   4.902  0.00  0.00     0.038 A 
HETATM   19  C   UNK N   1      24.739  18.749   4.240  0.00  0.00     0.070 A 
HETATM   20  C   UNK N   1      23.431  18.331   3.948  0.00  0.00     0.074 A 
HETATM   21  C   UNK N   1      22.973  17.064   4.336  0.00  0.00     0.086 A 
BRANCH  19  22
HETATM   22  O   UNK N   1      25.188  19.980   3.903  0.00  0.00    -0.356 OA
HETATM   23  C   UNK N   1      24.801  20.637   2.757  0.00  0.00     0.210 C 
ENDBRANCH  19  22
BRANCH  21  24
HETATM   24  O   UNK N   1      21.699  16.726   4.035  0.00  0.00    -0.346 OA
BRANCH  24  25
HETATM   25  C   UNK N   1      21.100  17.088   2.846  0.00  0.00     0.120 C 
HETATM   26  C   UNK N   1      20.805  15.844   2.036  0.00  0.00     0.040 C 
HETATM   27  C   UNK N   1      19.798  17.833   3.095  0.00  0.00     0.040 C 
ENDBRANCH  24  25
ENDBRANCH  21  24
ENDBRANCH   7  16
BRANCH   5  28
HETATM   28  C   UNK N   1      22.582  12.794   8.414  0.00  0.00    -0.033 A 
HETATM   29  C   UNK N   1      21.445  12.771   9.238  0.00  0.00     0.011 A 
HETATM   30  C   UNK N   1      21.565  12.447  10.594  0.00  0.00     0.024 A 
HETATM   31  C   UNK N   1      22.819  12.144  11.134  0.00  0.00     0.034 A 
HETATM   32  C   UNK N   1      23.949  12.139  10.314  0.00  0.00     0.024 A 
HETATM   33 Cl   UNK N   1      22.986  11.809  12.845  0.00  0.00    -0.084 Cl
HETATM   34  C   UNK N   1      23.832  12.477   8.964  0.00  0.00     0.011 A 
ENDBRANCH   5  28
BRANCH   6  35
HETATM   35  C   UNK N   1      22.362  11.251   5.560  0.00  0.00    -0.032 A 
HETATM   36  C   UNK N   1      20.985  11.043   5.733  0.00  0.00     0.011 A 
HETATM   37  C   UNK N   1      20.456   9.749   5.630  0.00  0.00     0.024 A 
HETATM   38  C   UNK N   1      21.300   8.661   5.373  0.00  0.00     0.034 A 
HETATM   39  C   UNK N   1      22.670   8.860   5.221  0.00  0.00     0.024 A 
HETATM   40 Cl   UNK N   1      20.646   7.042   5.256  0.00  0.00    -0.084 Cl
HETATM   41  C   UNK N   1      23.198  10.145   5.326  0.00  0.00     0.011 A 
ENDBRANCH   6  35
TORSDOF 6
ENDMDL
MODEL 8
REMARK VINA RESULT:      -7.2      2.700      5.475
REMARK  6 active torsions:
REMARK  status: ('A' for Active; 'I' for Inactive)
REMARK    1  A    between atoms: O_40  and  C_19 
REMARK    2  A    between atoms: C_27  and  C_20 
REMARK    3  A    between atoms: C_28  and  C_21 
REMARK    4  A    between atoms: O_39  and  C_24 
REMARK    5  A    between atoms: C_29  and  C_25 
REMARK    6  A    between atoms: O_40  and  C_26 
REMARK       I    between atoms: N_36  and  C_30 
REMARK       I    between atoms: N_37  and  C_30 
ROOT
HETATM    1  C   UNK N   1      23.746  19.309   4.106  0.00  0.00     0.133 C 
HETATM    2  C   UNK N   1      25.126  20.363   2.500  0.00  0.00     0.133 C 
HETATM    3  C   UNK N   1      24.957  18.793   4.884  0.00  0.00     0.147 C 
HETATM    4  C   UNK N   1      26.394  19.893   3.207  0.00  0.00     0.147 C 
HETATM    5  C   UNK N   1      26.184  14.764   6.069  0.00  0.00     0.144 C 
HETATM    6  C   UNK N   1      25.847  15.694   4.887  0.00  0.00     0.156 C 
HETATM    7  C   UNK N   1      28.028  15.924   5.575  0.00  0.00     0.121 C 
HETATM    8  C   UNK N   1      27.090  17.778   4.190  0.00  0.00     0.327 C 
HETATM    9  N   UNK N   1      24.069  20.589   3.482  0.00  0.00    -0.418 N 
HETATM   10  N   UNK N   1      27.627  14.818   6.086  0.00  0.00    -0.364 N 
ATOM     11  HN  UNK N   1      28.238  14.086   6.449  1.00  0.00     0.162 HD
HETATM   12  N   UNK N   1      26.107  18.720   4.015  0.00  0.00    -0.331 N 
HETATM   13  N   UNK N   1      26.936  16.674   5.015  0.00  0.00    -0.273 N 
HETATM   14  O   UNK N   1      28.164  17.966   3.640  0.00  0.00    -0.247 OA
HETATM   15  H   UNK N   1      23.631  21.485   3.694  0.00  0.00     0.153 HD
ENDROOT
BRANCH   7  16
HETATM   16  C   UNK N   1      29.470  16.352   5.663  0.00  0.00     0.042 A 
HETATM   17  C   UNK N   1      30.397  15.852   4.734  0.00  0.00     0.021 A 
HETATM   18  C   UNK N   1      31.750  16.174   4.802  0.00  0.00     0.038 A 
HETATM   19  C   UNK N   1      32.220  17.012   5.807  0.00  0.00     0.070 A 
HETATM   20  C   UNK N   1      31.309  17.564   6.721  0.00  0.00     0.074 A 
HETATM   21  C   UNK N   1      29.942  17.263   6.650  0.00  0.00     0.086 A 
BRANCH  19  22
HETATM   22  O   UNK N   1      33.548  17.264   5.879  0.00  0.00    -0.356 OA
HETATM   23  C   UNK N   1      34.217  17.448   7.068  0.00  0.00     0.210 C 
ENDBRANCH  19  22
BRANCH  21  24
HETATM   24  O   UNK N   1      29.118  17.817   7.568  0.00  0.00    -0.346 OA
BRANCH  24  25
HETATM   25  C   UNK N   1      29.181  17.494   8.908  0.00  0.00     0.120 C 
HETATM   26  C   UNK N   1      29.686  18.690   9.687  0.00  0.00     0.040 C 
HETATM   27  C   UNK N   1      27.812  17.103   9.441  0.00  0.00     0.040 C 
ENDBRANCH  24  25
ENDBRANCH  21  24
ENDBRANCH   7  16
BRANCH   5  28
HETATM   28  C   UNK N   1      25.557  13.405   6.231  0.00  0.00    -0.033 A 
HETATM   29  C   UNK N   1      25.505  12.493   5.166  0.00  0.00     0.011 A 
HETATM   30  C   UNK N   1      24.719  11.339   5.263  0.00  0.00     0.024 A 
HETATM   31  C   UNK N   1      23.983  11.090   6.426  0.00  0.00     0.034 A 
HETATM   32  C   UNK N   1      24.052  11.979   7.500  0.00  0.00     0.024 A 
HETATM   33 Cl   UNK N   1      22.942   9.685   6.527  0.00  0.00    -0.084 Cl
HETATM   34  C   UNK N   1      24.824  13.139   7.397  0.00  0.00     0.011 A 
ENDBRANCH   5  28
BRANCH   6  35
HETATM   35  C   UNK N   1      24.384  16.028   4.709  0.00  0.00    -0.032 A 
HETATM   36  C   UNK N   1      23.535  16.287   5.795  0.00  0.00     0.011 A 
HETATM   37  C   UNK N   1      22.162  16.469   5.580  0.00  0.00     0.024 A 
HETATM   38  C   UNK N   1      21.633  16.377   4.286  0.00  0.00     0.034 A 
HETATM   39  C   UNK N   1      22.469  16.100   3.207  0.00  0.00     0.024 A 
HETATM   40 Cl   UNK N   1      19.918  16.592   4.013  0.00  0.00    -0.084 Cl
HETATM   41  C   UNK N   1      23.833  15.915   3.420  0.00  0.00     0.011 A 
ENDBRANCH   6  35
TORSDOF 6
ENDMDL
MODEL 9
REMARK VINA RESULT:      -7.2     10.093     13.919
REMARK  6 active torsions:
REMARK  status: ('A' for Active; 'I' for Inactive)
REMARK    1  A    between atoms: O_40  and  C_19 
REMARK    2  A    between atoms: C_27  and  C_20 
REMARK    3  A    between atoms: C_28  and  C_21 
REMARK    4  A    between atoms: O_39  and  C_24 
REMARK    5  A    between atoms: C_29  and  C_25 
REMARK    6  A    between atoms: O_40  and  C_26 
REMARK       I    between atoms: N_36  and  C_30 
REMARK       I    between atoms: N_37  and  C_30 
ROOT
HETATM    1  C   UNK N   1      38.569   8.559  10.790  0.00  0.00     0.133 C 
HETATM    2  C   UNK N   1      39.991   9.909   9.467  0.00  0.00     0.133 C 
HETATM    3  C   UNK N   1      37.467   9.618  10.778  0.00  0.00     0.147 C 
HETATM    4  C   UNK N   1      38.952  11.024   9.398  0.00  0.00     0.147 C 
HETATM    5  C   UNK N   1      35.358  11.696  13.999  0.00  0.00     0.144 C 
HETATM    6  C   UNK N   1      36.729  11.410  13.355  0.00  0.00     0.156 C 
HETATM    7  C   UNK N   1      35.629  13.139  12.315  0.00  0.00     0.121 C 
HETATM    8  C   UNK N   1      37.487  12.066  11.039  0.00  0.00     0.327 C 
HETATM    9  N   UNK N   1      39.321   8.613   9.539  0.00  0.00    -0.418 N 
HETATM   10  N   UNK N   1      35.034  12.989  13.442  0.00  0.00    -0.364 N 
ATOM     11  HN  UNK N   1      34.424  13.680  13.878  1.00  0.00     0.162 HD
HETATM   12  N   UNK N   1      38.036  10.919  10.520  0.00  0.00    -0.331 N 
HETATM   13  N   UNK N   1      36.537  12.057  12.048  0.00  0.00    -0.273 N 
HETATM   14  O   UNK N   1      37.812  13.131  10.536  0.00  0.00    -0.247 OA
HETATM   15  H   UNK N   1      39.369   7.874   8.838  0.00  0.00     0.153 HD
ENDROOT
BRANCH   7  16
HETATM   16  C   UNK N   1      35.302  14.293  11.403  0.00  0.00     0.042 A 
HETATM   17  C   UNK N   1      35.796  15.573  11.703  0.00  0.00     0.021 A 
HETATM   18  C   UNK N   1      35.482  16.682  10.924  0.00  0.00     0.038 A 
HETATM   19  C   UNK N   1      34.658  16.545   9.812  0.00  0.00     0.070 A 
HETATM   20  C   UNK N   1      34.188  15.270   9.461  0.00  0.00     0.074 A 
HETATM   21  C   UNK N   1      34.515  14.143  10.227  0.00  0.00     0.086 A 
BRANCH  19  22
HETATM   22  O   UNK N   1      34.327  17.650   9.104  0.00  0.00    -0.356 OA
HETATM   23  C   UNK N   1      33.172  17.752   8.362  0.00  0.00     0.210 C 
ENDBRANCH  19  22
BRANCH  21  24
HETATM   24  O   UNK N   1      34.020  12.945   9.842  0.00  0.00    -0.346 OA
BRANCH  24  25
HETATM   25  C   UNK N   1      34.495  12.270   8.737  0.00  0.00     0.120 C 
HETATM   26  C   UNK N   1      34.592  10.793   9.056  0.00  0.00     0.040 C 
HETATM   27  C   UNK N   1      33.571  12.455   7.544  0.00  0.00     0.040 C 
ENDBRANCH  24  25
ENDBRANCH  21  24
ENDBRANCH   7  16
BRANCH   5  28
HETATM   28  C   UNK N   1      35.103  11.513  15.471  0.00  0.00    -0.033 A 
HETATM   29  C   UNK N   1      35.377  12.536  16.392  0.00  0.00     0.011 A 
HETATM   30  C   UNK N   1      35.358  12.270  17.767  0.00  0.00     0.024 A 
HETATM   31  C   UNK N   1      35.063  10.983  18.227  0.00  0.00     0.034 A 
HETATM   32  C   UNK N   1      34.763   9.968  17.317  0.00  0.00     0.024 A 
HETATM   33 Cl   UNK N   1      35.107  10.627  19.941  0.00  0.00    -0.084 Cl
HETATM   34  C   UNK N   1      34.797  10.229  15.945  0.00  0.00     0.011 A 
ENDBRANCH   5  28
BRANCH   6  35
HETATM   35  C   UNK N   1      37.279  10.019  13.572  0.00  0.00    -0.032 A 
HETATM   36  C   UNK N   1      36.486   8.868  13.444  0.00  0.00     0.011 A 
HETATM   37  C   UNK N   1      37.017   7.614  13.777  0.00  0.00     0.024 A 
HETATM   38  C   UNK N   1      38.331   7.508  14.253  0.00  0.00     0.034 A 
HETATM   39  C   UNK N   1      39.114   8.651  14.401  0.00  0.00     0.024 A 
HETATM   40 Cl   UNK N   1      38.994   5.947  14.682  0.00  0.00    -0.084 Cl
HETATM   41  C   UNK N   1      38.588   9.898  14.074  0.00  0.00     0.011 A 
ENDBRANCH   6  35
TORSDOF 6
ENDMDL
