REMARK  21 active torsions:
REMARK  status: ('A' for Active; 'I' for Inactive)
REMARK    1  A    between atoms: C_6  and  C_2 
REMARK    2  A    between atoms: O_45  and  C_2 
REMARK    3  A    between atoms: C_7  and  C_3 
REMARK    4  A    between atoms: O_46  and  C_3 
REMARK    5  A    between atoms: C_10  and  O_34 
REMARK    6  A    between atoms: C_11  and  O_35 
REMARK    7  A    between atoms: N_18  and  C_12 
REMARK    8  A    between atoms: O_36  and  C_15 
REMARK    9  A    between atoms: C_16  and  N_33 
REMARK       I    between atoms: N_19  and  C_17 
REMARK   10  A    between atoms: P_51  and  O_37 
REMARK   11  A    between atoms: P_52  and  O_39 
REMARK   12  A    between atoms: P_53  and  O_41 
REMARK   13  A    between atoms: P_54  and  O_43 
REMARK   14  A    between atoms: P_51  and  O_45 
REMARK   15  A    between atoms: P_52  and  O_46 
REMARK   16  A    between atoms: P_51  and  O_48 
REMARK   17  A    between atoms: P_53  and  O_48 
REMARK   18  A    between atoms: P_52  and  O_49 
REMARK   19  A    between atoms: P_54  and  O_49 
REMARK   20  A    between atoms: P_53  and  O_50 
REMARK   21  A    between atoms: P_54  and  O_50 
ROOT
HETATM    1  O   UNK N   1     -14.180  -5.688   1.558  0.00  0.00    -0.631 OA
HETATM    2  P   UNK N   1     -15.334  -6.580   1.046  0.00  0.00     0.410 P 
ENDROOT
BRANCH   2   3
HETATM    3  O   UNK N   1     -15.872  -7.450   2.447  0.00  0.00    -0.307 OA
HETATM    4  H   UNK N   1     -16.443  -7.433   3.230  0.00  0.00     0.222 HD
ENDBRANCH   2   3
BRANCH   2   5
HETATM    5  O   UNK N   1     -16.665  -5.649   0.372  0.00  0.00    -0.195 OA
BRANCH   5   6
HETATM    6  P   UNK N   1     -16.214  -3.987   0.062  0.00  0.00     0.401 P 
HETATM    7  O   UNK N   1     -15.844  -3.889  -1.446  0.00  0.00    -0.631 OA
BRANCH   6   8
HETATM    8  O   UNK N   1     -17.617  -2.986   0.259  0.00  0.00    -0.307 OA
HETATM    9  H   UNK N   1     -17.525  -2.027   0.369  0.00  0.00     0.222 HD
ENDBRANCH   6   8
BRANCH   6  10
HETATM   10  O   UNK N   1     -14.904  -3.377   1.053  0.00  0.00    -0.294 OA
BRANCH  10  11
HETATM   11  C   UNK N   1     -14.085  -2.611   0.221  0.00  0.00     0.215 C 
BRANCH  11  12
HETATM   12  C   UNK N   1     -12.982  -3.447  -0.450  0.00  0.00     0.180 C 
HETATM   13  C   UNK N   1     -11.875  -3.887   0.523  0.00  0.00     0.182 C 
HETATM   14  C   UNK N   1     -10.633  -3.271  -0.066  0.00  0.00     0.198 C 
HETATM   15  C   UNK N   1     -11.159  -2.211  -1.023  0.00  0.00     0.262 C 
HETATM   16  O   UNK N   1     -12.417  -2.654  -1.473  0.00  0.00    -0.353 OA
BRANCH  13  17
HETATM   17  O   UNK N   1     -11.729  -5.280   0.530  0.00  0.00    -0.390 OA
HETATM   18  H   UNK N   1     -12.514  -5.850   0.535  0.00  0.00     0.210 HD
ENDBRANCH  13  17
BRANCH  14  19
HETATM   19  O   UNK N   1      -9.753  -2.797   0.912  0.00  0.00    -0.388 OA
HETATM   20  H   UNK N   1      -9.163  -3.161   1.590  0.00  0.00     0.210 HD
ENDBRANCH  14  19
BRANCH  15  21
HETATM   21  N   UNK N   1     -11.232  -0.854  -0.467  0.00  0.00    -0.297 N 
HETATM   22  C   UNK N   1     -12.326  -0.079  -0.236  0.00  0.00     0.188 A 
HETATM   23  N   UNK N   1     -11.970   1.170   0.184  0.00  0.00    -0.346 N 
HETATM   24  C   UNK N   1     -10.623   1.150   0.182  0.00  0.00     0.122 A 
ATOM     25  HN  UNK N   1     -12.584   1.942   0.441  1.00  0.00     0.167 HD
HETATM   26  C   UNK N   1      -9.712   2.155   0.470  0.00  0.00     0.131 A 
HETATM   27  C   UNK N   1     -10.187  -0.063  -0.202  0.00  0.00     0.142 A 
HETATM   28  N   UNK N   1      -8.381   1.867   0.348  0.00  0.00    -0.337 N 
HETATM   29  C   UNK N   1      -7.960   0.621  -0.050  0.00  0.00     0.183 A 
ATOM     30  HN  UNK N   1      -7.690   2.588   0.555  1.00  0.00     0.168 HD
HETATM   31  N   UNK N   1      -8.871  -0.358  -0.337  0.00  0.00    -0.336 N 
ATOM     32  HN  UNK N   1      -8.568  -1.283  -0.643  1.00  0.00     0.168 HD
BRANCH  26  33
HETATM   33  N   UNK N   1     -10.135   3.443   0.852  0.00  0.00    -0.383 N 
HETATM   34  H   UNK N   1      -9.503   4.149   1.120  0.00  0.00     0.157 HD
HETATM   35  H   UNK N   1     -11.099   3.644   0.852  0.00  0.00     0.157 HD
ENDBRANCH  26  33
ENDBRANCH  15  21
ENDBRANCH  11  12
ENDBRANCH  10  11
ENDBRANCH   6  10
ENDBRANCH   5   6
ENDBRANCH   2   5
BRANCH   2  36
HETATM   36  O   UNK N   1     -14.638  -7.681  -0.103  0.00  0.00    -0.195 OA
BRANCH  36  37
HETATM   37  P   UNK N   1     -15.985  -8.503  -0.829  0.00  0.00     0.410 P 
HETATM   38  O   UNK N   1     -15.406  -9.827  -1.402  0.00  0.00    -0.631 OA
BRANCH  37  39
HETATM   39  O   UNK N   1     -16.615  -7.589  -2.162  0.00  0.00    -0.307 OA
HETATM   40  H   UNK N   1     -16.348  -7.028  -2.908  0.00  0.00     0.222 HD
ENDBRANCH  37  39
BRANCH  37  41
HETATM   41  O   UNK N   1     -17.219  -8.879   0.357  0.00  0.00    -0.195 OA
BRANCH  41  42
HETATM   42  P   UNK N   1     -18.090 -10.236  -0.279  0.00  0.00     0.402 P 
HETATM   43  O   UNK N   1     -17.242 -10.810   0.892  0.00  0.00    -0.631 OA
BRANCH  42  44
HETATM   44  O   UNK N   1     -19.261  -9.158   0.415  0.00  0.00    -0.307 OA
HETATM   45  H   UNK N   1     -19.067  -8.290   0.803  0.00  0.00     0.222 HD
ENDBRANCH  42  44
BRANCH  42  46
HETATM   46  O   UNK N   1     -19.213 -11.237   0.598  0.00  0.00    -0.291 OA
BRANCH  46  47
HETATM   47  C   UNK N   1     -19.566 -12.248  -0.312  0.00  0.00     0.234 C 
BRANCH  47  48
HETATM   48  C   UNK N   1     -18.663 -13.441  -0.174  0.00  0.00     0.029 A 
HETATM   49  C   UNK N   1     -19.276 -14.804   0.079  0.00  0.00     0.176 A 
HETATM   50  N   UNK N   1     -18.297 -15.874   0.164  0.00  0.00    -0.368 N 
HETATM   51  C   UNK N   1     -16.908 -15.630   0.057  0.00  0.00     0.148 A 
HETATM   52  H   UNK N   1     -18.610 -16.798   0.301  0.00  0.00     0.161 HD
HETATM   53  C   UNK N   1     -16.458 -14.335  -0.162  0.00  0.00     0.129 A 
HETATM   54  N   UNK N   1     -16.015 -16.647   0.178  0.00  0.00    -0.175 N 
HETATM   55  C   UNK N   1     -15.084 -14.104  -0.245  0.00  0.00     0.186 A 
HETATM   56  N   UNK N   1     -17.385 -13.276  -0.288  0.00  0.00    -0.353 N 
HETATM   57  N   UNK N   1     -14.220 -15.145  -0.117  0.00  0.00    -0.168 N 
HETATM   58  C   UNK N   1     -14.678 -16.410   0.089  0.00  0.00     0.679 A 
ATOM     59  HN  UNK N   1     -13.216 -14.976  -0.178  1.00  0.00     0.186 HD
HETATM   60  N   UNK N   1     -13.850 -17.375   0.205  0.00  0.00    -0.234 N 
HETATM   61  H   UNK N   1     -14.175 -18.300   0.294  0.00  0.00     0.174 HD
ATOM     62  HN  UNK N   1     -12.847 -17.188   0.205  1.00  0.00     0.174 HD
ATOM     63  HN  UNK N   1     -17.030 -12.339  -0.477  1.00  0.00     0.166 HD
HETATM   64  H   UNK N   1     -16.339 -17.565   0.330  0.00  0.00     0.186 HD
BRANCH  55  65
HETATM   65  O   UNK N   1     -14.611 -12.861  -0.443  0.00  0.00    -0.344 OA
HETATM   66  H   UNK N   1     -13.696 -12.713  -0.581  0.00  0.00     0.219 HD
ENDBRANCH  55  65
ENDBRANCH  47  48
ENDBRANCH  46  47
ENDBRANCH  42  46
ENDBRANCH  41  42
ENDBRANCH  37  41
ENDBRANCH  36  37
ENDBRANCH   2  36
TORSDOF 21
