MODEL 1
REMARK VINA RESULT:      -6.7      0.000      0.000
REMARK  8 active torsions:
REMARK  status: ('A' for Active; 'I' for Inactive)
REMARK    1  A    between atoms: C_5  and  C_3 
REMARK    2  A    between atoms: C_6  and  N_14 
REMARK    3  A    between atoms: C_7  and  N_14 
REMARK    4  A    between atoms: C_9  and  O_17 
REMARK    5  A    between atoms: C_10  and  O_18 
REMARK    6  A    between atoms: C_11  and  O_19 
REMARK    7  A    between atoms: C_12  and  O_20 
REMARK    8  A    between atoms: C_13  and  O_21 
ROOT
HETATM    1  N   UNK N   1      31.387  15.937   8.133  0.00  0.00    -0.399 N 
HETATM    2  H   UNK N   1      31.154  15.091   7.612  0.00  0.00     0.154 HD
ENDROOT
BRANCH   1   3
HETATM    3  C   UNK N   1      32.548  15.967   9.048  0.00  0.00     0.133 C 
HETATM    4  C   UNK N   1      33.475  14.807   8.771  0.00  0.00     0.018 C 
HETATM    5  C   UNK N   1      34.357  14.837   7.759  0.00  0.00     0.048 C 
HETATM    6  C   UNK N   1      34.519  16.086   6.952  0.00  0.00     0.193 C 
HETATM    7  C   UNK N   1      33.868  17.378   7.400  0.00  0.00     0.223 C 
HETATM    8  O   UNK N   1      35.148  16.066   5.905  0.00  0.00    -0.289 OA
HETATM    9  C   UNK N   1      33.325  17.277   8.844  0.00  0.00     0.180 C 
BRANCH   5  10
HETATM   10  C   UNK N   1      35.094  13.596   7.448  0.00  0.00     0.273 C 
HETATM   11  O   UNK N   1      35.643  12.944   8.322  0.00  0.00    -0.301 OA
ENDBRANCH   5  10
BRANCH   7  12
HETATM   12  O   UNK N   1      34.787  18.429   7.333  0.00  0.00    -0.385 OA
HETATM   13  H   UNK N   1      35.630  18.312   6.865  0.00  0.00     0.210 HD
ENDBRANCH   7  12
BRANCH   9  14
HETATM   14  O   UNK N   1      34.392  17.312   9.752  0.00  0.00    -0.390 OA
HETATM   15  H   UNK N   1      34.842  17.535  10.582  0.00  0.00     0.210 HD
ENDBRANCH   9  14
ENDBRANCH   1   3
BRANCH   1  16
HETATM   16  C   UNK N   1      30.568  17.167   7.991  0.00  0.00     0.165 C 
HETATM   17  C   UNK N   1      29.979  17.358   6.601  0.00  0.00     0.065 C 
HETATM   18  C   UNK N   1      30.701  17.137   5.502  0.00  0.00     0.048 C 
HETATM   19  O   UNK N   1      28.766  17.964   6.483  0.00  0.00    -0.321 OA
HETATM   20  C   UNK N   1      28.421  18.953   7.388  0.00  0.00     0.294 C 
HETATM   21  C   UNK N   1      28.539  18.491   8.865  0.00  0.00     0.204 C 
HETATM   22  C   UNK N   1      29.398  17.219   8.998  0.00  0.00     0.180 C 
BRANCH  20  23
HETATM   23  O   UNK N   1      27.156  19.471   7.101  0.00  0.00    -0.368 OA
HETATM   24  H   UNK N   1      26.305  19.011   7.028  0.00  0.00     0.212 HD
ENDBRANCH  20  23
BRANCH  21  25
HETATM   25  O   UNK N   1      27.279  18.233   9.415  0.00  0.00    -0.388 OA
HETATM   26  H   UNK N   1      26.685  17.554   9.772  0.00  0.00     0.210 HD
ENDBRANCH  21  25
BRANCH  22  27
HETATM   27  O   UNK N   1      29.849  17.071  10.312  0.00  0.00    -0.390 OA
HETATM   28  H   UNK N   1      30.786  17.151  10.548  0.00  0.00     0.210 HD
ENDBRANCH  22  27
ENDBRANCH   1  16
TORSDOF 8
ENDMDL
MODEL 2
REMARK VINA RESULT:      -6.6      1.400      2.025
REMARK  8 active torsions:
REMARK  status: ('A' for Active; 'I' for Inactive)
REMARK    1  A    between atoms: C_5  and  C_3 
REMARK    2  A    between atoms: C_6  and  N_14 
REMARK    3  A    between atoms: C_7  and  N_14 
REMARK    4  A    between atoms: C_9  and  O_17 
REMARK    5  A    between atoms: C_10  and  O_18 
REMARK    6  A    between atoms: C_11  and  O_19 
REMARK    7  A    between atoms: C_12  and  O_20 
REMARK    8  A    between atoms: C_13  and  O_21 
ROOT
HETATM    1  N   UNK N   1      31.986  16.784   8.670  0.00  0.00    -0.399 N 
HETATM    2  H   UNK N   1      31.970  15.878   9.137  0.00  0.00     0.154 HD
ENDROOT
BRANCH   1   3
HETATM    3  C   UNK N   1      33.221  17.594   8.631  0.00  0.00     0.133 C 
HETATM    4  C   UNK N   1      34.245  17.051   9.600  0.00  0.00     0.018 C 
HETATM    5  C   UNK N   1      35.010  15.991   9.294  0.00  0.00     0.048 C 
HETATM    6  C   UNK N   1      34.943  15.397   7.923  0.00  0.00     0.193 C 
HETATM    7  C   UNK N   1      34.194  16.108   6.815  0.00  0.00     0.223 C 
HETATM    8  O   UNK N   1      35.460  14.314   7.695  0.00  0.00    -0.289 OA
HETATM    9  C   UNK N   1      33.815  17.553   7.214  0.00  0.00     0.180 C 
BRANCH   5  10
HETATM   10  C   UNK N   1      35.852  15.416  10.362  0.00  0.00     0.273 C 
HETATM   11  O   UNK N   1      36.727  16.072  10.907  0.00  0.00    -0.301 OA
ENDBRANCH   5  10
BRANCH   7  12
HETATM   12  O   UNK N   1      34.972  16.146   5.655  0.00  0.00    -0.385 OA
HETATM   13  H   UNK N   1      35.014  15.373   5.069  0.00  0.00     0.210 HD
ENDBRANCH   7  12
BRANCH   9  14
HETATM   14  O   UNK N   1      34.957  18.365   7.182  0.00  0.00    -0.390 OA
HETATM   15  H   UNK N   1      35.479  19.166   7.343  0.00  0.00     0.210 HD
ENDBRANCH   9  14
ENDBRANCH   1   3
BRANCH   1  16
HETATM   16  C   UNK N   1      30.768  17.323   8.012  0.00  0.00     0.165 C 
HETATM   17  C   UNK N   1      30.161  16.385   6.978  0.00  0.00     0.065 C 
HETATM   18  C   UNK N   1      30.921  15.725   6.104  0.00  0.00     0.048 C 
HETATM   19  O   UNK N   1      28.810  16.386   6.809  0.00  0.00    -0.321 OA
HETATM   20  C   UNK N   1      28.114  17.569   6.982  0.00  0.00     0.294 C 
HETATM   21  C   UNK N   1      28.384  18.236   8.357  0.00  0.00     0.204 C 
HETATM   22  C   UNK N   1      29.655  17.674   9.024  0.00  0.00     0.180 C 
BRANCH  20  23
HETATM   23  O   UNK N   1      26.750  17.383   6.750  0.00  0.00    -0.368 OA
HETATM   24  H   UNK N   1      26.262  16.563   6.572  0.00  0.00     0.212 HD
ENDBRANCH  20  23
BRANCH  21  25
HETATM   25  O   UNK N   1      27.307  18.047   9.230  0.00  0.00    -0.388 OA
HETATM   26  H   UNK N   1      26.815  18.408   9.984  0.00  0.00     0.210 HD
ENDBRANCH  21  25
BRANCH  22  27
HETATM   27  O   UNK N   1      30.118  18.552  10.007  0.00  0.00    -0.390 OA
HETATM   28  H   UNK N   1      30.956  19.033   9.916  0.00  0.00     0.210 HD
ENDBRANCH  22  27
ENDBRANCH   1  16
TORSDOF 8
ENDMDL
MODEL 3
REMARK VINA RESULT:      -6.4     10.835     12.750
REMARK  8 active torsions:
REMARK  status: ('A' for Active; 'I' for Inactive)
REMARK    1  A    between atoms: C_5  and  C_3 
REMARK    2  A    between atoms: C_6  and  N_14 
REMARK    3  A    between atoms: C_7  and  N_14 
REMARK    4  A    between atoms: C_9  and  O_17 
REMARK    5  A    between atoms: C_10  and  O_18 
REMARK    6  A    between atoms: C_11  and  O_19 
REMARK    7  A    between atoms: C_12  and  O_20 
REMARK    8  A    between atoms: C_13  and  O_21 
ROOT
HETATM    1  N   UNK N   1      20.793  16.226   3.759  0.00  0.00    -0.399 N 
HETATM    2  H   UNK N   1      21.718  15.804   3.678  0.00  0.00     0.154 HD
ENDROOT
BRANCH   1   3
HETATM    3  C   UNK N   1      19.600  15.392   4.014  0.00  0.00     0.133 C 
HETATM    4  C   UNK N   1      20.001  13.968   4.322  0.00  0.00     0.018 C 
HETATM    5  C   UNK N   1      20.431  13.607   5.542  0.00  0.00     0.048 C 
HETATM    6  C   UNK N   1      20.406  14.598   6.662  0.00  0.00     0.193 C 
HETATM    7  C   UNK N   1      19.698  15.926   6.495  0.00  0.00     0.223 C 
HETATM    8  O   UNK N   1      20.988  14.359   7.709  0.00  0.00    -0.289 OA
HETATM    9  C   UNK N   1      18.828  15.957   5.217  0.00  0.00     0.180 C 
BRANCH   5  10
HETATM   10  C   UNK N   1      20.972  12.244   5.707  0.00  0.00     0.273 C 
HETATM   11  O   UNK N   1      20.287  11.333   6.145  0.00  0.00    -0.301 OA
ENDBRANCH   5  10
BRANCH   7  12
HETATM   12  O   UNK N   1      18.887  16.182   7.603  0.00  0.00    -0.385 OA
HETATM   13  H   UNK N   1      19.148  15.868   8.484  0.00  0.00     0.210 HD
ENDBRANCH   7  12
BRANCH   9  14
HETATM   14  O   UNK N   1      17.675  15.185   5.414  0.00  0.00    -0.390 OA
HETATM   15  H   UNK N   1      17.120  14.514   5.842  0.00  0.00     0.210 HD
ENDBRANCH   9  14
ENDBRANCH   1   3
BRANCH   1  16
HETATM   16  C   UNK N   1      20.612  17.694   3.625  0.00  0.00     0.165 C 
HETATM   17  C   UNK N   1      21.727  18.513   4.259  0.00  0.00     0.065 C 
HETATM   18  C   UNK N   1      22.226  18.202   5.456  0.00  0.00     0.048 C 
HETATM   19  O   UNK N   1      22.072  19.699   3.688  0.00  0.00    -0.321 OA
HETATM   20  C   UNK N   1      21.091  20.456   3.072  0.00  0.00     0.294 C 
HETATM   21  C   UNK N   1      20.302  19.664   1.995  0.00  0.00     0.204 C 
HETATM   22  C   UNK N   1      20.492  18.143   2.152  0.00  0.00     0.180 C 
BRANCH  20  23
HETATM   23  O   UNK N   1      21.624  21.643   2.563  0.00  0.00    -0.368 OA
HETATM   24  H   UNK N   1      22.271  22.246   2.960  0.00  0.00     0.212 HD
ENDBRANCH  20  23
BRANCH  21  25
HETATM   25  O   UNK N   1      20.703  20.028   0.705  0.00  0.00    -0.388 OA
HETATM   26  H   UNK N   1      20.853  19.723  -0.203  0.00  0.00     0.210 HD
ENDBRANCH  21  25
BRANCH  22  27
HETATM   27  O   UNK N   1      19.472  17.454   1.490  0.00  0.00    -0.390 OA
HETATM   28  H   UNK N   1      19.593  17.081   0.603  0.00  0.00     0.210 HD
ENDBRANCH  22  27
ENDBRANCH   1  16
TORSDOF 8
ENDMDL
MODEL 4
REMARK VINA RESULT:      -6.3      1.071      2.845
REMARK  8 active torsions:
REMARK  status: ('A' for Active; 'I' for Inactive)
REMARK    1  A    between atoms: C_5  and  C_3 
REMARK    2  A    between atoms: C_6  and  N_14 
REMARK    3  A    between atoms: C_7  and  N_14 
REMARK    4  A    between atoms: C_9  and  O_17 
REMARK    5  A    between atoms: C_10  and  O_18 
REMARK    6  A    between atoms: C_11  and  O_19 
REMARK    7  A    between atoms: C_12  and  O_20 
REMARK    8  A    between atoms: C_13  and  O_21 
ROOT
HETATM    1  N   UNK N   1      31.465  16.007   6.880  0.00  0.00    -0.399 N 
HETATM    2  H   UNK N   1      31.125  15.084   7.152  0.00  0.00     0.154 HD
ENDROOT
BRANCH   1   3
HETATM    3  C   UNK N   1      32.798  16.171   6.263  0.00  0.00     0.133 C 
HETATM    4  C   UNK N   1      33.425  17.478   6.690  0.00  0.00     0.018 C 
HETATM    5  C   UNK N   1      34.033  17.609   7.880  0.00  0.00     0.048 C 
HETATM    6  C   UNK N   1      34.206  16.414   8.762  0.00  0.00     0.193 C 
HETATM    7  C   UNK N   1      33.906  15.025   8.239  0.00  0.00     0.223 C 
HETATM    8  O   UNK N   1      34.556  16.552   9.925  0.00  0.00    -0.289 OA
HETATM    9  C   UNK N   1      33.712  15.019   6.706  0.00  0.00     0.180 C 
BRANCH   5  10
HETATM   10  C   UNK N   1      34.457  18.962   8.292  0.00  0.00     0.273 C 
HETATM   11  O   UNK N   1      35.615  19.203   8.596  0.00  0.00    -0.301 OA
ENDBRANCH   5  10
BRANCH   7  12
HETATM   12  O   UNK N   1      34.945  14.152   8.570  0.00  0.00    -0.385 OA
HETATM   13  H   UNK N   1      35.782  14.497   8.919  0.00  0.00     0.210 HD
ENDBRANCH   7  12
BRANCH   9  14
HETATM   14  O   UNK N   1      34.955  15.163   6.073  0.00  0.00    -0.390 OA
HETATM   15  H   UNK N   1      35.665  15.637   5.613  0.00  0.00     0.210 HD
ENDBRANCH   9  14
ENDBRANCH   1   3
BRANCH   1  16
HETATM   16  C   UNK N   1      30.632  17.217   7.095  0.00  0.00     0.165 C 
HETATM   17  C   UNK N   1      29.625  17.478   5.983  0.00  0.00     0.065 C 
HETATM   18  C   UNK N   1      29.958  17.350   4.698  0.00  0.00     0.048 C 
HETATM   19  O   UNK N   1      28.434  18.051   6.303  0.00  0.00    -0.321 OA
HETATM   20  C   UNK N   1      28.388  18.969   7.338  0.00  0.00     0.294 C 
HETATM   21  C   UNK N   1      28.979  18.418   8.663  0.00  0.00     0.204 C 
HETATM   22  C   UNK N   1      29.847  17.168   8.424  0.00  0.00     0.180 C 
BRANCH  20  23
HETATM   23  O   UNK N   1      27.093  19.464   7.508  0.00  0.00    -0.368 OA
HETATM   24  H   UNK N   1      26.300  19.011   7.836  0.00  0.00     0.212 HD
ENDBRANCH  20  23
BRANCH  21  25
HETATM   25  O   UNK N   1      27.965  18.085   9.568  0.00  0.00    -0.388 OA
HETATM   26  H   UNK N   1      27.086  18.317   9.908  0.00  0.00     0.210 HD
ENDBRANCH  21  25
BRANCH  22  27
HETATM   27  O   UNK N   1      30.698  16.950   9.511  0.00  0.00    -0.390 OA
HETATM   28  H   UNK N   1      30.726  17.551  10.272  0.00  0.00     0.210 HD
ENDBRANCH  22  27
ENDBRANCH   1  16
TORSDOF 8
ENDMDL
MODEL 5
REMARK VINA RESULT:      -6.3      1.503      3.088
REMARK  8 active torsions:
REMARK  status: ('A' for Active; 'I' for Inactive)
REMARK    1  A    between atoms: C_5  and  C_3 
REMARK    2  A    between atoms: C_6  and  N_14 
REMARK    3  A    between atoms: C_7  and  N_14 
REMARK    4  A    between atoms: C_9  and  O_17 
REMARK    5  A    between atoms: C_10  and  O_18 
REMARK    6  A    between atoms: C_11  and  O_19 
REMARK    7  A    between atoms: C_12  and  O_20 
REMARK    8  A    between atoms: C_13  and  O_21 
ROOT
HETATM    1  N   UNK N   1      31.273  16.532   7.612  0.00  0.00    -0.399 N 
HETATM    2  H   UNK N   1      31.442  15.587   7.958  0.00  0.00     0.154 HD
ENDROOT
BRANCH   1   3
HETATM    3  C   UNK N   1      32.393  17.475   7.407  0.00  0.00     0.133 C 
HETATM    4  C   UNK N   1      33.295  17.502   8.619  0.00  0.00     0.018 C 
HETATM    5  C   UNK N   1      34.221  16.552   8.828  0.00  0.00     0.048 C 
HETATM    6  C   UNK N   1      34.458  15.504   7.788  0.00  0.00     0.193 C 
HETATM    7  C   UNK N   1      33.828  15.628   6.416  0.00  0.00     0.223 C 
HETATM    8  O   UNK N   1      35.131  14.518   8.049  0.00  0.00    -0.289 OA
HETATM    9  C   UNK N   1      33.219  17.031   6.189  0.00  0.00     0.180 C 
BRANCH   5  10
HETATM   10  C   UNK N   1      34.932  16.555  10.121  0.00  0.00     0.273 C 
HETATM   11  O   UNK N   1      35.684  17.464  10.435  0.00  0.00    -0.301 OA
ENDBRANCH   5  10
BRANCH   7  12
HETATM   12  O   UNK N   1      34.781  15.381   5.425  0.00  0.00    -0.385 OA
HETATM   13  H   UNK N   1      34.895  14.486   5.068  0.00  0.00     0.210 HD
ENDBRANCH   7  12
BRANCH   9  14
HETATM   14  O   UNK N   1      34.245  17.962   5.979  0.00  0.00    -0.390 OA
HETATM   15  H   UNK N   1      35.160  18.285   5.969  0.00  0.00     0.210 HD
ENDBRANCH   9  14
ENDBRANCH   1   3
BRANCH   1  16
HETATM   16  C   UNK N   1      29.897  16.994   7.302  0.00  0.00     0.165 C 
HETATM   17  C   UNK N   1      29.416  18.136   8.186  0.00  0.00     0.065 C 
HETATM   18  C   UNK N   1      29.635  18.137   9.502  0.00  0.00     0.048 C 
HETATM   19  O   UNK N   1      28.571  19.061   7.656  0.00  0.00    -0.321 OA
HETATM   20  C   UNK N   1      27.657  18.662   6.697  0.00  0.00     0.294 C 
HETATM   21  C   UNK N   1      28.318  17.933   5.497  0.00  0.00     0.204 C 
HETATM   22  C   UNK N   1      29.742  17.452   5.835  0.00  0.00     0.180 C 
BRANCH  20  23
HETATM   23  O   UNK N   1      26.865  19.736   6.286  0.00  0.00    -0.368 OA
HETATM   24  H   UNK N   1      26.805  20.632   6.653  0.00  0.00     0.212 HD
ENDBRANCH  20  23
BRANCH  21  25
HETATM   25  O   UNK N   1      28.388  18.768   4.376  0.00  0.00    -0.388 OA
HETATM   26  H   UNK N   1      28.861  19.501   3.952  0.00  0.00     0.210 HD
ENDBRANCH  21  25
BRANCH  22  27
HETATM   27  O   UNK N   1      30.143  16.453   4.944  0.00  0.00    -0.390 OA
HETATM   28  H   UNK N   1      29.821  16.418   4.029  0.00  0.00     0.210 HD
ENDBRANCH  22  27
ENDBRANCH   1  16
TORSDOF 8
ENDMDL
MODEL 6
REMARK VINA RESULT:      -6.2      1.601      2.289
REMARK  8 active torsions:
REMARK  status: ('A' for Active; 'I' for Inactive)
REMARK    1  A    between atoms: C_5  and  C_3 
REMARK    2  A    between atoms: C_6  and  N_14 
REMARK    3  A    between atoms: C_7  and  N_14 
REMARK    4  A    between atoms: C_9  and  O_17 
REMARK    5  A    between atoms: C_10  and  O_18 
REMARK    6  A    between atoms: C_11  and  O_19 
REMARK    7  A    between atoms: C_12  and  O_20 
REMARK    8  A    between atoms: C_13  and  O_21 
ROOT
HETATM    1  N   UNK N   1      32.149  16.939   7.964  0.00  0.00    -0.399 N 
HETATM    2  H   UNK N   1      32.986  17.475   8.196  0.00  0.00     0.154 HD
ENDROOT
BRANCH   1   3
HETATM    3  C   UNK N   1      32.176  15.461   7.954  0.00  0.00     0.133 C 
HETATM    4  C   UNK N   1      33.381  14.955   7.195  0.00  0.00     0.018 C 
HETATM    5  C   UNK N   1      34.598  14.906   7.760  0.00  0.00     0.048 C 
HETATM    6  C   UNK N   1      34.759  15.245   9.208  0.00  0.00     0.193 C 
HETATM    7  C   UNK N   1      33.544  15.424  10.094  0.00  0.00     0.223 C 
HETATM    8  O   UNK N   1      35.873  15.417   9.680  0.00  0.00    -0.289 OA
HETATM    9  C   UNK N   1      32.251  14.940   9.398  0.00  0.00     0.180 C 
BRANCH   5  10
HETATM   10  C   UNK N   1      35.747  14.572   6.896  0.00  0.00     0.273 C 
HETATM   11  O   UNK N   1      36.033  15.252   5.922  0.00  0.00    -0.301 OA
ENDBRANCH   5  10
BRANCH   7  12
HETATM   12  O   UNK N   1      33.709  14.717  11.287  0.00  0.00    -0.385 OA
HETATM   13  H   UNK N   1      33.179  13.923  11.463  0.00  0.00     0.210 HD
ENDBRANCH   7  12
BRANCH   9  14
HETATM   14  O   UNK N   1      32.225  13.539   9.372  0.00  0.00    -0.390 OA
HETATM   15  H   UNK N   1      32.040  12.650   9.713  0.00  0.00     0.210 HD
ENDBRANCH   9  14
ENDBRANCH   1   3
BRANCH   1  16
HETATM   16  C   UNK N   1      30.875  17.623   7.629  0.00  0.00     0.165 C 
HETATM   17  C   UNK N   1      30.309  17.240   6.269  0.00  0.00     0.065 C 
HETATM   18  C   UNK N   1      31.091  17.134   5.194  0.00  0.00     0.048 C 
HETATM   19  O   UNK N   1      28.958  17.211   6.109  0.00  0.00    -0.321 OA
HETATM   20  C   UNK N   1      28.180  18.112   6.814  0.00  0.00     0.294 C 
HETATM   21  C   UNK N   1      28.441  18.070   8.344  0.00  0.00     0.204 C 
HETATM   22  C   UNK N   1      29.770  17.365   8.677  0.00  0.00     0.180 C 
BRANCH  20  23
HETATM   23  O   UNK N   1      26.827  17.948   6.510  0.00  0.00    -0.368 OA
HETATM   24  H   UNK N   1      26.380  17.999   5.651  0.00  0.00     0.212 HD
ENDBRANCH  20  23
BRANCH  21  25
HETATM   25  O   UNK N   1      27.409  17.405   9.014  0.00  0.00    -0.388 OA
HETATM   26  H   UNK N   1      26.831  17.402   9.793  0.00  0.00     0.210 HD
ENDBRANCH  21  25
BRANCH  22  27
HETATM   27  O   UNK N   1      30.196  17.709   9.962  0.00  0.00    -0.390 OA
HETATM   28  H   UNK N   1      31.118  17.605  10.246  0.00  0.00     0.210 HD
ENDBRANCH  22  27
ENDBRANCH   1  16
TORSDOF 8
ENDMDL
MODEL 7
REMARK VINA RESULT:      -6.2      3.813      6.168
REMARK  8 active torsions:
REMARK  status: ('A' for Active; 'I' for Inactive)
REMARK    1  A    between atoms: C_5  and  C_3 
REMARK    2  A    between atoms: C_6  and  N_14 
REMARK    3  A    between atoms: C_7  and  N_14 
REMARK    4  A    between atoms: C_9  and  O_17 
REMARK    5  A    between atoms: C_10  and  O_18 
REMARK    6  A    between atoms: C_11  and  O_19 
REMARK    7  A    between atoms: C_12  and  O_20 
REMARK    8  A    between atoms: C_13  and  O_21 
ROOT
HETATM    1  N   UNK N   1      34.768  15.045  11.064  0.00  0.00    -0.399 N 
HETATM    2  H   UNK N   1      33.916  14.949  11.617  0.00  0.00     0.154 HD
ENDROOT
BRANCH   1   3
HETATM    3  C   UNK N   1      36.091  14.752  11.655  0.00  0.00     0.133 C 
HETATM    4  C   UNK N   1      35.961  14.458  13.131  0.00  0.00     0.018 C 
HETATM    5  C   UNK N   1      35.571  13.252  13.576  0.00  0.00     0.048 C 
HETATM    6  C   UNK N   1      35.370  12.132  12.606  0.00  0.00     0.193 C 
HETATM    7  C   UNK N   1      35.814  12.276  11.165  0.00  0.00     0.223 C 
HETATM    8  O   UNK N   1      34.811  11.104  12.959  0.00  0.00    -0.289 OA
HETATM    9  C   UNK N   1      36.701  13.525  10.960  0.00  0.00     0.180 C 
BRANCH   5  10
HETATM   10  C   UNK N   1      35.297  13.105  15.019  0.00  0.00     0.273 C 
HETATM   11  O   UNK N   1      34.156  13.112  15.456  0.00  0.00    -0.301 OA
ENDBRANCH   5  10
BRANCH   7  12
HETATM   12  O   UNK N   1      36.526  11.142  10.765  0.00  0.00    -0.385 OA
HETATM   13  H   UNK N   1      36.923  11.101   9.880  0.00  0.00     0.210 HD
ENDBRANCH   7  12
BRANCH   9  14
HETATM   14  O   UNK N   1      37.974  13.292  11.497  0.00  0.00    -0.390 OA
HETATM   15  H   UNK N   1      38.904  13.490  11.692  0.00  0.00     0.210 HD
ENDBRANCH   9  14
ENDBRANCH   1   3
BRANCH   1  16
HETATM   16  C   UNK N   1      34.710  15.482   9.646  0.00  0.00     0.165 C 
HETATM   17  C   UNK N   1      33.550  14.883   8.863  0.00  0.00     0.065 C 
HETATM   18  C   UNK N   1      33.224  13.595   8.979  0.00  0.00     0.048 C 
HETATM   19  O   UNK N   1      32.976  15.624   7.878  0.00  0.00    -0.321 OA
HETATM   20  C   UNK N   1      33.765  16.494   7.146  0.00  0.00     0.294 C 
HETATM   21  C   UNK N   1      34.556  17.488   8.037  0.00  0.00     0.204 C 
HETATM   22  C   UNK N   1      34.616  17.018   9.504  0.00  0.00     0.180 C 
BRANCH  20  23
HETATM   23  O   UNK N   1      33.011  17.151   6.171  0.00  0.00    -0.368 OA
HETATM   24  H   UNK N   1      32.321  16.800   5.588  0.00  0.00     0.212 HD
ENDBRANCH  20  23
BRANCH  21  25
HETATM   25  O   UNK N   1      33.980  18.763   8.006  0.00  0.00    -0.388 OA
HETATM   26  H   UNK N   1      33.675  19.490   7.441  0.00  0.00     0.210 HD
ENDBRANCH  21  25
BRANCH  22  27
HETATM   27  O   UNK N   1      35.659  17.657  10.179  0.00  0.00    -0.390 OA
HETATM   28  H   UNK N   1      35.523  18.116  11.023  0.00  0.00     0.210 HD
ENDBRANCH  22  27
ENDBRANCH   1  16
TORSDOF 8
ENDMDL
MODEL 8
REMARK VINA RESULT:      -6.1     13.096     16.248
REMARK  8 active torsions:
REMARK  status: ('A' for Active; 'I' for Inactive)
REMARK    1  A    between atoms: C_5  and  C_3 
REMARK    2  A    between atoms: C_6  and  N_14 
REMARK    3  A    between atoms: C_7  and  N_14 
REMARK    4  A    between atoms: C_9  and  O_17 
REMARK    5  A    between atoms: C_10  and  O_18 
REMARK    6  A    between atoms: C_11  and  O_19 
REMARK    7  A    between atoms: C_12  and  O_20 
REMARK    8  A    between atoms: C_13  and  O_21 
ROOT
HETATM    1  N   UNK N   1      29.056  24.435  -5.457  0.00  0.00    -0.399 N 
HETATM    2  H   UNK N   1      29.186  25.157  -6.166  0.00  0.00     0.154 HD
ENDROOT
BRANCH   1   3
HETATM    3  C   UNK N   1      27.708  24.110  -4.945  0.00  0.00     0.133 C 
HETATM    4  C   UNK N   1      27.270  25.126  -3.916  0.00  0.00     0.018 C 
HETATM    5  C   UNK N   1      26.773  26.320  -4.274  0.00  0.00     0.048 C 
HETATM    6  C   UNK N   1      26.530  26.622  -5.719  0.00  0.00     0.193 C 
HETATM    7  C   UNK N   1      26.628  25.524  -6.758  0.00  0.00     0.223 C 
HETATM    8  O   UNK N   1      26.288  27.764  -6.078  0.00  0.00    -0.289 OA
HETATM    9  C   UNK N   1      26.703  24.123  -6.107  0.00  0.00     0.180 C 
BRANCH   5  10
HETATM   10  C   UNK N   1      26.540  27.318  -3.211  0.00  0.00     0.273 C 
HETATM   11  O   UNK N   1      25.429  27.777  -2.999  0.00  0.00    -0.301 OA
ENDBRANCH   5  10
BRANCH   7  12
HETATM   12  O   UNK N   1      25.523  25.570  -7.611  0.00  0.00    -0.385 OA
HETATM   13  H   UNK N   1      25.538  25.093  -8.457  0.00  0.00     0.210 HD
ENDBRANCH   7  12
BRANCH   9  14
HETATM   14  O   UNK N   1      25.441  23.765  -5.614  0.00  0.00    -0.390 OA
HETATM   15  H   UNK N   1      24.484  23.851  -5.482  0.00  0.00     0.210 HD
ENDBRANCH   9  14
ENDBRANCH   1   3
BRANCH   1  16
HETATM   16  C   UNK N   1      30.217  23.686  -4.913  0.00  0.00     0.165 C 
HETATM   17  C   UNK N   1      30.701  24.195  -3.563  0.00  0.00     0.065 C 
HETATM   18  C   UNK N   1      30.815  25.499  -3.310  0.00  0.00     0.048 C 
HETATM   19  O   UNK N   1      31.222  23.302  -2.678  0.00  0.00    -0.321 OA
HETATM   20  C   UNK N   1      31.927  22.213  -3.160  0.00  0.00     0.294 C 
HETATM   21  C   UNK N   1      31.124  21.384  -4.197  0.00  0.00     0.204 C 
HETATM   22  C   UNK N   1      29.928  22.176  -4.759  0.00  0.00     0.180 C 
BRANCH  20  23
HETATM   23  O   UNK N   1      32.401  21.422  -2.111  0.00  0.00    -0.368 OA
HETATM   24  H   UNK N   1      33.250  21.464  -1.645  0.00  0.00     0.212 HD
ENDBRANCH  20  23
BRANCH  21  25
HETATM   25  O   UNK N   1      30.641  20.199  -3.631  0.00  0.00    -0.388 OA
HETATM   26  H   UNK N   1      29.866  19.628  -3.506  0.00  0.00     0.210 HD
ENDBRANCH  21  25
BRANCH  22  27
HETATM   27  O   UNK N   1      29.493  21.615  -5.963  0.00  0.00    -0.390 OA
HETATM   28  H   UNK N   1      28.601  21.768  -6.312  0.00  0.00     0.210 HD
ENDBRANCH  22  27
ENDBRANCH   1  16
TORSDOF 8
ENDMDL
MODEL 9
REMARK VINA RESULT:      -6.1     13.128     16.183
REMARK  8 active torsions:
REMARK  status: ('A' for Active; 'I' for Inactive)
REMARK    1  A    between atoms: C_5  and  C_3 
REMARK    2  A    between atoms: C_6  and  N_14 
REMARK    3  A    between atoms: C_7  and  N_14 
REMARK    4  A    between atoms: C_9  and  O_17 
REMARK    5  A    between atoms: C_10  and  O_18 
REMARK    6  A    between atoms: C_11  and  O_19 
REMARK    7  A    between atoms: C_12  and  O_20 
REMARK    8  A    between atoms: C_13  and  O_21 
ROOT
HETATM    1  N   UNK N   1      28.766  22.210  -5.491  0.00  0.00    -0.399 N 
HETATM    2  H   UNK N   1      28.031  21.567  -5.195  0.00  0.00     0.154 HD
ENDROOT
BRANCH   1   3
HETATM    3  C   UNK N   1      28.535  23.169  -6.592  0.00  0.00     0.133 C 
HETATM    4  C   UNK N   1      27.957  22.466  -7.798  0.00  0.00     0.018 C 
HETATM    5  C   UNK N   1      26.651  22.163  -7.877  0.00  0.00     0.048 C 
HETATM    6  C   UNK N   1      25.714  22.631  -6.809  0.00  0.00     0.193 C 
HETATM    7  C   UNK N   1      26.178  23.624  -5.763  0.00  0.00     0.223 C 
HETATM    8  O   UNK N   1      24.578  22.187  -6.749  0.00  0.00    -0.289 OA
HETATM    9  C   UNK N   1      27.543  24.248  -6.130  0.00  0.00     0.180 C 
BRANCH   5  10
HETATM   10  C   UNK N   1      26.205  21.319  -9.003  0.00  0.00     0.273 C 
HETATM   11  O   UNK N   1      25.599  21.790  -9.953  0.00  0.00    -0.301 OA
ENDBRANCH   5  10
BRANCH   7  12
HETATM   12  O   UNK N   1      25.235  24.645  -5.619  0.00  0.00    -0.385 OA
HETATM   13  H   UNK N   1      24.866  24.849  -4.745  0.00  0.00     0.210 HD
ENDBRANCH   7  12
BRANCH   9  14
HETATM   14  O   UNK N   1      27.374  25.176  -7.167  0.00  0.00    -0.390 OA
HETATM   15  H   UNK N   1      27.655  25.750  -7.897  0.00  0.00     0.210 HD
ENDBRANCH   9  14
ENDBRANCH   1   3
BRANCH   1  16
HETATM   16  C   UNK N   1      30.094  22.205  -4.827  0.00  0.00     0.165 C 
HETATM   17  C   UNK N   1      30.041  22.527  -3.340  0.00  0.00     0.065 C 
HETATM   18  C   UNK N   1      29.276  23.511  -2.868  0.00  0.00     0.048 C 
HETATM   19  O   UNK N   1      30.946  21.939  -2.512  0.00  0.00    -0.321 OA
HETATM   20  C   UNK N   1      32.217  21.671  -2.990  0.00  0.00     0.294 C 
HETATM   21  C   UNK N   1      32.208  20.832  -4.296  0.00  0.00     0.204 C 
HETATM   22  C   UNK N   1      30.827  20.853  -4.979  0.00  0.00     0.180 C 
BRANCH  20  23
HETATM   23  O   UNK N   1      33.009  21.087  -1.999  0.00  0.00    -0.368 OA
HETATM   24  H   UNK N   1      33.450  21.502  -1.241  0.00  0.00     0.212 HD
ENDBRANCH  20  23
BRANCH  21  25
HETATM   25  O   UNK N   1      32.555  19.500  -4.044  0.00  0.00    -0.388 OA
HETATM   26  H   UNK N   1      33.048  18.897  -3.465  0.00  0.00     0.210 HD
ENDBRANCH  21  25
BRANCH  22  27
HETATM   27  O   UNK N   1      30.941  20.483  -6.321  0.00  0.00    -0.390 OA
HETATM   28  H   UNK N   1      31.799  20.302  -6.736  0.00  0.00     0.210 HD
ENDBRANCH  22  27
ENDBRANCH   1  16
TORSDOF 8
ENDMDL
