REMARK  3 active torsions:
REMARK  status: ('A' for Active; 'I' for Inactive)
REMARK    1  A    between atoms: C_2  and  N_3 
REMARK    2  A    between atoms: C_2  and  C_7 
REMARK       I    between atoms: N_3  and  C_4 
REMARK       I    between atoms: C_4  and  N_5 
REMARK    3  A    between atoms: C_7  and  O_8 
ROOT
HETATM    1  N   UNK N   1       0.861   0.469  -0.000  0.00  0.00    -0.329 N 
HETATM    2  C   UNK N   1      -0.373   1.032   0.000  0.00  0.00     0.314 C 
HETATM    3  N   UNK N   1      -1.458   0.232   0.000  0.00  0.00    -0.352 N 
HETATM    4  O   UNK N   1      -0.518   2.242  -0.000  0.00  0.00    -0.248 OA
HETATM    5  H   UNK N   1       0.899  -0.515  -0.000  0.00  0.00     0.165 HD
HETATM    6  H   UNK N   1      -2.360   0.627   0.000  0.00  0.00     0.160 HD
HETATM    7  H   UNK N   1      -1.348  -0.746   0.000  0.00  0.00     0.160 HD
ENDROOT
BRANCH   1   8
HETATM    8  C   UNK N   1       2.132   1.173  -0.000  0.00  0.00     0.180 C 
HETATM    9  C   UNK N   1       2.209   2.695   0.000  0.00  0.00     0.043 C 
BRANCH   8  10
HETATM   10  C   UNK N   1       3.360   0.316   0.000  0.00  0.00     0.163 C 
HETATM   11  O   UNK N   1       3.255  -0.900   0.000  0.00  0.00    -0.648 OA
BRANCH  10  12
HETATM   12  O   UNK N   1       4.583   0.879   0.000  0.00  0.00    -0.775 OA
HETATM   13  H   UNK N   1       5.348   0.338   0.000  0.00  0.00     0.167 HD
ENDBRANCH  10  12
ENDBRANCH   8  10
ENDBRANCH   1   8
TORSDOF 3
