MODEL 1
REMARK VINA RESULT:      -5.6      0.000      0.000
REMARK  10 active torsions:
REMARK  status: ('A' for Active; 'I' for Inactive)
REMARK    1  A    between atoms: C_3  and  C_2 
REMARK    2  A    between atoms: S_17  and  C_2 
REMARK    3  A    between atoms: C_7  and  C_3 
REMARK    4  A    between atoms: C_3  and  N_9 
REMARK    5  A    between atoms: C_4  and  C_6 
REMARK    6  A    between atoms: C_5  and  S_17 
REMARK    7  A    between atoms: C_8  and  C_6 
REMARK    8  A    between atoms: C_6  and  N_10 
REMARK    9  A    between atoms: O_13  and  C_7 
REMARK   10  A    between atoms: O_15  and  C_8 
ROOT
HETATM    1  C   UNK N   1      34.852  15.213   9.565  0.00  0.00     0.075 C 
HETATM    2  C   UNK N   1      33.832  15.840   8.658  0.00  0.00     0.187 C 
HETATM    3  C   UNK N   1      34.412  13.811   9.419  0.00  0.00     0.169 C 
HETATM    4  N   UNK N   1      32.962  13.914   9.417  0.00  0.00    -0.287 N 
HETATM    5  O   UNK N   1      32.627  15.132   8.875  0.00  0.00    -0.276 OA
HETATM    6  H   UNK N   1      32.310  13.209   9.758  0.00  0.00     0.189 HD
ENDROOT
BRANCH   3   7
HETATM    7  S   UNK N   1      35.035  12.802  10.796  0.00  0.00    -0.139 SA
BRANCH   7   8
HETATM    8  C   UNK N   1      34.999  14.196  11.969  0.00  0.00     0.111 C 
BRANCH   8   9
HETATM    9  C   UNK N   1      36.308  14.289  12.735  0.00  0.00     0.182 C 
BRANCH   9  10
HETATM   10  C   UNK N   1      36.120  13.736  14.121  0.00  0.00     0.163 C 
HETATM   11  O   UNK N   1      35.004  13.462  14.538  0.00  0.00    -0.648 OA
BRANCH  10  12
HETATM   12  O   UNK N   1      37.192  13.526  14.907  0.00  0.00    -0.775 OA
HETATM   13  H   UNK N   1      37.793  12.831  14.723  0.00  0.00     0.167 HD
ENDBRANCH  10  12
ENDBRANCH   9  10
BRANCH   9  14
HETATM   14  N   UNK N   1      37.341  13.555  12.019  0.00  0.00    -0.417 N 
HETATM   15  H   UNK N   1      38.128  13.150  12.524  0.00  0.00     0.150 HD
HETATM   16  H   UNK N   1      37.277  13.446  11.007  0.00  0.00     0.150 HD
ENDBRANCH   9  14
ENDBRANCH   8   9
ENDBRANCH   7   8
ENDBRANCH   3   7
BRANCH   2  17
HETATM   17  C   UNK N   1      33.657  17.346   8.918  0.00  0.00     0.205 C 
BRANCH  17  18
HETATM   18  C   UNK N   1      34.504  18.206   8.006  0.00  0.00     0.165 C 
HETATM   19  O   UNK N   1      34.482  18.010   6.800  0.00  0.00    -0.648 OA
BRANCH  18  20
HETATM   20  O   UNK N   1      35.282  19.190   8.498  0.00  0.00    -0.775 OA
HETATM   21  H   UNK N   1      36.192  19.237   8.715  0.00  0.00     0.167 HD
ENDBRANCH  18  20
ENDBRANCH  17  18
BRANCH  17  22
HETATM   22  N   UNK N   1      32.258  17.697   8.726  0.00  0.00    -0.416 N 
HETATM   23  H   UNK N   1      31.537  17.493   9.418  0.00  0.00     0.150 HD
HETATM   24  H   UNK N   1      31.986  18.167   7.862  0.00  0.00     0.150 HD
ENDBRANCH  17  22
ENDBRANCH   2  17
TORSDOF 10
ENDMDL
MODEL 2
REMARK VINA RESULT:      -5.6      1.501      6.548
REMARK  10 active torsions:
REMARK  status: ('A' for Active; 'I' for Inactive)
REMARK    1  A    between atoms: C_3  and  C_2 
REMARK    2  A    between atoms: S_17  and  C_2 
REMARK    3  A    between atoms: C_7  and  C_3 
REMARK    4  A    between atoms: C_3  and  N_9 
REMARK    5  A    between atoms: C_4  and  C_6 
REMARK    6  A    between atoms: C_5  and  S_17 
REMARK    7  A    between atoms: C_8  and  C_6 
REMARK    8  A    between atoms: C_6  and  N_10 
REMARK    9  A    between atoms: O_13  and  C_7 
REMARK   10  A    between atoms: O_15  and  C_8 
ROOT
HETATM    1  C   UNK N   1      36.252  14.912  11.121  0.00  0.00     0.075 C 
HETATM    2  C   UNK N   1      35.588  14.677  12.448  0.00  0.00     0.187 C 
HETATM    3  C   UNK N   1      35.028  14.996  10.299  0.00  0.00     0.169 C 
HETATM    4  N   UNK N   1      34.181  13.954  10.855  0.00  0.00    -0.287 N 
HETATM    5  O   UNK N   1      34.486  13.830  12.190  0.00  0.00    -0.276 OA
HETATM    6  H   UNK N   1      33.484  13.412  10.346  0.00  0.00     0.189 HD
ENDROOT
BRANCH   3   7
HETATM    7  S   UNK N   1      35.418  14.713   8.548  0.00  0.00    -0.139 SA
BRANCH   7   8
HETATM    8  C   UNK N   1      34.008  15.709   7.966  0.00  0.00     0.111 C 
BRANCH   8   9
HETATM    9  C   UNK N   1      33.922  17.020   8.730  0.00  0.00     0.182 C 
BRANCH   9  10
HETATM   10  C   UNK N   1      34.480  18.132   7.884  0.00  0.00     0.163 C 
HETATM   11  O   UNK N   1      35.000  19.110   8.402  0.00  0.00    -0.648 OA
BRANCH  10  12
HETATM   12  O   UNK N   1      34.417  18.046   6.543  0.00  0.00    -0.775 OA
HETATM   13  H   UNK N   1      33.633  17.759   6.116  0.00  0.00     0.167 HD
ENDBRANCH  10  12
ENDBRANCH   9  10
BRANCH   9  14
HETATM   14  N   UNK N   1      32.535  17.283   9.084  0.00  0.00    -0.417 N 
HETATM   15  H   UNK N   1      32.185  17.036  10.009  0.00  0.00     0.150 HD
HETATM   16  H   UNK N   1      31.910  17.716   8.404  0.00  0.00     0.150 HD
ENDBRANCH   9  14
ENDBRANCH   8   9
ENDBRANCH   7   8
ENDBRANCH   3   7
BRANCH   2  17
HETATM   17  C   UNK N   1      36.543  14.061  13.485  0.00  0.00     0.205 C 
BRANCH  17  18
HETATM   18  C   UNK N   1      35.852  13.695  14.781  0.00  0.00     0.165 C 
HETATM   19  O   UNK N   1      36.411  13.912  15.845  0.00  0.00    -0.648 OA
BRANCH  18  20
HETATM   20  O   UNK N   1      34.626  13.137  14.784  0.00  0.00    -0.775 OA
HETATM   21  H   UNK N   1      33.865  13.268  15.315  0.00  0.00     0.167 HD
ENDBRANCH  18  20
ENDBRANCH  17  18
BRANCH  17  22
HETATM   22  N   UNK N   1      37.142  12.862  12.919  0.00  0.00    -0.416 N 
HETATM   23  H   UNK N   1      36.625  12.216  12.322  0.00  0.00     0.150 HD
HETATM   24  H   UNK N   1      38.119  12.659  13.126  0.00  0.00     0.150 HD
ENDBRANCH  17  22
ENDBRANCH   2  17
TORSDOF 10
ENDMDL
MODEL 3
REMARK VINA RESULT:      -5.6     14.992     16.223
REMARK  10 active torsions:
REMARK  status: ('A' for Active; 'I' for Inactive)
REMARK    1  A    between atoms: C_3  and  C_2 
REMARK    2  A    between atoms: S_17  and  C_2 
REMARK    3  A    between atoms: C_7  and  C_3 
REMARK    4  A    between atoms: C_3  and  N_9 
REMARK    5  A    between atoms: C_4  and  C_6 
REMARK    6  A    between atoms: C_5  and  S_17 
REMARK    7  A    between atoms: C_8  and  C_6 
REMARK    8  A    between atoms: C_6  and  N_10 
REMARK    9  A    between atoms: O_13  and  C_7 
REMARK   10  A    between atoms: O_15  and  C_8 
ROOT
HETATM    1  C   UNK N   1      21.262  18.817   4.660  0.00  0.00     0.075 C 
HETATM    2  C   UNK N   1      21.424  19.086   3.190  0.00  0.00     0.187 C 
HETATM    3  C   UNK N   1      22.176  17.661   4.751  0.00  0.00     0.169 C 
HETATM    4  N   UNK N   1      21.897  16.919   3.532  0.00  0.00    -0.287 N 
HETATM    5  O   UNK N   1      21.513  17.820   2.568  0.00  0.00    -0.276 OA
HETATM    6  H   UNK N   1      21.973  15.908   3.414  0.00  0.00     0.189 HD
ENDROOT
BRANCH   3   7
HETATM    7  S   UNK N   1      21.829  16.693   6.248  0.00  0.00    -0.139 SA
BRANCH   7   8
HETATM    8  C   UNK N   1      21.300  15.227   5.304  0.00  0.00     0.111 C 
BRANCH   8   9
HETATM    9  C   UNK N   1      19.917  14.775   5.740  0.00  0.00     0.182 C 
BRANCH   9  10
HETATM   10  C   UNK N   1      18.878  15.682   5.139  0.00  0.00     0.163 C 
HETATM   11  O   UNK N   1      17.847  15.936   5.743  0.00  0.00    -0.648 OA
BRANCH  10  12
HETATM   12  O   UNK N   1      19.092  16.231   3.929  0.00  0.00    -0.775 OA
HETATM   13  H   UNK N   1      19.129  17.162   3.824  0.00  0.00     0.167 HD
ENDBRANCH  10  12
ENDBRANCH   9  10
BRANCH   9  14
HETATM   14  N   UNK N   1      19.705  13.396   5.323  0.00  0.00    -0.417 N 
HETATM   15  H   UNK N   1      18.884  12.883   5.641  0.00  0.00     0.150 HD
HETATM   16  H   UNK N   1      20.382  12.942   4.710  0.00  0.00     0.150 HD
ENDBRANCH   9  14
ENDBRANCH   8   9
ENDBRANCH   7   8
ENDBRANCH   3   7
BRANCH   2  17
HETATM   17  C   UNK N   1      20.266  19.919   2.612  0.00  0.00     0.205 C 
BRANCH  17  18
HETATM   18  C   UNK N   1      20.570  20.482   1.241  0.00  0.00     0.165 C 
HETATM   19  O   UNK N   1      20.775  21.680   1.113  0.00  0.00    -0.648 OA
BRANCH  18  20
HETATM   20  O   UNK N   1      20.626  19.685   0.156  0.00  0.00    -0.775 OA
HETATM   21  H   UNK N   1      20.559  18.758   0.039  0.00  0.00     0.167 HD
ENDBRANCH  18  20
ENDBRANCH  17  18
BRANCH  17  22
HETATM   22  N   UNK N   1      19.082  19.077   2.520  0.00  0.00    -0.416 N 
HETATM   23  H   UNK N   1      18.296  19.158   3.165  0.00  0.00     0.150 HD
HETATM   24  H   UNK N   1      19.037  18.377   1.781  0.00  0.00     0.150 HD
ENDBRANCH  17  22
ENDBRANCH   2  17
TORSDOF 10
ENDMDL
MODEL 4
REMARK VINA RESULT:      -5.5     15.569     17.381
REMARK  10 active torsions:
REMARK  status: ('A' for Active; 'I' for Inactive)
REMARK    1  A    between atoms: C_3  and  C_2 
REMARK    2  A    between atoms: S_17  and  C_2 
REMARK    3  A    between atoms: C_7  and  C_3 
REMARK    4  A    between atoms: C_3  and  N_9 
REMARK    5  A    between atoms: C_4  and  C_6 
REMARK    6  A    between atoms: C_5  and  S_17 
REMARK    7  A    between atoms: C_8  and  C_6 
REMARK    8  A    between atoms: C_6  and  N_10 
REMARK    9  A    between atoms: O_13  and  C_7 
REMARK   10  A    between atoms: O_15  and  C_8 
ROOT
HETATM    1  C   UNK N   1      19.777  17.088   3.799  0.00  0.00     0.075 C 
HETATM    2  C   UNK N   1      20.568  18.355   3.632  0.00  0.00     0.187 C 
HETATM    3  C   UNK N   1      20.910  16.184   4.080  0.00  0.00     0.169 C 
HETATM    4  N   UNK N   1      21.938  16.641   3.160  0.00  0.00    -0.287 N 
HETATM    5  O   UNK N   1      21.757  17.989   2.962  0.00  0.00    -0.276 OA
HETATM    6  H   UNK N   1      22.665  16.064   2.737  0.00  0.00     0.189 HD
ENDROOT
BRANCH   3   7
HETATM    7  S   UNK N   1      20.432  14.456   3.784  0.00  0.00    -0.139 SA
BRANCH   7   8
HETATM    8  C   UNK N   1      20.770  14.561   1.997  0.00  0.00     0.111 C 
BRANCH   8   9
HETATM    9  C   UNK N   1      19.474  14.571   1.203  0.00  0.00     0.182 C 
BRANCH   9  10
HETATM   10  C   UNK N   1      19.389  15.837   0.396  0.00  0.00     0.163 C 
HETATM   11  O   UNK N   1      20.328  16.617   0.357  0.00  0.00    -0.648 OA
BRANCH  10  12
HETATM   12  O   UNK N   1      18.270  16.109  -0.302  0.00  0.00    -0.775 OA
HETATM   13  H   UNK N   1      17.426  15.881   0.036  0.00  0.00     0.167 HD
ENDBRANCH  10  12
ENDBRANCH   9  10
BRANCH   9  14
HETATM   14  N   UNK N   1      19.427  13.400   0.339  0.00  0.00    -0.417 N 
HETATM   15  H   UNK N   1      18.550  12.900   0.198  0.00  0.00     0.150 HD
HETATM   16  H   UNK N   1      20.276  13.079  -0.128  0.00  0.00     0.150 HD
ENDBRANCH   9  14
ENDBRANCH   8   9
ENDBRANCH   7   8
ENDBRANCH   3   7
BRANCH   2  17
HETATM   17  C   UNK N   1      19.793  19.437   2.859  0.00  0.00     0.205 C 
BRANCH  17  18
HETATM   18  C   UNK N   1      20.618  20.090   1.771  0.00  0.00     0.165 C 
HETATM   19  O   UNK N   1      21.247  21.108   2.020  0.00  0.00    -0.648 OA
BRANCH  18  20
HETATM   20  O   UNK N   1      20.677  19.567   0.531  0.00  0.00    -0.775 OA
HETATM   21  H   UNK N   1      20.712  19.949  -0.323  0.00  0.00     0.167 HD
ENDBRANCH  18  20
ENDBRANCH  17  18
BRANCH  17  22
HETATM   22  N   UNK N   1      18.617  18.831   2.255  0.00  0.00    -0.416 N 
HETATM   23  H   UNK N   1      18.155  18.010   2.647  0.00  0.00     0.150 HD
HETATM   24  H   UNK N   1      18.237  19.243   1.403  0.00  0.00     0.150 HD
ENDBRANCH  17  22
ENDBRANCH   2  17
TORSDOF 10
ENDMDL
MODEL 5
REMARK VINA RESULT:      -5.5      2.754      3.335
REMARK  10 active torsions:
REMARK  status: ('A' for Active; 'I' for Inactive)
REMARK    1  A    between atoms: C_3  and  C_2 
REMARK    2  A    between atoms: S_17  and  C_2 
REMARK    3  A    between atoms: C_7  and  C_3 
REMARK    4  A    between atoms: C_3  and  N_9 
REMARK    5  A    between atoms: C_4  and  C_6 
REMARK    6  A    between atoms: C_5  and  S_17 
REMARK    7  A    between atoms: C_8  and  C_6 
REMARK    8  A    between atoms: C_6  and  N_10 
REMARK    9  A    between atoms: O_13  and  C_7 
REMARK   10  A    between atoms: O_15  and  C_8 
ROOT
HETATM    1  C   UNK N   1      34.340  15.296  10.671  0.00  0.00     0.075 C 
HETATM    2  C   UNK N   1      34.684  16.608  10.025  0.00  0.00     0.187 C 
HETATM    3  C   UNK N   1      35.281  15.382  11.806  0.00  0.00     0.169 C 
HETATM    4  N   UNK N   1      36.476  15.952  11.207  0.00  0.00    -0.287 N 
HETATM    5  O   UNK N   1      36.082  16.761  10.167  0.00  0.00    -0.276 OA
HETATM    6  H   UNK N   1      37.437  15.781  11.504  0.00  0.00     0.189 HD
ENDROOT
BRANCH   3   7
HETATM    7  S   UNK N   1      35.575  13.735  12.513  0.00  0.00    -0.139 SA
BRANCH   7   8
HETATM    8  C   UNK N   1      35.748  12.950  10.877  0.00  0.00     0.111 C 
BRANCH   8   9
HETATM    9  C   UNK N   1      37.174  12.475  10.655  0.00  0.00     0.182 C 
BRANCH   9  10
HETATM   10  C   UNK N   1      37.696  13.038   9.362  0.00  0.00     0.163 C 
HETATM   11  O   UNK N   1      38.497  12.410   8.685  0.00  0.00    -0.648 OA
BRANCH  10  12
HETATM   12  O   UNK N   1      37.268  14.242   8.938  0.00  0.00    -0.775 OA
HETATM   13  H   UNK N   1      37.876  14.934   8.766  0.00  0.00     0.167 HD
ENDBRANCH  10  12
ENDBRANCH   9  10
BRANCH   9  14
HETATM   14  N   UNK N   1      38.003  12.894  11.776  0.00  0.00    -0.417 N 
HETATM   15  H   UNK N   1      38.949  13.238  11.616  0.00  0.00     0.150 HD
HETATM   16  H   UNK N   1      37.636  12.843  12.726  0.00  0.00     0.150 HD
ENDBRANCH   9  14
ENDBRANCH   8   9
ENDBRANCH   7   8
ENDBRANCH   3   7
BRANCH   2  17
HETATM   17  C   UNK N   1      34.257  16.669   8.547  0.00  0.00     0.205 C 
BRANCH  17  18
HETATM   18  C   UNK N   1      34.591  17.990   7.889  0.00  0.00     0.165 C 
HETATM   19  O   UNK N   1      34.313  18.165   6.712  0.00  0.00    -0.648 OA
BRANCH  18  20
HETATM   20  O   UNK N   1      35.185  18.983   8.580  0.00  0.00    -0.775 OA
HETATM   21  H   UNK N   1      34.885  19.814   8.890  0.00  0.00     0.167 HD
ENDBRANCH  18  20
ENDBRANCH  17  18
BRANCH  17  22
HETATM   22  N   UNK N   1      34.928  15.601   7.821  0.00  0.00    -0.416 N 
HETATM   23  H   UNK N   1      35.504  15.772   6.997  0.00  0.00     0.150 HD
HETATM   24  H   UNK N   1      34.817  14.642   8.149  0.00  0.00     0.150 HD
ENDBRANCH  17  22
ENDBRANCH   2  17
TORSDOF 10
ENDMDL
MODEL 6
REMARK VINA RESULT:      -5.5      3.295      4.405
REMARK  10 active torsions:
REMARK  status: ('A' for Active; 'I' for Inactive)
REMARK    1  A    between atoms: C_3  and  C_2 
REMARK    2  A    between atoms: S_17  and  C_2 
REMARK    3  A    between atoms: C_7  and  C_3 
REMARK    4  A    between atoms: C_3  and  N_9 
REMARK    5  A    between atoms: C_4  and  C_6 
REMARK    6  A    between atoms: C_5  and  S_17 
REMARK    7  A    between atoms: C_8  and  C_6 
REMARK    8  A    between atoms: C_6  and  N_10 
REMARK    9  A    between atoms: O_13  and  C_7 
REMARK   10  A    between atoms: O_15  and  C_8 
ROOT
HETATM    1  C   UNK N   1      32.029  18.191   8.270  0.00  0.00     0.075 C 
HETATM    2  C   UNK N   1      30.723  17.449   8.253  0.00  0.00     0.187 C 
HETATM    3  C   UNK N   1      32.924  17.017   8.237  0.00  0.00     0.169 C 
HETATM    4  N   UNK N   1      32.267  16.071   9.124  0.00  0.00    -0.287 N 
HETATM    5  O   UNK N   1      30.913  16.302   9.058  0.00  0.00    -0.276 OA
HETATM    6  H   UNK N   1      32.728  15.362   9.694  0.00  0.00     0.189 HD
ENDROOT
BRANCH   3   7
HETATM    7  S   UNK N   1      34.586  17.469   8.814  0.00  0.00    -0.139 SA
BRANCH   7   8
HETATM    8  C   UNK N   1      34.994  15.762   9.301  0.00  0.00     0.111 C 
BRANCH   8   9
HETATM    9  C   UNK N   1      35.585  15.727  10.701  0.00  0.00     0.182 C 
BRANCH   9  10
HETATM   10  C   UNK N   1      34.715  14.886  11.593  0.00  0.00     0.163 C 
HETATM   11  O   UNK N   1      35.178  14.342  12.585  0.00  0.00    -0.648 OA
BRANCH  10  12
HETATM   12  O   UNK N   1      33.408  14.740  11.306  0.00  0.00    -0.775 OA
HETATM   13  H   UNK N   1      33.032  13.888  11.203  0.00  0.00     0.167 HD
ENDBRANCH  10  12
ENDBRANCH   9  10
BRANCH   9  14
HETATM   14  N   UNK N   1      36.938  15.192  10.641  0.00  0.00    -0.417 N 
HETATM   15  H   UNK N   1      37.223  14.599   9.862  0.00  0.00     0.150 HD
HETATM   16  H   UNK N   1      37.604  15.412  11.382  0.00  0.00     0.150 HD
ENDBRANCH   9  14
ENDBRANCH   8   9
ENDBRANCH   7   8
ENDBRANCH   3   7
BRANCH   2  17
HETATM   17  C   UNK N   1      29.550  18.306   8.760  0.00  0.00     0.205 C 
BRANCH  17  18
HETATM   18  C   UNK N   1      28.217  17.595   8.673  0.00  0.00     0.165 C 
HETATM   19  O   UNK N   1      27.727  17.106   9.680  0.00  0.00    -0.648 OA
BRANCH  18  20
HETATM   20  O   UNK N   1      27.555  17.495   7.504  0.00  0.00    -0.775 OA
HETATM   21  H   UNK N   1      26.732  17.829   7.205  0.00  0.00     0.167 HD
ENDBRANCH  18  20
ENDBRANCH  17  18
BRANCH  17  22
HETATM   22  N   UNK N   1      29.797  18.668  10.147  0.00  0.00    -0.416 N 
HETATM   23  H   UNK N   1      30.652  18.410  10.641  0.00  0.00     0.150 HD
HETATM   24  H   UNK N   1      29.087  19.202  10.648  0.00  0.00     0.150 HD
ENDBRANCH  17  22
ENDBRANCH   2  17
TORSDOF 10
ENDMDL
MODEL 7
REMARK VINA RESULT:      -5.4     14.339     16.450
REMARK  10 active torsions:
REMARK  status: ('A' for Active; 'I' for Inactive)
REMARK    1  A    between atoms: C_3  and  C_2 
REMARK    2  A    between atoms: S_17  and  C_2 
REMARK    3  A    between atoms: C_7  and  C_3 
REMARK    4  A    between atoms: C_3  and  N_9 
REMARK    5  A    between atoms: C_4  and  C_6 
REMARK    6  A    between atoms: C_5  and  S_17 
REMARK    7  A    between atoms: C_8  and  C_6 
REMARK    8  A    between atoms: C_6  and  N_10 
REMARK    9  A    between atoms: O_13  and  C_7 
REMARK   10  A    between atoms: O_15  and  C_8 
ROOT
HETATM    1  C   UNK N   1      20.927  16.168   5.947  0.00  0.00     0.075 C 
HETATM    2  C   UNK N   1      20.939  16.567   7.396  0.00  0.00     0.187 C 
HETATM    3  C   UNK N   1      21.797  17.247   5.438  0.00  0.00     0.169 C 
HETATM    4  N   UNK N   1      21.358  18.412   6.188  0.00  0.00    -0.287 N 
HETATM    5  O   UNK N   1      20.909  17.980   7.414  0.00  0.00    -0.276 OA
HETATM    6  H   UNK N   1      21.379  19.378   5.863  0.00  0.00     0.189 HD
ENDROOT
BRANCH   3   7
HETATM    7  S   UNK N   1      21.575  17.450   3.647  0.00  0.00    -0.139 SA
BRANCH   7   8
HETATM    8  C   UNK N   1      20.971  19.161   3.811  0.00  0.00     0.111 C 
BRANCH   8   9
HETATM    9  C   UNK N   1      20.288  19.616   2.532  0.00  0.00     0.182 C 
BRANCH   9  10
HETATM   10  C   UNK N   1      21.123  20.675   1.866  0.00  0.00     0.163 C 
HETATM   11  O   UNK N   1      21.314  20.652   0.658  0.00  0.00    -0.648 OA
BRANCH  10  12
HETATM   12  O   UNK N   1      21.657  21.666   2.603  0.00  0.00    -0.775 OA
HETATM   13  H   UNK N   1      22.578  21.692   2.777  0.00  0.00     0.167 HD
ENDBRANCH  10  12
ENDBRANCH   9  10
BRANCH   9  14
HETATM   14  N   UNK N   1      20.100  18.473   1.651  0.00  0.00    -0.417 N 
HETATM   15  H   UNK N   1      19.830  18.612   0.677  0.00  0.00     0.150 HD
HETATM   16  H   UNK N   1      20.238  17.528   2.009  0.00  0.00     0.150 HD
ENDBRANCH   9  14
ENDBRANCH   8   9
ENDBRANCH   7   8
ENDBRANCH   3   7
BRANCH   2  17
HETATM   17  C   UNK N   1      19.759  15.968   8.183  0.00  0.00     0.205 C 
BRANCH  17  18
HETATM   18  C   UNK N   1      20.190  14.915   9.181  0.00  0.00     0.165 C 
HETATM   19  O   UNK N   1      19.343  14.258   9.768  0.00  0.00    -0.648 OA
BRANCH  18  20
HETATM   20  O   UNK N   1      21.493  14.683   9.432  0.00  0.00    -0.775 OA
HETATM   21  H   UNK N   1      21.956  14.401  10.196  0.00  0.00     0.167 HD
ENDBRANCH  18  20
ENDBRANCH  17  18
BRANCH  17  22
HETATM   22  N   UNK N   1      19.077  17.038   8.895  0.00  0.00    -0.416 N 
HETATM   23  H   UNK N   1      18.208  16.893   9.408  0.00  0.00     0.150 HD
HETATM   24  H   UNK N   1      19.486  17.972   8.881  0.00  0.00     0.150 HD
ENDBRANCH  17  22
ENDBRANCH   2  17
TORSDOF 10
ENDMDL
MODEL 8
REMARK VINA RESULT:      -5.4      4.401      7.171
REMARK  10 active torsions:
REMARK  status: ('A' for Active; 'I' for Inactive)
REMARK    1  A    between atoms: C_3  and  C_2 
REMARK    2  A    between atoms: S_17  and  C_2 
REMARK    3  A    between atoms: C_7  and  C_3 
REMARK    4  A    between atoms: C_3  and  N_9 
REMARK    5  A    between atoms: C_4  and  C_6 
REMARK    6  A    between atoms: C_5  and  S_17 
REMARK    7  A    between atoms: C_8  and  C_6 
REMARK    8  A    between atoms: C_6  and  N_10 
REMARK    9  A    between atoms: O_13  and  C_7 
REMARK   10  A    between atoms: O_15  and  C_8 
ROOT
HETATM    1  C   UNK N   1      32.006  17.441   8.535  0.00  0.00     0.075 C 
HETATM    2  C   UNK N   1      33.015  16.362   8.815  0.00  0.00     0.187 C 
HETATM    3  C   UNK N   1      30.899  16.568   8.097  0.00  0.00     0.169 C 
HETATM    4  N   UNK N   1      31.569  15.553   7.300  0.00  0.00    -0.287 N 
HETATM    5  O   UNK N   1      32.837  15.388   7.807  0.00  0.00    -0.276 OA
HETATM    6  H   UNK N   1      31.170  15.053   6.506  0.00  0.00     0.189 HD
ENDROOT
BRANCH   3   7
HETATM    7  S   UNK N   1      29.684  17.516   7.135  0.00  0.00    -0.139 SA
BRANCH   7   8
HETATM    8  C   UNK N   1      29.965  16.539   5.623  0.00  0.00     0.111 C 
BRANCH   8   9
HETATM    9  C   UNK N   1      30.372  17.438   4.468  0.00  0.00     0.182 C 
BRANCH   9  10
HETATM   10  C   UNK N   1      31.791  17.135   4.071  0.00  0.00     0.163 C 
HETATM   11  O   UNK N   1      32.124  17.135   2.895  0.00  0.00    -0.648 OA
BRANCH  10  12
HETATM   12  O   UNK N   1      32.708  16.874   5.021  0.00  0.00    -0.775 OA
HETATM   13  H   UNK N   1      33.502  16.422   4.810  0.00  0.00     0.167 HD
ENDBRANCH  10  12
ENDBRANCH   9  10
BRANCH   9  14
HETATM   14  N   UNK N   1      29.464  17.229   3.349  0.00  0.00    -0.417 N 
HETATM   15  H   UNK N   1      29.565  17.777   2.495  0.00  0.00     0.150 HD
HETATM   16  H   UNK N   1      28.723  16.531   3.420  0.00  0.00     0.150 HD
ENDBRANCH   9  14
ENDBRANCH   8   9
ENDBRANCH   7   8
ENDBRANCH   3   7
BRANCH   2  17
HETATM   17  C   UNK N   1      34.458  16.895   8.837  0.00  0.00     0.205 C 
BRANCH  17  18
HETATM   18  C   UNK N   1      34.650  18.118   7.966  0.00  0.00     0.165 C 
HETATM   19  O   UNK N   1      34.462  18.035   6.761  0.00  0.00    -0.648 OA
BRANCH  18  20
HETATM   20  O   UNK N   1      35.018  19.301   8.495  0.00  0.00    -0.775 OA
HETATM   21  H   UNK N   1      34.705  19.801   9.222  0.00  0.00     0.167 HD
ENDBRANCH  18  20
ENDBRANCH  17  18
BRANCH  17  22
HETATM   22  N   UNK N   1      34.813  17.236  10.206  0.00  0.00    -0.416 N 
HETATM   23  H   UNK N   1      35.694  16.954  10.635  0.00  0.00     0.150 HD
HETATM   24  H   UNK N   1      34.152  17.780  10.761  0.00  0.00     0.150 HD
ENDBRANCH  17  22
ENDBRANCH   2  17
TORSDOF 10
ENDMDL
MODEL 9
REMARK VINA RESULT:      -5.4      1.777      2.064
REMARK  10 active torsions:
REMARK  status: ('A' for Active; 'I' for Inactive)
REMARK    1  A    between atoms: C_3  and  C_2 
REMARK    2  A    between atoms: S_17  and  C_2 
REMARK    3  A    between atoms: C_7  and  C_3 
REMARK    4  A    between atoms: C_3  and  N_9 
REMARK    5  A    between atoms: C_4  and  C_6 
REMARK    6  A    between atoms: C_5  and  S_17 
REMARK    7  A    between atoms: C_8  and  C_6 
REMARK    8  A    between atoms: C_6  and  N_10 
REMARK    9  A    between atoms: O_13  and  C_7 
REMARK   10  A    between atoms: O_15  and  C_8 
ROOT
HETATM    1  C   UNK N   1      34.783  14.401   8.621  0.00  0.00     0.075 C 
HETATM    2  C   UNK N   1      34.050  15.712   8.547  0.00  0.00     0.187 C 
HETATM    3  C   UNK N   1      33.602  13.514   8.614  0.00  0.00     0.169 C 
HETATM    4  N   UNK N   1      32.654  14.213   9.466  0.00  0.00    -0.287 N 
HETATM    5  O   UNK N   1      32.896  15.562   9.349  0.00  0.00    -0.276 OA
HETATM    6  H   UNK N   1      31.937  13.780  10.047  0.00  0.00     0.189 HD
ENDROOT
BRANCH   3   7
HETATM    7  S   UNK N   1      34.037  11.873   9.259  0.00  0.00    -0.139 SA
BRANCH   7   8
HETATM    8  C   UNK N   1      35.475  12.503  10.183  0.00  0.00     0.111 C 
BRANCH   8   9
HETATM    9  C   UNK N   1      35.320  12.232  11.670  0.00  0.00     0.182 C 
BRANCH   9  10
HETATM   10  C   UNK N   1      35.179  13.536  12.407  0.00  0.00     0.163 C 
HETATM   11  O   UNK N   1      34.418  14.402  12.003  0.00  0.00    -0.648 OA
BRANCH  10  12
HETATM   12  O   UNK N   1      35.889  13.747  13.531  0.00  0.00    -0.775 OA
HETATM   13  H   UNK N   1      36.780  14.034  13.489  0.00  0.00     0.167 HD
ENDBRANCH  10  12
ENDBRANCH   9  10
BRANCH   9  14
HETATM   14  N   UNK N   1      34.157  11.384  11.889  0.00  0.00    -0.417 N 
HETATM   15  H   UNK N   1      34.066  10.498  11.393  0.00  0.00     0.150 HD
HETATM   16  H   UNK N   1      33.430  11.678  12.542  0.00  0.00     0.150 HD
ENDBRANCH   9  14
ENDBRANCH   8   9
ENDBRANCH   7   8
ENDBRANCH   3   7
BRANCH   2  17
HETATM   17  C   UNK N   1      34.913  16.897   9.015  0.00  0.00     0.205 C 
BRANCH  17  18
HETATM   18  C   UNK N   1      34.486  18.215   8.406  0.00  0.00     0.165 C 
HETATM   19  O   UNK N   1      35.244  19.173   8.447  0.00  0.00    -0.648 OA
BRANCH  18  20
HETATM   20  O   UNK N   1      33.285  18.352   7.811  0.00  0.00    -0.775 OA
HETATM   21  H   UNK N   1      32.697  19.075   7.717  0.00  0.00     0.167 HD
ENDBRANCH  18  20
ENDBRANCH  17  18
BRANCH  17  22
HETATM   22  N   UNK N   1      34.824  17.000  10.463  0.00  0.00    -0.416 N 
HETATM   23  H   UNK N   1      35.391  16.432  11.093  0.00  0.00     0.150 HD
HETATM   24  H   UNK N   1      34.167  17.668  10.867  0.00  0.00     0.150 HD
ENDBRANCH  17  22
ENDBRANCH   2  17
TORSDOF 10
ENDMDL
