MODEL 1
REMARK VINA RESULT:      -4.9      0.000      0.000
REMARK  7 active torsions:
REMARK  status: ('A' for Active; 'I' for Inactive)
REMARK    1  A    between atoms: O_1  and  C_2 
REMARK    2  A    between atoms: C_3  and  C_2 
REMARK    3  A    between atoms: C_5  and  O_6 
REMARK    4  A    between atoms: C_5  and  C_7 
REMARK    5  A    between atoms: C_7  and  O_8 
REMARK    6  A    between atoms: C_9  and  O_10 
REMARK    7  A    between atoms: C_11  and  O_12 
ROOT
HETATM    1  C   UNK N   1      19.992  18.309   3.295  0.00  0.00     0.180 C 
HETATM    2  O   UNK N   1      20.761  19.360   3.846  0.00  0.00    -0.341 OA
HETATM    3  C   UNK N   1      21.110  20.208   2.762  0.00  0.00     0.213 C 
HETATM    4  C   UNK N   1      20.297  19.718   1.570  0.00  0.00     0.213 C 
HETATM    5  C   UNK N   1      20.288  18.256   1.815  0.00  0.00     0.183 C 
ENDROOT
BRANCH   3   6
HETATM    6  O   UNK N   1      20.755  21.522   3.059  0.00  0.00    -0.362 OA
HETATM    7  H   UNK N   1      21.111  22.419   3.162  0.00  0.00     0.213 HD
ENDBRANCH   3   6
BRANCH   3   8
HETATM    8  C   UNK N   1      22.627  20.115   2.551  0.00  0.00     0.235 C 
BRANCH   8   9
HETATM    9  O   UNK N   1      23.261  21.302   2.931  0.00  0.00    -0.395 OA
HETATM   10  H   UNK N   1      22.873  21.876   3.610  0.00  0.00     0.209 HD
ENDBRANCH   8   9
ENDBRANCH   3   8
BRANCH   4  11
HETATM   11  O   UNK N   1      20.839  20.060   0.327  0.00  0.00    -0.387 OA
HETATM   12  H   UNK N   1      20.480  20.798  -0.190  0.00  0.00     0.210 HD
ENDBRANCH   4  11
BRANCH   1  13
HETATM   13  C   UNK N   1      20.295  16.985   3.980  0.00  0.00     0.198 C 
BRANCH  13  14
HETATM   14  O   UNK N   1      19.310  16.047   3.663  0.00  0.00    -0.398 OA
HETATM   15  H   UNK N   1      19.513  15.099   3.663  0.00  0.00     0.209 HD
ENDBRANCH  13  14
ENDBRANCH   1  13
BRANCH   5  16
HETATM   16  O   UNK N   1      19.257  17.634   1.111  0.00  0.00    -0.390 OA
HETATM   17  H   UNK N   1      18.459  17.283   1.536  0.00  0.00     0.210 HD
ENDBRANCH   5  16
TORSDOF 7
ENDMDL
MODEL 2
REMARK VINA RESULT:      -4.7     14.429     15.877
REMARK  7 active torsions:
REMARK  status: ('A' for Active; 'I' for Inactive)
REMARK    1  A    between atoms: O_1  and  C_2 
REMARK    2  A    between atoms: C_3  and  C_2 
REMARK    3  A    between atoms: C_5  and  O_6 
REMARK    4  A    between atoms: C_5  and  C_7 
REMARK    5  A    between atoms: C_7  and  O_8 
REMARK    6  A    between atoms: C_9  and  O_10 
REMARK    7  A    between atoms: C_11  and  O_12 
ROOT
HETATM    1  C   UNK N   1      34.073  17.208   9.246  0.00  0.00     0.180 C 
HETATM    2  O   UNK N   1      32.893  16.493   8.938  0.00  0.00    -0.341 OA
HETATM    3  C   UNK N   1      32.990  15.251   9.620  0.00  0.00     0.213 C 
HETATM    4  C   UNK N   1      34.196  15.376  10.543  0.00  0.00     0.213 C 
HETATM    5  C   UNK N   1      35.102  16.207   9.716  0.00  0.00     0.183 C 
ENDROOT
BRANCH   3   6
HETATM    6  O   UNK N   1      31.841  15.041  10.380  0.00  0.00    -0.362 OA
HETATM    7  H   UNK N   1      30.899  14.818  10.318  0.00  0.00     0.213 HD
ENDBRANCH   3   6
BRANCH   3   8
HETATM    8  C   UNK N   1      33.131  14.140   8.572  0.00  0.00     0.235 C 
BRANCH   8   9
HETATM    9  O   UNK N   1      32.609  12.932   9.047  0.00  0.00    -0.395 OA
HETATM   10  H   UNK N   1      32.559  12.154   8.470  0.00  0.00     0.209 HD
ENDBRANCH   8   9
ENDBRANCH   3   8
BRANCH   4  11
HETATM   11  O   UNK N   1      34.763  14.152  10.913  0.00  0.00    -0.387 OA
HETATM   12  H   UNK N   1      35.705  14.083  11.134  0.00  0.00     0.210 HD
ENDBRANCH   4  11
BRANCH   1  13
HETATM   13  C   UNK N   1      34.565  18.005   8.048  0.00  0.00     0.198 C 
BRANCH  13  14
HETATM   14  O   UNK N   1      35.279  19.125   8.480  0.00  0.00    -0.398 OA
HETATM   15  H   UNK N   1      36.210  19.241   8.235  0.00  0.00     0.209 HD
ENDBRANCH  13  14
ENDBRANCH   1  13
BRANCH   5  16
HETATM   16  O   UNK N   1      36.084  16.814  10.498  0.00  0.00    -0.390 OA
HETATM   17  H   UNK N   1      36.692  16.317  11.067  0.00  0.00     0.210 HD
ENDBRANCH   5  16
TORSDOF 7
ENDMDL
MODEL 3
REMARK VINA RESULT:      -4.7      1.361      4.065
REMARK  7 active torsions:
REMARK  status: ('A' for Active; 'I' for Inactive)
REMARK    1  A    between atoms: O_1  and  C_2 
REMARK    2  A    between atoms: C_3  and  C_2 
REMARK    3  A    between atoms: C_5  and  O_6 
REMARK    4  A    between atoms: C_5  and  C_7 
REMARK    5  A    between atoms: C_7  and  O_8 
REMARK    6  A    between atoms: C_9  and  O_10 
REMARK    7  A    between atoms: C_11  and  O_12 
ROOT
HETATM    1  C   UNK N   1      20.461  20.177   2.367  0.00  0.00     0.180 C 
HETATM    2  O   UNK N   1      19.476  19.201   2.095  0.00  0.00    -0.341 OA
HETATM    3  C   UNK N   1      19.959  17.983   2.644  0.00  0.00     0.213 C 
HETATM    4  C   UNK N   1      21.185  18.355   3.468  0.00  0.00     0.213 C 
HETATM    5  C   UNK N   1      21.755  19.451   2.648  0.00  0.00     0.183 C 
ENDROOT
BRANCH   3   6
HETATM    6  O   UNK N   1      18.991  17.426   3.477  0.00  0.00    -0.362 OA
HETATM    7  H   UNK N   1      18.034  17.364   3.623  0.00  0.00     0.213 HD
ENDBRANCH   3   6
BRANCH   3   8
HETATM    8  C   UNK N   1      20.263  17.024   1.487  0.00  0.00     0.235 C 
BRANCH   8   9
HETATM    9  O   UNK N   1      19.896  17.584   0.259  0.00  0.00    -0.395 OA
HETATM   10  H   UNK N   1      20.014  18.532   0.092  0.00  0.00     0.209 HD
ENDBRANCH   8   9
ENDBRANCH   3   8
BRANCH   4  11
HETATM   11  O   UNK N   1      22.082  17.301   3.668  0.00  0.00    -0.387 OA
HETATM   12  H   UNK N   1      21.859  16.395   3.400  0.00  0.00     0.210 HD
ENDBRANCH   4  11
BRANCH   1  13
HETATM   13  C   UNK N   1      20.601  21.157   1.213  0.00  0.00     0.198 C 
BRANCH  13  14
HETATM   14  O   UNK N   1      20.599  20.468  -0.002  0.00  0.00    -0.398 OA
HETATM   15  H   UNK N   1      20.300  20.903  -0.816  0.00  0.00     0.209 HD
ENDBRANCH  13  14
ENDBRANCH   1  13
BRANCH   5  16
HETATM   16  O   UNK N   1      22.630  20.238   3.397  0.00  0.00    -0.390 OA
HETATM   17  H   UNK N   1      22.352  20.749   4.174  0.00  0.00     0.210 HD
ENDBRANCH   5  16
TORSDOF 7
ENDMDL
MODEL 4
REMARK VINA RESULT:      -4.7     13.999     15.878
REMARK  7 active torsions:
REMARK  status: ('A' for Active; 'I' for Inactive)
REMARK    1  A    between atoms: O_1  and  C_2 
REMARK    2  A    between atoms: C_3  and  C_2 
REMARK    3  A    between atoms: C_5  and  O_6 
REMARK    4  A    between atoms: C_5  and  C_7 
REMARK    5  A    between atoms: C_7  and  O_8 
REMARK    6  A    between atoms: C_9  and  O_10 
REMARK    7  A    between atoms: C_11  and  O_12 
ROOT
HETATM    1  C   UNK N   1      33.405  17.295   8.606  0.00  0.00     0.180 C 
HETATM    2  O   UNK N   1      32.989  16.004   9.003  0.00  0.00    -0.341 OA
HETATM    3  C   UNK N   1      33.990  15.517   9.885  0.00  0.00     0.213 C 
HETATM    4  C   UNK N   1      34.905  16.701  10.171  0.00  0.00     0.213 C 
HETATM    5  C   UNK N   1      34.890  17.394   8.861  0.00  0.00     0.183 C 
ENDROOT
BRANCH   3   6
HETATM    6  O   UNK N   1      33.401  15.086  11.072  0.00  0.00    -0.362 OA
HETATM    7  H   UNK N   1      33.575  14.599  11.893  0.00  0.00     0.213 HD
ENDBRANCH   3   6
BRANCH   3   8
HETATM    8  C   UNK N   1      34.700  14.342   9.201  0.00  0.00     0.235 C 
BRANCH   8   9
HETATM    9  O   UNK N   1      35.410  13.574  10.130  0.00  0.00    -0.395 OA
HETATM   10  H   UNK N   1      36.352  13.741  10.293  0.00  0.00     0.209 HD
ENDBRANCH   8   9
ENDBRANCH   3   8
BRANCH   4  11
HETATM   11  O   UNK N   1      36.192  16.343  10.585  0.00  0.00    -0.387 OA
HETATM   12  H   UNK N   1      36.948  16.933  10.438  0.00  0.00     0.210 HD
ENDBRANCH   4  11
BRANCH   1  13
HETATM   13  C   UNK N   1      33.062  17.563   7.149  0.00  0.00     0.198 C 
BRANCH  13  14
HETATM   14  O   UNK N   1      34.211  17.935   6.448  0.00  0.00    -0.398 OA
HETATM   15  H   UNK N   1      34.430  18.870   6.320  0.00  0.00     0.209 HD
ENDBRANCH  13  14
ENDBRANCH   1  13
BRANCH   5  16
HETATM   16  O   UNK N   1      35.299  18.722   8.989  0.00  0.00    -0.390 OA
HETATM   17  H   UNK N   1      34.686  19.452   9.161  0.00  0.00     0.210 HD
ENDBRANCH   5  16
TORSDOF 7
ENDMDL
MODEL 5
REMARK VINA RESULT:      -4.6      1.426      2.535
REMARK  7 active torsions:
REMARK  status: ('A' for Active; 'I' for Inactive)
REMARK    1  A    between atoms: O_1  and  C_2 
REMARK    2  A    between atoms: C_3  and  C_2 
REMARK    3  A    between atoms: C_5  and  O_6 
REMARK    4  A    between atoms: C_5  and  C_7 
REMARK    5  A    between atoms: C_7  and  O_8 
REMARK    6  A    between atoms: C_9  and  O_10 
REMARK    7  A    between atoms: C_11  and  O_12 
ROOT
HETATM    1  C   UNK N   1      20.028  18.556   2.153  0.00  0.00     0.180 C 
HETATM    2  O   UNK N   1      20.540  18.103   3.390  0.00  0.00    -0.341 OA
HETATM    3  C   UNK N   1      21.432  19.110   3.845  0.00  0.00     0.213 C 
HETATM    4  C   UNK N   1      21.233  20.297   2.911  0.00  0.00     0.213 C 
HETATM    5  C   UNK N   1      20.978  19.606   1.625  0.00  0.00     0.183 C 
ENDROOT
BRANCH   3   6
HETATM    6  O   UNK N   1      21.099  19.481   5.146  0.00  0.00    -0.362 OA
HETATM    7  H   UNK N   1      21.328  19.336   6.078  0.00  0.00     0.213 HD
ENDBRANCH   3   6
BRANCH   3   8
HETATM    8  C   UNK N   1      22.855  18.537   3.816  0.00  0.00     0.235 C 
BRANCH   8   9
HETATM    9  O   UNK N   1      23.682  19.196   4.731  0.00  0.00    -0.395 OA
HETATM   10  H   UNK N   1      23.394  20.021   5.153  0.00  0.00     0.209 HD
ENDBRANCH   8   9
ENDBRANCH   3   8
BRANCH   4  11
HETATM   11  O   UNK N   1      22.323  21.170   2.854  0.00  0.00    -0.387 OA
HETATM   12  H   UNK N   1      22.612  21.663   3.639  0.00  0.00     0.210 HD
ENDBRANCH   4  11
BRANCH   1  13
HETATM   13  C   UNK N   1      19.853  17.407   1.172  0.00  0.00     0.198 C 
BRANCH  13  14
HETATM   14  O   UNK N   1      20.328  17.777  -0.088  0.00  0.00    -0.398 OA
HETATM   15  H   UNK N   1      21.267  17.981  -0.221  0.00  0.00     0.209 HD
ENDBRANCH  13  14
ENDBRANCH   1  13
BRANCH   5  16
HETATM   16  O   UNK N   1      20.347  20.453   0.714  0.00  0.00    -0.390 OA
HETATM   17  H   UNK N   1      19.386  20.582   0.685  0.00  0.00     0.210 HD
ENDBRANCH   5  16
TORSDOF 7
ENDMDL
MODEL 6
REMARK VINA RESULT:      -4.6     13.082     14.680
REMARK  7 active torsions:
REMARK  status: ('A' for Active; 'I' for Inactive)
REMARK    1  A    between atoms: O_1  and  C_2 
REMARK    2  A    between atoms: C_3  and  C_2 
REMARK    3  A    between atoms: C_5  and  O_6 
REMARK    4  A    between atoms: C_5  and  C_7 
REMARK    5  A    between atoms: C_7  and  O_8 
REMARK    6  A    between atoms: C_9  and  O_10 
REMARK    7  A    between atoms: C_11  and  O_12 
ROOT
HETATM    1  C   UNK N   1      33.711  15.438   8.799  0.00  0.00     0.180 C 
HETATM    2  O   UNK N   1      33.578  15.244   7.406  0.00  0.00    -0.341 OA
HETATM    3  C   UNK N   1      34.088  16.419   6.790  0.00  0.00     0.213 C 
HETATM    4  C   UNK N   1      34.749  17.220   7.904  0.00  0.00     0.213 C 
HETATM    5  C   UNK N   1      33.846  16.923   9.041  0.00  0.00     0.183 C 
ENDROOT
BRANCH   3   6
HETATM    6  O   UNK N   1      35.042  16.073   5.835  0.00  0.00    -0.362 OA
HETATM    7  H   UNK N   1      35.976  15.837   5.720  0.00  0.00     0.213 HD
ENDBRANCH   3   6
BRANCH   3   8
HETATM    8  C   UNK N   1      32.920  17.150   6.116  0.00  0.00     0.235 C 
BRANCH   8   9
HETATM    9  O   UNK N   1      33.376  18.002   5.105  0.00  0.00    -0.395 OA
HETATM   10  H   UNK N   1      34.323  18.182   4.999  0.00  0.00     0.209 HD
ENDBRANCH   8   9
ENDBRANCH   3   8
BRANCH   4  11
HETATM   11  O   UNK N   1      34.859  18.588   7.637  0.00  0.00    -0.387 OA
HETATM   12  H   UNK N   1      35.080  19.220   8.340  0.00  0.00     0.210 HD
ENDBRANCH   4  11
BRANCH   1  13
HETATM   13  C   UNK N   1      32.530  14.848   9.554  0.00  0.00     0.198 C 
BRANCH  13  14
HETATM   14  O   UNK N   1      32.713  15.010  10.929  0.00  0.00    -0.398 OA
HETATM   15  H   UNK N   1      32.374  14.350  11.553  0.00  0.00     0.209 HD
ENDBRANCH  13  14
ENDBRANCH   1  13
BRANCH   5  16
HETATM   16  O   UNK N   1      34.469  17.187  10.261  0.00  0.00    -0.390 OA
HETATM   17  H   UNK N   1      35.334  17.620  10.334  0.00  0.00     0.210 HD
ENDBRANCH   5  16
TORSDOF 7
ENDMDL
MODEL 7
REMARK VINA RESULT:      -4.5     16.240     17.911
REMARK  7 active torsions:
REMARK  status: ('A' for Active; 'I' for Inactive)
REMARK    1  A    between atoms: O_1  and  C_2 
REMARK    2  A    between atoms: C_3  and  C_2 
REMARK    3  A    between atoms: C_5  and  O_6 
REMARK    4  A    between atoms: C_5  and  C_7 
REMARK    5  A    between atoms: C_7  and  O_8 
REMARK    6  A    between atoms: C_9  and  O_10 
REMARK    7  A    between atoms: C_11  and  O_12 
ROOT
HETATM    1  C   UNK N   1      34.859  15.742  10.907  0.00  0.00     0.180 C 
HETATM    2  O   UNK N   1      34.042  14.660  11.307  0.00  0.00    -0.341 OA
HETATM    3  C   UNK N   1      34.917  13.677  11.841  0.00  0.00     0.213 C 
HETATM    4  C   UNK N   1      36.281  14.346  11.948  0.00  0.00     0.213 C 
HETATM    5  C   UNK N   1      36.266  15.215  10.748  0.00  0.00     0.183 C 
ENDROOT
BRANCH   3   6
HETATM    6  O   UNK N   1      34.482  13.300  13.110  0.00  0.00    -0.362 OA
HETATM    7  H   UNK N   1      33.749  13.390  13.738  0.00  0.00     0.213 HD
ENDBRANCH   3   6
BRANCH   3   8
HETATM    8  C   UNK N   1      34.900  12.463  10.904  0.00  0.00     0.235 C 
BRANCH   8   9
HETATM    9  O   UNK N   1      33.746  12.453  10.113  0.00  0.00    -0.395 OA
HETATM   10  H   UNK N   1      33.420  11.628   9.722  0.00  0.00     0.209 HD
ENDBRANCH   8   9
ENDBRANCH   3   8
BRANCH   4  11
HETATM   11  O   UNK N   1      37.357  13.454  11.963  0.00  0.00    -0.387 OA
HETATM   12  H   UNK N   1      37.979  13.430  12.707  0.00  0.00     0.210 HD
ENDBRANCH   4  11
BRANCH   1  13
HETATM   13  C   UNK N   1      34.345  16.378   9.624  0.00  0.00     0.198 C 
BRANCH  13  14
HETATM   14  O   UNK N   1      34.996  17.592   9.399  0.00  0.00    -0.398 OA
HETATM   15  H   UNK N   1      34.802  18.117   8.607  0.00  0.00     0.209 HD
ENDBRANCH  13  14
ENDBRANCH   1  13
BRANCH   5  16
HETATM   16  O   UNK N   1      37.209  16.238  10.853  0.00  0.00    -0.390 OA
HETATM   17  H   UNK N   1      37.968  16.323  10.256  0.00  0.00     0.210 HD
ENDBRANCH   5  16
TORSDOF 7
ENDMDL
MODEL 8
REMARK VINA RESULT:      -4.5     12.105     13.937
REMARK  7 active torsions:
REMARK  status: ('A' for Active; 'I' for Inactive)
REMARK    1  A    between atoms: O_1  and  C_2 
REMARK    2  A    between atoms: C_3  and  C_2 
REMARK    3  A    between atoms: C_5  and  O_6 
REMARK    4  A    between atoms: C_5  and  C_7 
REMARK    5  A    between atoms: C_7  and  O_8 
REMARK    6  A    between atoms: C_9  and  O_10 
REMARK    7  A    between atoms: C_11  and  O_12 
ROOT
HETATM    1  C   UNK N   1      33.690  18.144   7.601  0.00  0.00     0.180 C 
HETATM    2  O   UNK N   1      34.214  17.962   6.301  0.00  0.00    -0.341 OA
HETATM    3  C   UNK N   1      33.282  17.146   5.606  0.00  0.00     0.213 C 
HETATM    4  C   UNK N   1      32.056  17.054   6.506  0.00  0.00     0.213 C 
HETATM    5  C   UNK N   1      32.689  17.039   7.846  0.00  0.00     0.183 C 
ENDROOT
BRANCH   3   6
HETATM    6  O   UNK N   1      32.930  17.753   4.402  0.00  0.00    -0.362 OA
HETATM    7  H   UNK N   1      32.395  18.465   4.018  0.00  0.00     0.213 HD
ENDBRANCH   3   6
BRANCH   3   8
HETATM    8  C   UNK N   1      33.945  15.791   5.331  0.00  0.00     0.235 C 
BRANCH   8   9
HETATM    9  O   UNK N   1      35.282  15.792   5.742  0.00  0.00    -0.395 OA
HETATM   10  H   UNK N   1      35.970  15.390   5.189  0.00  0.00     0.209 HD
ENDBRANCH   8   9
ENDBRANCH   3   8
BRANCH   4  11
HETATM   11  O   UNK N   1      31.254  15.933   6.269  0.00  0.00    -0.387 OA
HETATM   12  H   UNK N   1      30.302  16.024   6.105  0.00  0.00     0.210 HD
ENDBRANCH   4  11
BRANCH   1  13
HETATM   13  C   UNK N   1      34.794  18.149   8.646  0.00  0.00     0.198 C 
BRANCH  13  14
HETATM   14  O   UNK N   1      35.454  19.380   8.638  0.00  0.00    -0.398 OA
HETATM   15  H   UNK N   1      36.167  19.562   9.270  0.00  0.00     0.209 HD
ENDBRANCH  13  14
ENDBRANCH   1  13
BRANCH   5  16
HETATM   16  O   UNK N   1      31.774  17.391   8.839  0.00  0.00    -0.390 OA
HETATM   17  H   UNK N   1      31.475  18.301   8.988  0.00  0.00     0.210 HD
ENDBRANCH   5  16
TORSDOF 7
ENDMDL
MODEL 9
REMARK VINA RESULT:      -4.5     20.054     22.593
REMARK  7 active torsions:
REMARK  status: ('A' for Active; 'I' for Inactive)
REMARK    1  A    between atoms: O_1  and  C_2 
REMARK    2  A    between atoms: C_3  and  C_2 
REMARK    3  A    between atoms: C_5  and  O_6 
REMARK    4  A    between atoms: C_5  and  C_7 
REMARK    5  A    between atoms: C_7  and  O_8 
REMARK    6  A    between atoms: C_9  and  O_10 
REMARK    7  A    between atoms: C_11  and  O_12 
ROOT
HETATM    1  C   UNK N   1      44.153  21.825   2.701  0.00  0.00     0.180 C 
HETATM    2  O   UNK N   1      43.283  20.837   2.188  0.00  0.00    -0.341 OA
HETATM    3  C   UNK N   1      42.069  21.502   1.869  0.00  0.00     0.213 C 
HETATM    4  C   UNK N   1      42.361  22.991   2.004  0.00  0.00     0.213 C 
HETATM    5  C   UNK N   1      43.304  22.991   3.148  0.00  0.00     0.183 C 
ENDROOT
BRANCH   3   6
HETATM    6  O   UNK N   1      41.708  21.216   0.553  0.00  0.00    -0.362 OA
HETATM    7  H   UNK N   1      40.980  21.281  -0.084  0.00  0.00     0.213 HD
ENDBRANCH   3   6
BRANCH   3   8
HETATM    8  C   UNK N   1      40.982  20.999   2.826  0.00  0.00     0.235 C 
BRANCH   8   9
HETATM    9  O   UNK N   1      39.732  21.530   2.492  0.00  0.00    -0.395 OA
HETATM   10  H   UNK N   1      39.507  22.446   2.718  0.00  0.00     0.209 HD
ENDBRANCH   8   9
ENDBRANCH   3   8
BRANCH   4  11
HETATM   11  O   UNK N   1      41.228  23.778   2.230  0.00  0.00    -0.387 OA
HETATM   12  H   UNK N   1      40.999  24.084   3.122  0.00  0.00     0.210 HD
ENDBRANCH   4  11
BRANCH   1  13
HETATM   13  C   UNK N   1      45.003  21.276   3.837  0.00  0.00     0.198 C 
BRANCH  13  14
HETATM   14  O   UNK N   1      45.886  22.259   4.290  0.00  0.00    -0.398 OA
HETATM   15  H   UNK N   1      45.561  23.138   4.540  0.00  0.00     0.209 HD
ENDBRANCH  13  14
ENDBRANCH   1  13
BRANCH   5  16
HETATM   16  O   UNK N   1      44.043  24.173   3.192  0.00  0.00    -0.390 OA
HETATM   17  H   UNK N   1      44.977  24.207   3.449  0.00  0.00     0.210 HD
ENDBRANCH   5  16
TORSDOF 7
ENDMDL
