MODEL 1
REMARK VINA RESULT:      -5.0      0.000      0.000
REMARK  0 active torsions:
REMARK  status: ('A' for Active; 'I' for Inactive)
ROOT
HETATM    1  C   UNK N   1      20.237  13.061  10.400  0.00  0.00     0.001 A 
HETATM    2  C   UNK N   1      20.406  12.266  11.540  0.00  0.00     0.001 A 
HETATM    3  C   UNK N   1      21.689  11.895  11.955  0.00  0.00     0.013 A 
HETATM    4  C   UNK N   1      22.802  12.320  11.227  0.00  0.00    -0.011 A 
HETATM    5  C   UNK N   1      24.089  11.961  11.625  0.00  0.00     0.099 A 
HETATM    6  N   UNK N   1      25.164  12.383  10.906  0.00  0.00    -0.374 N 
ATOM      7  HN  UNK N   1      26.101  12.113  11.207  1.00  0.00     0.164 HD
HETATM    8  C   UNK N   1      25.021  13.157   9.794  0.00  0.00     0.088 A 
HETATM    9  C   UNK N   1      23.750  13.541   9.360  0.00  0.00     0.029 A 
HETATM   10  C   UNK N   1      22.633  13.121  10.079  0.00  0.00    -0.023 A 
HETATM   11  C   UNK N   1      21.349  13.489   9.669  0.00  0.00     0.012 A 
ENDROOT
TORSDOF 0
ENDMDL
MODEL 2
REMARK VINA RESULT:      -4.8     12.965     14.360
REMARK  0 active torsions:
REMARK  status: ('A' for Active; 'I' for Inactive)
ROOT
HETATM    1  C   UNK N   1      34.563  10.446  15.381  0.00  0.00     0.001 A 
HETATM    2  C   UNK N   1      34.428  11.770  14.949  0.00  0.00     0.001 A 
HETATM    3  C   UNK N   1      34.614  12.826  15.847  0.00  0.00     0.013 A 
HETATM    4  C   UNK N   1      34.937  12.555  17.178  0.00  0.00    -0.011 A 
HETATM    5  C   UNK N   1      35.126  13.594  18.087  0.00  0.00     0.099 A 
HETATM    6  N   UNK N   1      35.441  13.314  19.381  0.00  0.00    -0.374 N 
ATOM      7  HN  UNK N   1      35.577  14.083  20.037  1.00  0.00     0.164 HD
HETATM    8  C   UNK N   1      35.577  12.032  19.822  0.00  0.00     0.088 A 
HETATM    9  C   UNK N   1      35.396  10.960  18.945  0.00  0.00     0.029 A 
HETATM   10  C   UNK N   1      35.074  11.221  17.614  0.00  0.00    -0.023 A 
HETATM   11  C   UNK N   1      34.887  10.170  16.714  0.00  0.00     0.012 A 
ENDROOT
TORSDOF 0
ENDMDL
MODEL 3
REMARK VINA RESULT:      -4.8     21.637     22.976
REMARK  0 active torsions:
REMARK  status: ('A' for Active; 'I' for Inactive)
ROOT
HETATM    1  C   UNK N   1      27.453  27.308  -7.815  0.00  0.00     0.001 A 
HETATM    2  C   UNK N   1      26.400  26.477  -7.414  0.00  0.00     0.001 A 
HETATM    3  C   UNK N   1      25.734  26.716  -6.208  0.00  0.00     0.013 A 
HETATM    4  C   UNK N   1      26.124  27.788  -5.403  0.00  0.00    -0.011 A 
HETATM    5  C   UNK N   1      25.473  28.043  -4.198  0.00  0.00     0.099 A 
HETATM    6  N   UNK N   1      25.863  29.092  -3.424  0.00  0.00    -0.374 N 
ATOM      7  HN  UNK N   1      25.379  29.268  -2.543  1.00  0.00     0.164 HD
HETATM    8  C   UNK N   1      26.886  29.912  -3.795  0.00  0.00     0.088 A 
HETATM    9  C   UNK N   1      27.566  29.694  -4.995  0.00  0.00     0.029 A 
HETATM   10  C   UNK N   1      27.184  28.626  -5.806  0.00  0.00    -0.023 A 
HETATM   11  C   UNK N   1      27.846  28.383  -7.011  0.00  0.00     0.012 A 
ENDROOT
TORSDOF 0
ENDMDL
MODEL 4
REMARK VINA RESULT:      -4.7     10.365     11.758
REMARK  0 active torsions:
REMARK  status: ('A' for Active; 'I' for Inactive)
ROOT
HETATM    1  C   UNK N   1      32.245  17.506   4.106  0.00  0.00     0.001 A 
HETATM    2  C   UNK N   1      30.949  17.268   4.580  0.00  0.00     0.001 A 
HETATM    3  C   UNK N   1      30.718  17.119   5.951  0.00  0.00     0.013 A 
HETATM    4  C   UNK N   1      31.786  17.209   6.847  0.00  0.00    -0.011 A 
HETATM    5  C   UNK N   1      31.575  17.064   8.217  0.00  0.00     0.099 A 
HETATM    6  N   UNK N   1      32.625  17.154   9.078  0.00  0.00    -0.374 N 
ATOM      7  HN  UNK N   1      32.458  17.046  10.079  1.00  0.00     0.164 HD
HETATM    8  C   UNK N   1      33.893  17.385   8.637  0.00  0.00     0.088 A 
HETATM    9  C   UNK N   1      34.150  17.537   7.272  0.00  0.00     0.029 A 
HETATM   10  C   UNK N   1      33.091  17.449   6.370  0.00  0.00    -0.023 A 
HETATM   11  C   UNK N   1      33.317  17.597   5.000  0.00  0.00     0.012 A 
ENDROOT
TORSDOF 0
ENDMDL
MODEL 5
REMARK VINA RESULT:      -4.6     12.504     13.550
REMARK  0 active torsions:
REMARK  status: ('A' for Active; 'I' for Inactive)
ROOT
HETATM    1  C   UNK N   1      34.138  10.568  15.185  0.00  0.00     0.001 A 
HETATM    2  C   UNK N   1      34.893  10.818  16.337  0.00  0.00     0.001 A 
HETATM    3  C   UNK N   1      35.764  11.911  16.385  0.00  0.00     0.013 A 
HETATM    4  C   UNK N   1      35.879  12.754  15.278  0.00  0.00    -0.011 A 
HETATM    5  C   UNK N   1      36.741  13.848  15.307  0.00  0.00     0.099 A 
HETATM    6  N   UNK N   1      36.842  14.661  14.220  0.00  0.00    -0.374 N 
ATOM      7  HN  UNK N   1      37.477  15.459  14.253  1.00  0.00     0.164 HD
HETATM    8  C   UNK N   1      36.117  14.436  13.089  0.00  0.00     0.088 A 
HETATM    9  C   UNK N   1      35.240  13.351  13.016  0.00  0.00     0.029 A 
HETATM   10  C   UNK N   1      35.119  12.504  14.117  0.00  0.00    -0.023 A 
HETATM   11  C   UNK N   1      34.250  11.411  14.073  0.00  0.00     0.012 A 
ENDROOT
TORSDOF 0
ENDMDL
MODEL 6
REMARK VINA RESULT:      -4.6      1.461      3.304
REMARK  0 active torsions:
REMARK  status: ('A' for Active; 'I' for Inactive)
ROOT
HETATM    1  C   UNK N   1      23.664  13.903   7.785  0.00  0.00     0.001 A 
HETATM    2  C   UNK N   1      24.826  13.454   8.425  0.00  0.00     0.001 A 
HETATM    3  C   UNK N   1      24.742  12.800   9.658  0.00  0.00     0.013 A 
HETATM    4  C   UNK N   1      23.495  12.596  10.250  0.00  0.00    -0.011 A 
HETATM    5  C   UNK N   1      23.391  11.946  11.479  0.00  0.00     0.099 A 
HETATM    6  N   UNK N   1      22.168  11.755  12.044  0.00  0.00    -0.374 N 
ATOM      7  HN  UNK N   1      22.106  11.278  12.944  1.00  0.00     0.164 HD
HETATM    8  C   UNK N   1      21.026  12.184  11.438  0.00  0.00     0.088 A 
HETATM    9  C   UNK N   1      21.083  12.839  10.206  0.00  0.00     0.029 A 
HETATM   10  C   UNK N   1      22.324  13.048   9.607  0.00  0.00    -0.023 A 
HETATM   11  C   UNK N   1      22.412  13.701   8.375  0.00  0.00     0.012 A 
ENDROOT
TORSDOF 0
ENDMDL
MODEL 7
REMARK VINA RESULT:      -4.6     13.050     14.207
REMARK  0 active torsions:
REMARK  status: ('A' for Active; 'I' for Inactive)
ROOT
HETATM    1  C   UNK N   1      35.347  11.792  19.498  0.00  0.00     0.001 A 
HETATM    2  C   UNK N   1      35.278  13.134  19.105  0.00  0.00     0.001 A 
HETATM    3  C   UNK N   1      35.085  13.464  17.759  0.00  0.00     0.013 A 
HETATM    4  C   UNK N   1      34.963  12.449  16.808  0.00  0.00    -0.011 A 
HETATM    5  C   UNK N   1      34.771  12.758  15.463  0.00  0.00     0.099 A 
HETATM    6  N   UNK N   1      34.653  11.758  14.548  0.00  0.00    -0.374 N 
ATOM      7  HN  UNK N   1      34.512  11.997  13.566  1.00  0.00     0.164 HD
HETATM    8  C   UNK N   1      34.717  10.447  14.909  0.00  0.00     0.088 A 
HETATM    9  C   UNK N   1      34.909  10.091  16.247  0.00  0.00     0.029 A 
HETATM   10  C   UNK N   1      35.032  11.097  17.204  0.00  0.00    -0.023 A 
HETATM   11  C   UNK N   1      35.224  10.772  18.548  0.00  0.00     0.012 A 
ENDROOT
TORSDOF 0
ENDMDL
MODEL 8
REMARK VINA RESULT:      -4.5     21.766     22.798
REMARK  0 active torsions:
REMARK  status: ('A' for Active; 'I' for Inactive)
ROOT
HETATM    1  C   UNK N   1      25.551  25.832  -6.825  0.00  0.00     0.001 A 
HETATM    2  C   UNK N   1      26.589  26.302  -7.638  0.00  0.00     0.001 A 
HETATM    3  C   UNK N   1      27.305  27.447  -7.274  0.00  0.00     0.013 A 
HETATM    4  C   UNK N   1      26.980  28.121  -6.096  0.00  0.00    -0.011 A 
HETATM    5  C   UNK N   1      27.681  29.264  -5.717  0.00  0.00     0.099 A 
HETATM    6  N   UNK N   1      27.353  29.910  -4.565  0.00  0.00    -0.374 N 
ATOM      7  HN  UNK N   1      27.874  30.746  -4.298  1.00  0.00     0.164 HD
HETATM    8  C   UNK N   1      26.346  29.470  -3.760  0.00  0.00     0.088 A 
HETATM    9  C   UNK N   1      25.616  28.329  -4.102  0.00  0.00     0.029 A 
HETATM   10  C   UNK N   1      25.934  27.649  -5.276  0.00  0.00    -0.023 A 
HETATM   11  C   UNK N   1      25.222  26.505  -5.644  0.00  0.00     0.012 A 
ENDROOT
TORSDOF 0
ENDMDL
MODEL 9
REMARK VINA RESULT:      -4.4      9.507     11.425
REMARK  0 active torsions:
REMARK  status: ('A' for Active; 'I' for Inactive)
ROOT
HETATM    1  C   UNK N   1      31.693  17.375   4.033  0.00  0.00     0.001 A 
HETATM    2  C   UNK N   1      33.051  17.498   4.348  0.00  0.00     0.001 A 
HETATM    3  C   UNK N   1      33.468  17.484   5.683  0.00  0.00     0.013 A 
HETATM    4  C   UNK N   1      32.523  17.348   6.702  0.00  0.00    -0.011 A 
HETATM    5  C   UNK N   1      32.919  17.332   8.038  0.00  0.00     0.099 A 
HETATM    6  N   UNK N   1      31.986  17.199   9.020  0.00  0.00    -0.374 N 
ATOM      7  HN  UNK N   1      32.288  17.189   9.995  1.00  0.00     0.164 HD
HETATM    8  C   UNK N   1      30.660  17.079   8.735  0.00  0.00     0.088 A 
HETATM    9  C   UNK N   1      30.218  17.089   7.409  0.00  0.00     0.029 A 
HETATM   10  C   UNK N   1      31.154  17.225   6.385  0.00  0.00    -0.023 A 
HETATM   11  C   UNK N   1      30.743  17.239   5.050  0.00  0.00     0.012 A 
ENDROOT
TORSDOF 0
ENDMDL
