REMARK  6 active torsions:
REMARK  status: ('A' for Active; 'I' for Inactive)
REMARK    1  A    between atoms: O_1  and  C_2 
REMARK    2  A    between atoms: C_2  and  C_4 
REMARK    3  A    between atoms: C_4  and  C_5 
REMARK    4  A    between atoms: C_5  and  P_6 
REMARK    5  A    between atoms: P_6  and  O_7 
REMARK    6  A    between atoms: P_6  and  O_8 
ROOT
HETATM    1  C   UNK N   1       0.338  -0.175   0.233  0.00  0.00     0.059 C 
HETATM    2  C   UNK N   1      -0.950  -0.509  -0.033  0.00  0.00     0.117 C 
HETATM    3 Cl   UNK N   1      -2.171   0.647  -0.562  0.00  0.00    -0.070 Cl
HETATM    4 Cl   UNK N   1      -1.502  -2.176   0.169  0.00  0.00    -0.070 Cl
ENDROOT
BRANCH   1   5
HETATM    5  C   UNK N   1       0.869   1.225   0.114  0.00  0.00     0.175 C 
HETATM    6  O   UNK N   1       2.022   1.468   0.422  0.00  0.00    -0.646 OA
BRANCH   5   7
HETATM    7  O   UNK N   1       0.094   2.235  -0.328  0.00  0.00    -0.773 OA
HETATM    8  H   UNK N   1       0.433   3.053  -0.635  0.00  0.00     0.167 HD
ENDBRANCH   5   7
ENDBRANCH   1   5
BRANCH   1   9
HETATM    9  C   UNK N   1       1.257  -1.276   0.704  0.00  0.00     0.173 C 
BRANCH   9  10
HETATM   10  P   UNK N   1       2.781  -1.487  -0.346  0.00  0.00     0.240 P 
HETATM   11  O   UNK N   1       3.861  -0.669   0.406  0.00  0.00    -0.653 OA
BRANCH  10  12
HETATM   12  O   UNK N   1       3.709  -2.857  -0.871  0.00  0.00    -0.329 OA
HETATM   13  H   UNK N   1       3.305  -3.689  -1.165  0.00  0.00     0.220 HD
ENDBRANCH  10  12
BRANCH  10  14
HETATM   14  O   UNK N   1       2.718  -2.587   0.992  0.00  0.00    -0.329 OA
HETATM   15  H   UNK N   1       2.168  -2.864   1.741  0.00  0.00     0.220 HD
ENDBRANCH  10  14
ENDBRANCH   9  10
ENDBRANCH   1   9
TORSDOF 6
