MODEL 1
REMARK VINA RESULT:      -9.1      0.000      0.000
REMARK  14 active torsions:
REMARK  status: ('A' for Active; 'I' for Inactive)
REMARK       I    between atoms: N_1  and  C_2 
REMARK    1  A    between atoms: C_5  and  O_6 
REMARK    2  A    between atoms: C_9  and  C_10 
REMARK    3  A    between atoms: C_10  and  C_11 
REMARK    4  A    between atoms: C_11  and  C_12 
REMARK    5  A    between atoms: C_11  and  C_15 
REMARK    6  A    between atoms: C_12  and  O_13 
REMARK    7  A    between atoms: C_18  and  C_21 
REMARK       I    between atoms: C_21  and  N_23 
REMARK    8  A    between atoms: C_24  and  N_23 
REMARK    9  A    between atoms: C_24  and  C_25 
REMARK   10  A    between atoms: C_24  and  C_30 
REMARK   11  A    between atoms: C_25  and  C_26 
REMARK   12  A    between atoms: C_26  and  C_27 
REMARK   13  A    between atoms: C_27  and  O_28 
REMARK   14  A    between atoms: C_30  and  O_31 
ROOT
HETATM    1  C   UNK N   1      26.662  19.522   5.963  0.00  0.00     0.121 C 
ENDROOT
BRANCH   1   2
HETATM    2  C   UNK N   1      26.296  19.373   4.464  0.00  0.00     0.058 C 
BRANCH   2   3
HETATM    3  C   UNK N   1      24.889  18.949   4.221  0.00  0.00    -0.056 A 
HETATM    4  C   UNK N   1      23.979  19.898   3.770  0.00  0.00     0.025 A 
HETATM    5  C   UNK N   1      22.690  19.537   3.433  0.00  0.00     0.043 A 
HETATM    6  C   UNK N   1      21.806  20.465   2.888  0.00  0.00     0.167 A 
HETATM    7  C   UNK N   1      22.266  18.208   3.601  0.00  0.00     0.063 A 
HETATM    8  N   UNK N   1      20.558  20.072   2.538  0.00  0.00    -0.170 N 
HETATM    9  C   UNK N   1      20.153  18.785   2.715  0.00  0.00     0.678 A 
ATOM     10  HN  UNK N   1      19.913  20.752   2.135  1.00  0.00     0.186 HD
HETATM   11  N   UNK N   1      18.854  18.404   2.333  0.00  0.00    -0.234 N 
HETATM   12  N   UNK N   1      21.005  17.861   3.245  0.00  0.00    -0.191 N 
HETATM   13  H   UNK N   1      18.352  18.688   1.535  0.00  0.00     0.174 HD
HETATM   14  H   UNK N   1      18.391  17.778   2.935  0.00  0.00     0.174 HD
ATOM     15  HN  UNK N   1      20.690  16.900   3.375  1.00  0.00     0.184 HD
HETATM   16  C   UNK N   1      23.159  17.252   4.109  0.00  0.00     0.031 A 
HETATM   17  C   UNK N   1      24.480  17.621   4.406  0.00  0.00     0.009 A 
BRANCH   6  18
HETATM   18  O   UNK N   1      22.190  21.741   2.686  0.00  0.00    -0.345 OA
HETATM   19  H   UNK N   1      21.761  22.430   2.219  0.00  0.00     0.219 HD
ENDBRANCH   6  18
ENDBRANCH   2   3
ENDBRANCH   1   2
BRANCH   1  20
HETATM   20  C   UNK N   1      26.658  20.875   6.608  0.00  0.00     0.148 C 
HETATM   21  O   UNK N   1      27.277  21.791   6.094  0.00  0.00    -0.649 OA
BRANCH  20  22
HETATM   22  O   UNK N   1      25.944  21.092   7.729  0.00  0.00    -0.776 OA
HETATM   23  H   UNK N   1      25.307  20.872   8.380  0.00  0.00     0.167 HD
ENDBRANCH  20  22
ENDBRANCH   1  20
BRANCH   1  24
HETATM   24  C   UNK N   1      27.708  18.619   6.511  0.00  0.00    -0.044 A 
HETATM   25  C   UNK N   1      28.213  17.639   5.657  0.00  0.00     0.009 A 
HETATM   26  C   UNK N   1      29.378  16.971   5.981  0.00  0.00     0.017 A 
HETATM   27  C   UNK N   1      30.028  17.229   7.187  0.00  0.00     0.032 A 
HETATM   28  C   UNK N   1      29.480  18.161   8.081  0.00  0.00     0.017 A 
HETATM   29  C   UNK N   1      28.314  18.852   7.750  0.00  0.00     0.009 A 
BRANCH  27  30
HETATM   30  C   UNK N   1      31.468  17.220   7.127  0.00  0.00     0.252 C 
HETATM   31  O   UNK N   1      32.074  16.679   6.213  0.00  0.00    -0.268 OA
HETATM   32  N   UNK N   1      32.086  17.572   8.287  0.00  0.00    -0.343 N 
HETATM   33  H   UNK N   1      31.538  18.039   8.958  0.00  0.00     0.163 HD
BRANCH  32  34
HETATM   34  C   UNK N   1      33.458  17.327   8.625  0.00  0.00     0.183 C 
BRANCH  34  35
HETATM   35  C   UNK N   1      33.729  15.834   8.514  0.00  0.00     0.046 C 
BRANCH  35  36
HETATM   36  C   UNK N   1      35.103  15.468   9.017  0.00  0.00     0.112 C 
BRANCH  36  37
HETATM   37  C   UNK N   1      35.247  15.995  10.401  0.00  0.00     0.139 C 
HETATM   38  O   UNK N   1      36.089  16.842  10.656  0.00  0.00    -0.650 OA
BRANCH  37  39
HETATM   39  O   UNK N   1      34.423  15.554  11.366  0.00  0.00    -0.776 OA
HETATM   40  H   UNK N   1      33.932  14.761  11.262  0.00  0.00     0.167 HD
ENDBRANCH  37  39
ENDBRANCH  36  37
ENDBRANCH  35  36
ENDBRANCH  34  35
BRANCH  34  41
HETATM   41  C   UNK N   1      34.367  18.209   7.829  0.00  0.00     0.163 C 
HETATM   42  O   UNK N   1      34.936  19.137   8.382  0.00  0.00    -0.648 OA
BRANCH  41  43
HETATM   43  O   UNK N   1      34.575  17.981   6.520  0.00  0.00    -0.775 OA
HETATM   44  H   UNK N   1      34.276  18.447   5.764  0.00  0.00     0.167 HD
ENDBRANCH  41  43
ENDBRANCH  34  41
ENDBRANCH  32  34
ENDBRANCH  27  30
ENDBRANCH   1  24
TORSDOF 14
ENDMDL
MODEL 2
REMARK VINA RESULT:      -9.0      1.568      2.151
REMARK  14 active torsions:
REMARK  status: ('A' for Active; 'I' for Inactive)
REMARK       I    between atoms: N_1  and  C_2 
REMARK    1  A    between atoms: C_5  and  O_6 
REMARK    2  A    between atoms: C_9  and  C_10 
REMARK    3  A    between atoms: C_10  and  C_11 
REMARK    4  A    between atoms: C_11  and  C_12 
REMARK    5  A    between atoms: C_11  and  C_15 
REMARK    6  A    between atoms: C_12  and  O_13 
REMARK    7  A    between atoms: C_18  and  C_21 
REMARK       I    between atoms: C_21  and  N_23 
REMARK    8  A    between atoms: C_24  and  N_23 
REMARK    9  A    between atoms: C_24  and  C_25 
REMARK   10  A    between atoms: C_24  and  C_30 
REMARK   11  A    between atoms: C_25  and  C_26 
REMARK   12  A    between atoms: C_26  and  C_27 
REMARK   13  A    between atoms: C_27  and  O_28 
REMARK   14  A    between atoms: C_30  and  O_31 
ROOT
HETATM    1  C   UNK N   1      27.439  19.195   6.327  0.00  0.00     0.121 C 
ENDROOT
BRANCH   1   2
HETATM    2  C   UNK N   1      27.358  18.949   4.799  0.00  0.00     0.058 C 
BRANCH   2   3
HETATM    3  C   UNK N   1      26.029  19.259   4.203  0.00  0.00    -0.056 A 
HETATM    4  C   UNK N   1      24.916  18.571   4.674  0.00  0.00     0.025 A 
HETATM    5  C   UNK N   1      23.648  18.891   4.230  0.00  0.00     0.043 A 
HETATM    6  C   UNK N   1      22.524  18.273   4.771  0.00  0.00     0.167 A 
HETATM    7  C   UNK N   1      23.477  19.880   3.248  0.00  0.00     0.063 A 
HETATM    8  N   UNK N   1      21.292  18.632   4.337  0.00  0.00    -0.170 N 
HETATM    9  C   UNK N   1      21.136  19.583   3.376  0.00  0.00     0.678 A 
ATOM     10  HN  UNK N   1      20.468  18.181   4.736  1.00  0.00     0.186 HD
HETATM   11  N   UNK N   1      19.844  19.942   2.953  0.00  0.00    -0.234 N 
HETATM   12  N   UNK N   1      22.225  20.201   2.836  0.00  0.00    -0.191 N 
HETATM   13  H   UNK N   1      19.036  20.048   3.505  0.00  0.00     0.174 HD
HETATM   14  H   UNK N   1      19.734  20.107   1.988  0.00  0.00     0.174 HD
ATOM     15  HN  UNK N   1      22.097  20.912   2.116  1.00  0.00     0.184 HD
HETATM   16  C   UNK N   1      24.598  20.542   2.724  0.00  0.00     0.031 A 
HETATM   17  C   UNK N   1      25.878  20.240   3.214  0.00  0.00     0.009 A 
BRANCH   6  18
HETATM   18  O   UNK N   1      22.651  17.341   5.736  0.00  0.00    -0.345 OA
HETATM   19  H   UNK N   1      22.937  17.432   6.624  0.00  0.00     0.219 HD
ENDBRANCH   6  18
ENDBRANCH   2   3
ENDBRANCH   1   2
BRANCH   1  20
HETATM   20  C   UNK N   1      27.172  20.561   6.886  0.00  0.00     0.148 C 
HETATM   21  O   UNK N   1      27.769  21.524   6.436  0.00  0.00    -0.649 OA
BRANCH  20  22
HETATM   22  O   UNK N   1      26.249  20.731   7.852  0.00  0.00    -0.776 OA
HETATM   23  H   UNK N   1      25.700  20.446   8.555  0.00  0.00     0.167 HD
ENDBRANCH  20  22
ENDBRANCH   1  20
BRANCH   1  24
HETATM   24  C   UNK N   1      28.469  18.445   7.093  0.00  0.00    -0.044 A 
HETATM   25  C   UNK N   1      29.242  17.525   6.387  0.00  0.00     0.009 A 
HETATM   26  C   UNK N   1      30.400  17.020   6.946  0.00  0.00     0.017 A 
HETATM   27  C   UNK N   1      30.776  17.379   8.239  0.00  0.00     0.032 A 
HETATM   28  C   UNK N   1      29.959  18.246   8.979  0.00  0.00     0.017 A 
HETATM   29  C   UNK N   1      28.798  18.774   8.413  0.00  0.00     0.009 A 
BRANCH  27  30
HETATM   30  C   UNK N   1      32.192  17.556   8.445  0.00  0.00     0.252 C 
HETATM   31  O   UNK N   1      32.715  18.660   8.421  0.00  0.00    -0.268 OA
HETATM   32  N   UNK N   1      32.925  16.412   8.357  0.00  0.00    -0.343 N 
HETATM   33  H   UNK N   1      32.433  15.563   8.424  0.00  0.00     0.163 HD
BRANCH  32  34
HETATM   34  C   UNK N   1      34.345  16.328   8.176  0.00  0.00     0.183 C 
BRANCH  34  35
HETATM   35  C   UNK N   1      34.851  15.069   8.866  0.00  0.00     0.046 C 
BRANCH  35  36
HETATM   36  C   UNK N   1      35.376  15.355  10.252  0.00  0.00     0.112 C 
BRANCH  36  37
HETATM   37  C   UNK N   1      34.407  14.806  11.238  0.00  0.00     0.139 C 
HETATM   38  O   UNK N   1      34.801  14.199  12.221  0.00  0.00    -0.650 OA
BRANCH  37  39
HETATM   39  O   UNK N   1      33.090  15.006  11.054  0.00  0.00    -0.776 OA
HETATM   40  H   UNK N   1      32.773  15.748  10.576  0.00  0.00     0.167 HD
ENDBRANCH  37  39
ENDBRANCH  36  37
ENDBRANCH  35  36
ENDBRANCH  34  35
BRANCH  34  41
HETATM   41  C   UNK N   1      34.706  16.462   6.731  0.00  0.00     0.163 C 
HETATM   42  O   UNK N   1      35.350  15.577   6.191  0.00  0.00    -0.648 OA
BRANCH  41  43
HETATM   43  O   UNK N   1      34.315  17.535   6.020  0.00  0.00    -0.775 OA
HETATM   44  H   UNK N   1      34.805  18.263   5.694  0.00  0.00     0.167 HD
ENDBRANCH  41  43
ENDBRANCH  34  41
ENDBRANCH  32  34
ENDBRANCH  27  30
ENDBRANCH   1  24
TORSDOF 14
ENDMDL
MODEL 3
REMARK VINA RESULT:      -8.9      1.020      2.167
REMARK  14 active torsions:
REMARK  status: ('A' for Active; 'I' for Inactive)
REMARK       I    between atoms: N_1  and  C_2 
REMARK    1  A    between atoms: C_5  and  O_6 
REMARK    2  A    between atoms: C_9  and  C_10 
REMARK    3  A    between atoms: C_10  and  C_11 
REMARK    4  A    between atoms: C_11  and  C_12 
REMARK    5  A    between atoms: C_11  and  C_15 
REMARK    6  A    between atoms: C_12  and  O_13 
REMARK    7  A    between atoms: C_18  and  C_21 
REMARK       I    between atoms: C_21  and  N_23 
REMARK    8  A    between atoms: C_24  and  N_23 
REMARK    9  A    between atoms: C_24  and  C_25 
REMARK   10  A    between atoms: C_24  and  C_30 
REMARK   11  A    between atoms: C_25  and  C_26 
REMARK   12  A    between atoms: C_26  and  C_27 
REMARK   13  A    between atoms: C_27  and  O_28 
REMARK   14  A    between atoms: C_30  and  O_31 
ROOT
HETATM    1  C   UNK N   1      26.687  19.441   5.987  0.00  0.00     0.121 C 
ENDROOT
BRANCH   1   2
HETATM    2  C   UNK N   1      26.322  19.348   4.483  0.00  0.00     0.058 C 
BRANCH   2   3
HETATM    3  C   UNK N   1      24.916  18.929   4.225  0.00  0.00    -0.056 A 
HETATM    4  C   UNK N   1      24.010  19.886   3.783  0.00  0.00     0.025 A 
HETATM    5  C   UNK N   1      22.723  19.532   3.431  0.00  0.00     0.043 A 
HETATM    6  C   UNK N   1      21.844  20.469   2.894  0.00  0.00     0.167 A 
HETATM    7  C   UNK N   1      22.297  18.201   3.576  0.00  0.00     0.063 A 
HETATM    8  N   UNK N   1      20.598  20.082   2.530  0.00  0.00    -0.170 N 
HETATM    9  C   UNK N   1      20.190  18.793   2.685  0.00  0.00     0.678 A 
ATOM     10  HN  UNK N   1      19.955  20.769   2.134  1.00  0.00     0.186 HD
HETATM   11  N   UNK N   1      18.894  18.419   2.288  0.00  0.00    -0.234 N 
HETATM   12  N   UNK N   1      21.037  17.860   3.206  0.00  0.00    -0.191 N 
HETATM   13  H   UNK N   1      18.397  18.716   1.491  0.00  0.00     0.174 HD
HETATM   14  H   UNK N   1      18.426  17.784   2.878  0.00  0.00     0.174 HD
ATOM     15  HN  UNK N   1      20.721  16.897   3.319  1.00  0.00     0.184 HD
HETATM   16  C   UNK N   1      23.186  17.236   4.075  0.00  0.00     0.031 A 
HETATM   17  C   UNK N   1      24.505  17.599   4.387  0.00  0.00     0.009 A 
BRANCH   6  18
HETATM   18  O   UNK N   1      22.230  21.747   2.715  0.00  0.00    -0.345 OA
HETATM   19  H   UNK N   1      22.132  22.304   1.968  0.00  0.00     0.219 HD
ENDBRANCH   6  18
ENDBRANCH   2   3
ENDBRANCH   1   2
BRANCH   1  20
HETATM   20  C   UNK N   1      26.789  20.780   6.656  0.00  0.00     0.148 C 
HETATM   21  O   UNK N   1      27.473  21.655   6.155  0.00  0.00    -0.649 OA
BRANCH  20  22
HETATM   22  O   UNK N   1      26.096  21.029   7.785  0.00  0.00    -0.776 OA
HETATM   23  H   UNK N   1      25.971  21.042   8.713  0.00  0.00     0.167 HD
ENDBRANCH  20  22
ENDBRANCH   1  20
BRANCH   1  24
HETATM   24  C   UNK N   1      27.653  18.448   6.525  0.00  0.00    -0.044 A 
HETATM   25  C   UNK N   1      27.944  17.345   5.723  0.00  0.00     0.009 A 
HETATM   26  C   UNK N   1      29.037  16.550   6.009  0.00  0.00     0.017 A 
HETATM   27  C   UNK N   1      29.824  16.806   7.130  0.00  0.00     0.032 A 
HETATM   28  C   UNK N   1      29.487  17.870   7.980  0.00  0.00     0.017 A 
HETATM   29  C   UNK N   1      28.396  18.688   7.686  0.00  0.00     0.009 A 
BRANCH  27  30
HETATM   30  C   UNK N   1      31.239  16.594   6.954  0.00  0.00     0.252 C 
HETATM   31  O   UNK N   1      31.794  16.790   5.883  0.00  0.00    -0.268 OA
HETATM   32  N   UNK N   1      31.833  15.883   7.950  0.00  0.00    -0.343 N 
HETATM   33  H   UNK N   1      31.337  15.803   8.797  0.00  0.00     0.163 HD
BRANCH  32  34
HETATM   34  C   UNK N   1      33.113  15.237   7.883  0.00  0.00     0.183 C 
BRANCH  34  35
HETATM   35  C   UNK N   1      34.100  16.023   8.735  0.00  0.00     0.046 C 
BRANCH  35  36
HETATM   36  C   UNK N   1      33.673  17.459   8.917  0.00  0.00     0.112 C 
BRANCH  36  37
HETATM   37  C   UNK N   1      34.502  18.308   8.019  0.00  0.00     0.139 C 
HETATM   38  O   UNK N   1      35.255  19.149   8.484  0.00  0.00    -0.650 OA
BRANCH  37  39
HETATM   39  O   UNK N   1      34.438  18.123   6.689  0.00  0.00    -0.776 OA
HETATM   40  H   UNK N   1      33.636  18.249   6.219  0.00  0.00     0.167 HD
ENDBRANCH  37  39
ENDBRANCH  36  37
ENDBRANCH  35  36
ENDBRANCH  34  35
BRANCH  34  41
HETATM   41  C   UNK N   1      32.992  13.783   8.211  0.00  0.00     0.163 C 
HETATM   42  O   UNK N   1      32.659  12.998   7.337  0.00  0.00    -0.648 OA
BRANCH  41  43
HETATM   43  O   UNK N   1      33.262  13.331   9.449  0.00  0.00    -0.775 OA
HETATM   44  H   UNK N   1      33.334  13.788  10.263  0.00  0.00     0.167 HD
ENDBRANCH  41  43
ENDBRANCH  34  41
ENDBRANCH  32  34
ENDBRANCH  27  30
ENDBRANCH   1  24
TORSDOF 14
ENDMDL
MODEL 4
REMARK VINA RESULT:      -8.6      1.609      2.729
REMARK  14 active torsions:
REMARK  status: ('A' for Active; 'I' for Inactive)
REMARK       I    between atoms: N_1  and  C_2 
REMARK    1  A    between atoms: C_5  and  O_6 
REMARK    2  A    between atoms: C_9  and  C_10 
REMARK    3  A    between atoms: C_10  and  C_11 
REMARK    4  A    between atoms: C_11  and  C_12 
REMARK    5  A    between atoms: C_11  and  C_15 
REMARK    6  A    between atoms: C_12  and  O_13 
REMARK    7  A    between atoms: C_18  and  C_21 
REMARK       I    between atoms: C_21  and  N_23 
REMARK    8  A    between atoms: C_24  and  N_23 
REMARK    9  A    between atoms: C_24  and  C_25 
REMARK   10  A    between atoms: C_24  and  C_30 
REMARK   11  A    between atoms: C_25  and  C_26 
REMARK   12  A    between atoms: C_26  and  C_27 
REMARK   13  A    between atoms: C_27  and  O_28 
REMARK   14  A    between atoms: C_30  and  O_31 
ROOT
HETATM    1  C   UNK N   1      26.539  19.288   5.688  0.00  0.00     0.121 C 
ENDROOT
BRANCH   1   2
HETATM    2  C   UNK N   1      26.136  19.132   4.199  0.00  0.00     0.058 C 
BRANCH   2   3
HETATM    3  C   UNK N   1      24.701  18.790   3.992  0.00  0.00    -0.056 A 
HETATM    4  C   UNK N   1      23.827  19.804   3.617  0.00  0.00     0.025 A 
HETATM    5  C   UNK N   1      22.510  19.524   3.312  0.00  0.00     0.043 A 
HETATM    6  C   UNK N   1      21.657  20.519   2.842  0.00  0.00     0.167 A 
HETATM    7  C   UNK N   1      22.024  18.212   3.438  0.00  0.00     0.063 A 
HETATM    8  N   UNK N   1      20.378  20.206   2.522  0.00  0.00    -0.170 N 
HETATM    9  C   UNK N   1      19.913  18.934   2.658  0.00  0.00     0.678 A 
ATOM     10  HN  UNK N   1      19.755  20.935   2.174  1.00  0.00     0.186 HD
HETATM   11  N   UNK N   1      18.584  18.636   2.308  0.00  0.00    -0.234 N 
HETATM   12  N   UNK N   1      20.734  17.945   3.114  0.00  0.00    -0.191 N 
HETATM   13  H   UNK N   1      18.069  18.982   1.543  0.00  0.00     0.174 HD
HETATM   14  H   UNK N   1      18.110  18.007   2.899  0.00  0.00     0.174 HD
ATOM     15  HN  UNK N   1      20.374  16.996   3.213  1.00  0.00     0.184 HD
HETATM   16  C   UNK N   1      22.883  17.190   3.869  0.00  0.00     0.031 A 
HETATM   17  C   UNK N   1      24.231  17.478   4.133  0.00  0.00     0.009 A 
BRANCH   6  18
HETATM   18  O   UNK N   1      22.099  21.782   2.682  0.00  0.00    -0.345 OA
HETATM   19  H   UNK N   1      22.753  22.253   3.159  0.00  0.00     0.219 HD
ENDBRANCH   6  18
ENDBRANCH   2   3
ENDBRANCH   1   2
BRANCH   1  20
HETATM   20  C   UNK N   1      26.711  20.654   6.283  0.00  0.00     0.148 C 
HETATM   21  O   UNK N   1      27.410  21.476   5.715  0.00  0.00    -0.649 OA
BRANCH  20  22
HETATM   22  O   UNK N   1      26.067  20.987   7.418  0.00  0.00    -0.776 OA
HETATM   23  H   UNK N   1      25.819  21.569   8.108  0.00  0.00     0.167 HD
ENDBRANCH  20  22
ENDBRANCH   1  20
BRANCH   1  24
HETATM   24  C   UNK N   1      27.475  18.284   6.258  0.00  0.00    -0.044 A 
HETATM   25  C   UNK N   1      27.542  17.044   5.623  0.00  0.00     0.009 A 
HETATM   26  C   UNK N   1      28.585  16.181   5.897  0.00  0.00     0.017 A 
HETATM   27  C   UNK N   1      29.546  16.514   6.849  0.00  0.00     0.032 A 
HETATM   28  C   UNK N   1      29.438  17.728   7.544  0.00  0.00     0.017 A 
HETATM   29  C   UNK N   1      28.398  18.612   7.258  0.00  0.00     0.009 A 
BRANCH  27  30
HETATM   30  C   UNK N   1      30.895  16.114   6.533  0.00  0.00     0.252 C 
HETATM   31  O   UNK N   1      31.245  14.944   6.561  0.00  0.00    -0.268 OA
HETATM   32  N   UNK N   1      31.797  17.133   6.510  0.00  0.00    -0.343 N 
HETATM   33  H   UNK N   1      31.435  18.046   6.448  0.00  0.00     0.163 HD
BRANCH  32  34
HETATM   34  C   UNK N   1      33.225  17.002   6.567  0.00  0.00     0.183 C 
BRANCH  34  35
HETATM   35  C   UNK N   1      33.805  17.396   5.217  0.00  0.00     0.046 C 
BRANCH  35  36
HETATM   36  C   UNK N   1      32.823  17.175   4.092  0.00  0.00     0.112 C 
BRANCH  36  37
HETATM   37  C   UNK N   1      33.171  15.895   3.417  0.00  0.00     0.139 C 
HETATM   38  O   UNK N   1      33.594  15.895   2.272  0.00  0.00    -0.650 OA
BRANCH  37  39
HETATM   39  O   UNK N   1      33.043  14.737   4.088  0.00  0.00    -0.776 OA
HETATM   40  H   UNK N   1      33.751  14.123   4.138  0.00  0.00     0.167 HD
ENDBRANCH  37  39
ENDBRANCH  36  37
ENDBRANCH  35  36
ENDBRANCH  34  35
BRANCH  34  41
HETATM   41  C   UNK N   1      33.778  17.736   7.747  0.00  0.00     0.163 C 
HETATM   42  O   UNK N   1      34.714  18.504   7.589  0.00  0.00    -0.648 OA
BRANCH  41  43
HETATM   43  O   UNK N   1      33.248  17.571   8.972  0.00  0.00    -0.775 OA
HETATM   44  H   UNK N   1      33.046  16.792   9.450  0.00  0.00     0.167 HD
ENDBRANCH  41  43
ENDBRANCH  34  41
ENDBRANCH  32  34
ENDBRANCH  27  30
ENDBRANCH   1  24
TORSDOF 14
ENDMDL
MODEL 5
REMARK VINA RESULT:      -8.5      2.346     11.249
REMARK  14 active torsions:
REMARK  status: ('A' for Active; 'I' for Inactive)
REMARK       I    between atoms: N_1  and  C_2 
REMARK    1  A    between atoms: C_5  and  O_6 
REMARK    2  A    between atoms: C_9  and  C_10 
REMARK    3  A    between atoms: C_10  and  C_11 
REMARK    4  A    between atoms: C_11  and  C_12 
REMARK    5  A    between atoms: C_11  and  C_15 
REMARK    6  A    between atoms: C_12  and  O_13 
REMARK    7  A    between atoms: C_18  and  C_21 
REMARK       I    between atoms: C_21  and  N_23 
REMARK    8  A    between atoms: C_24  and  N_23 
REMARK    9  A    between atoms: C_24  and  C_25 
REMARK   10  A    between atoms: C_24  and  C_30 
REMARK   11  A    between atoms: C_25  and  C_26 
REMARK   12  A    between atoms: C_26  and  C_27 
REMARK   13  A    between atoms: C_27  and  O_28 
REMARK   14  A    between atoms: C_30  and  O_31 
ROOT
HETATM    1  C   UNK N   1      29.387  18.049   6.034  0.00  0.00     0.121 C 
ENDROOT
BRANCH   1   2
HETATM    2  C   UNK N   1      30.529  17.111   5.565  0.00  0.00     0.058 C 
BRANCH   2   3
HETATM    3  C   UNK N   1      31.417  16.639   6.663  0.00  0.00    -0.056 A 
HETATM    4  C   UNK N   1      32.495  17.436   7.032  0.00  0.00     0.025 A 
HETATM    5  C   UNK N   1      33.288  17.096   8.109  0.00  0.00     0.043 A 
HETATM    6  C   UNK N   1      34.307  17.941   8.543  0.00  0.00     0.167 A 
HETATM    7  C   UNK N   1      33.048  15.902   8.810  0.00  0.00     0.063 A 
HETATM    8  N   UNK N   1      35.047  17.595   9.623  0.00  0.00    -0.170 N 
HETATM    9  C   UNK N   1      34.815  16.430  10.288  0.00  0.00     0.678 A 
ATOM     10  HN  UNK N   1      35.791  18.216   9.941  1.00  0.00     0.186 HD
HETATM   11  N   UNK N   1      35.593  16.101  11.412  0.00  0.00    -0.234 N 
HETATM   12  N   UNK N   1      33.820  15.591   9.880  0.00  0.00    -0.191 N 
HETATM   13  H   UNK N   1      35.913  16.704  12.122  0.00  0.00     0.174 HD
HETATM   14  H   UNK N   1      35.850  15.155  11.500  0.00  0.00     0.174 HD
ATOM     15  HN  UNK N   1      33.655  14.720  10.386  1.00  0.00     0.184 HD
HETATM   16  C   UNK N   1      31.998  15.062   8.412  0.00  0.00     0.031 A 
HETATM   17  C   UNK N   1      31.170  15.439   7.343  0.00  0.00     0.009 A 
BRANCH   6  18
HETATM   18  O   UNK N   1      34.545  19.107   7.911  0.00  0.00    -0.345 OA
HETATM   19  H   UNK N   1      34.934  19.268   7.074  0.00  0.00     0.219 HD
ENDBRANCH   6  18
ENDBRANCH   2   3
ENDBRANCH   1   2
BRANCH   1  20
HETATM   20  C   UNK N   1      28.793  17.886   7.401  0.00  0.00     0.148 C 
HETATM   21  O   UNK N   1      29.065  18.689   8.278  0.00  0.00    -0.649 OA
BRANCH  20  22
HETATM   22  O   UNK N   1      27.931  16.881   7.652  0.00  0.00    -0.776 OA
HETATM   23  H   UNK N   1      27.448  16.109   7.434  0.00  0.00     0.167 HD
ENDBRANCH  20  22
ENDBRANCH   1  20
BRANCH   1  24
HETATM   24  C   UNK N   1      28.396  18.492   5.019  0.00  0.00    -0.044 A 
HETATM   25  C   UNK N   1      27.543  17.520   4.496  0.00  0.00     0.009 A 
HETATM   26  C   UNK N   1      26.417  17.895   3.790  0.00  0.00     0.017 A 
HETATM   27  C   UNK N   1      26.151  19.240   3.545  0.00  0.00     0.032 A 
HETATM   28  C   UNK N   1      27.049  20.216   4.005  0.00  0.00     0.017 A 
HETATM   29  C   UNK N   1      28.178  19.844   4.735  0.00  0.00     0.009 A 
BRANCH  27  30
HETATM   30  C   UNK N   1      24.761  19.618   3.606  0.00  0.00     0.252 C 
HETATM   31  O   UNK N   1      24.409  20.788   3.604  0.00  0.00    -0.268 OA
HETATM   32  N   UNK N   1      23.917  18.615   3.971  0.00  0.00    -0.343 N 
HETATM   33  H   UNK N   1      24.264  17.696   3.907  0.00  0.00     0.163 HD
BRANCH  32  34
HETATM   34  C   UNK N   1      22.570  18.770   4.440  0.00  0.00     0.183 C 
BRANCH  34  35
HETATM   35  C   UNK N   1      21.616  18.454   3.296  0.00  0.00     0.046 C 
BRANCH  35  36
HETATM   36  C   UNK N   1      20.640  19.577   3.046  0.00  0.00     0.112 C 
BRANCH  36  37
HETATM   37  C   UNK N   1      21.316  20.602   2.205  0.00  0.00     0.139 C 
HETATM   38  O   UNK N   1      21.421  20.441   1.000  0.00  0.00    -0.650 OA
BRANCH  37  39
HETATM   39  O   UNK N   1      21.788  21.722   2.779  0.00  0.00    -0.776 OA
HETATM   40  H   UNK N   1      21.406  22.559   2.597  0.00  0.00     0.167 HD
ENDBRANCH  37  39
ENDBRANCH  36  37
ENDBRANCH  35  36
ENDBRANCH  34  35
BRANCH  34  41
HETATM   41  C   UNK N   1      22.352  17.990   5.697  0.00  0.00     0.163 C 
HETATM   42  O   UNK N   1      21.654  18.462   6.581  0.00  0.00    -0.648 OA
BRANCH  41  43
HETATM   43  O   UNK N   1      22.901  16.772   5.856  0.00  0.00    -0.775 OA
HETATM   44  H   UNK N   1      22.670  15.945   5.484  0.00  0.00     0.167 HD
ENDBRANCH  41  43
ENDBRANCH  34  41
ENDBRANCH  32  34
ENDBRANCH  27  30
ENDBRANCH   1  24
TORSDOF 14
ENDMDL
MODEL 6
REMARK VINA RESULT:      -8.5      4.719      5.900
REMARK  14 active torsions:
REMARK  status: ('A' for Active; 'I' for Inactive)
REMARK       I    between atoms: N_1  and  C_2 
REMARK    1  A    between atoms: C_5  and  O_6 
REMARK    2  A    between atoms: C_9  and  C_10 
REMARK    3  A    between atoms: C_10  and  C_11 
REMARK    4  A    between atoms: C_11  and  C_12 
REMARK    5  A    between atoms: C_11  and  C_15 
REMARK    6  A    between atoms: C_12  and  O_13 
REMARK    7  A    between atoms: C_18  and  C_21 
REMARK       I    between atoms: C_21  and  N_23 
REMARK    8  A    between atoms: C_24  and  N_23 
REMARK    9  A    between atoms: C_24  and  C_25 
REMARK   10  A    between atoms: C_24  and  C_30 
REMARK   11  A    between atoms: C_25  and  C_26 
REMARK   12  A    between atoms: C_26  and  C_27 
REMARK   13  A    between atoms: C_27  and  O_28 
REMARK   14  A    between atoms: C_30  and  O_31 
ROOT
HETATM    1  C   UNK N   1      26.228  15.716   6.112  0.00  0.00     0.121 C 
ENDROOT
BRANCH   1   2
HETATM    2  C   UNK N   1      26.162  14.170   6.206  0.00  0.00     0.058 C 
BRANCH   2   3
HETATM    3  C   UNK N   1      25.017  13.659   7.009  0.00  0.00    -0.056 A 
HETATM    4  C   UNK N   1      25.225  13.375   8.354  0.00  0.00     0.025 A 
HETATM    5  C   UNK N   1      24.176  12.998   9.168  0.00  0.00     0.043 A 
HETATM    6  C   UNK N   1      24.362  12.809  10.535  0.00  0.00     0.167 A 
HETATM    7  C   UNK N   1      22.890  12.837   8.625  0.00  0.00     0.063 A 
HETATM    8  N   UNK N   1      23.305  12.469  11.311  0.00  0.00    -0.170 N 
HETATM    9  C   UNK N   1      22.065  12.304  10.775  0.00  0.00     0.678 A 
ATOM     10  HN  UNK N   1      23.441  12.334  12.313  1.00  0.00     0.186 HD
HETATM   11  N   UNK N   1      20.985  11.961  11.608  0.00  0.00    -0.234 N 
HETATM   12  N   UNK N   1      21.863  12.487   9.439  0.00  0.00    -0.191 N 
HETATM   13  H   UNK N   1      20.794  12.292  12.515  0.00  0.00     0.174 HD
HETATM   14  H   UNK N   1      20.343  11.311  11.240  0.00  0.00     0.174 HD
ATOM     15  HN  UNK N   1      20.929  12.360   9.047  1.00  0.00     0.184 HD
HETATM   16  C   UNK N   1      22.678  13.066   7.257  0.00  0.00     0.031 A 
HETATM   17  C   UNK N   1      23.743  13.493   6.449  0.00  0.00     0.009 A 
BRANCH   6  18
HETATM   18  O   UNK N   1      25.576  12.983  11.092  0.00  0.00    -0.345 OA
HETATM   19  H   UNK N   1      26.381  13.263  10.701  0.00  0.00     0.219 HD
ENDBRANCH   6  18
ENDBRANCH   2   3
ENDBRANCH   1   2
BRANCH   1  20
HETATM   20  C   UNK N   1      25.303  16.455   5.191  0.00  0.00     0.148 C 
HETATM   21  O   UNK N   1      24.200  16.791   5.585  0.00  0.00    -0.649 OA
BRANCH  20  22
HETATM   22  O   UNK N   1      25.702  16.781   3.946  0.00  0.00    -0.776 OA
HETATM   23  H   UNK N   1      25.785  17.353   3.209  0.00  0.00     0.167 HD
ENDBRANCH  20  22
ENDBRANCH   1  20
BRANCH   1  24
HETATM   24  C   UNK N   1      27.562  16.359   6.233  0.00  0.00    -0.044 A 
HETATM   25  C   UNK N   1      27.612  17.609   6.849  0.00  0.00     0.009 A 
HETATM   26  C   UNK N   1      28.823  18.127   7.267  0.00  0.00     0.017 A 
HETATM   27  C   UNK N   1      30.008  17.434   7.028  0.00  0.00     0.032 A 
HETATM   28  C   UNK N   1      29.967  16.212   6.342  0.00  0.00     0.017 A 
HETATM   29  C   UNK N   1      28.746  15.675   5.934  0.00  0.00     0.009 A 
BRANCH  27  30
HETATM   30  C   UNK N   1      30.989  17.505   8.083  0.00  0.00     0.252 C 
HETATM   31  O   UNK N   1      30.839  18.226   9.058  0.00  0.00    -0.268 OA
HETATM   32  N   UNK N   1      32.199  16.967   7.768  0.00  0.00    -0.343 N 
HETATM   33  H   UNK N   1      32.229  16.365   6.990  0.00  0.00     0.163 HD
BRANCH  32  34
HETATM   34  C   UNK N   1      33.433  17.193   8.463  0.00  0.00     0.183 C 
BRANCH  34  35
HETATM   35  C   UNK N   1      34.070  15.847   8.777  0.00  0.00     0.046 C 
BRANCH  35  36
HETATM   36  C   UNK N   1      34.400  15.705  10.243  0.00  0.00     0.112 C 
BRANCH  36  37
HETATM   37  C   UNK N   1      35.754  16.278  10.472  0.00  0.00     0.139 C 
HETATM   38  O   UNK N   1      35.900  17.482  10.616  0.00  0.00    -0.650 OA
BRANCH  37  39
HETATM   39  O   UNK N   1      36.816  15.458  10.546  0.00  0.00    -0.776 OA
HETATM   40  H   UNK N   1      37.038  14.884   9.838  0.00  0.00     0.167 HD
ENDBRANCH  37  39
ENDBRANCH  36  37
ENDBRANCH  35  36
ENDBRANCH  34  35
BRANCH  34  41
HETATM   41  C   UNK N   1      34.297  18.156   7.711  0.00  0.00     0.163 C 
HETATM   42  O   UNK N   1      34.377  18.066   6.496  0.00  0.00    -0.648 OA
BRANCH  41  43
HETATM   43  O   UNK N   1      34.969  19.126   8.356  0.00  0.00    -0.775 OA
HETATM   44  H   UNK N   1      35.873  19.369   8.320  0.00  0.00     0.167 HD
ENDBRANCH  41  43
ENDBRANCH  34  41
ENDBRANCH  32  34
ENDBRANCH  27  30
ENDBRANCH   1  24
TORSDOF 14
ENDMDL
MODEL 7
REMARK VINA RESULT:      -8.4      4.053      8.149
REMARK  14 active torsions:
REMARK  status: ('A' for Active; 'I' for Inactive)
REMARK       I    between atoms: N_1  and  C_2 
REMARK    1  A    between atoms: C_5  and  O_6 
REMARK    2  A    between atoms: C_9  and  C_10 
REMARK    3  A    between atoms: C_10  and  C_11 
REMARK    4  A    between atoms: C_11  and  C_12 
REMARK    5  A    between atoms: C_11  and  C_15 
REMARK    6  A    between atoms: C_12  and  O_13 
REMARK    7  A    between atoms: C_18  and  C_21 
REMARK       I    between atoms: C_21  and  N_23 
REMARK    8  A    between atoms: C_24  and  N_23 
REMARK    9  A    between atoms: C_24  and  C_25 
REMARK   10  A    between atoms: C_24  and  C_30 
REMARK   11  A    between atoms: C_25  and  C_26 
REMARK   12  A    between atoms: C_26  and  C_27 
REMARK   13  A    between atoms: C_27  and  O_28 
REMARK   14  A    between atoms: C_30  and  O_31 
ROOT
HETATM    1  C   UNK N   1      33.775  16.939   8.511  0.00  0.00     0.121 C 
ENDROOT
BRANCH   1   2
HETATM    2  C   UNK N   1      32.561  16.146   7.961  0.00  0.00     0.058 C 
BRANCH   2   3
HETATM    3  C   UNK N   1      31.322  16.959   7.812  0.00  0.00    -0.056 A 
HETATM    4  C   UNK N   1      30.821  17.173   6.532  0.00  0.00     0.025 A 
HETATM    5  C   UNK N   1      29.622  17.832   6.345  0.00  0.00     0.043 A 
HETATM    6  C   UNK N   1      29.069  17.961   5.073  0.00  0.00     0.167 A 
HETATM    7  C   UNK N   1      28.924  18.347   7.449  0.00  0.00     0.063 A 
HETATM    8  N   UNK N   1      27.876  18.585   4.926  0.00  0.00    -0.170 N 
HETATM    9  C   UNK N   1      27.211  19.092   6.001  0.00  0.00     0.678 A 
ATOM     10  HN  UNK N   1      27.469  18.677   3.995  1.00  0.00     0.186 HD
HETATM   11  N   UNK N   1      25.969  19.725   5.818  0.00  0.00    -0.234 N 
HETATM   12  N   UNK N   1      27.736  18.972   7.253  0.00  0.00    -0.191 N 
HETATM   13  H   UNK N   1      25.241  19.462   5.209  0.00  0.00     0.174 HD
HETATM   14  H   UNK N   1      25.808  20.529   6.363  0.00  0.00     0.174 HD
ATOM     15  HN  UNK N   1      27.231  19.356   8.051  1.00  0.00     0.184 HD
HETATM   16  C   UNK N   1      29.448  18.186   8.740  0.00  0.00     0.031 A 
HETATM   17  C   UNK N   1      30.645  17.476   8.924  0.00  0.00     0.009 A 
BRANCH   6  18
HETATM   18  O   UNK N   1      29.699  17.453   3.996  0.00  0.00    -0.345 OA
HETATM   19  H   UNK N   1      30.545  17.057   3.928  0.00  0.00     0.219 HD
ENDBRANCH   6  18
ENDBRANCH   2   3
ENDBRANCH   1   2
BRANCH   1  20
HETATM   20  C   UNK N   1      34.360  18.068   7.716  0.00  0.00     0.148 C 
HETATM   21  O   UNK N   1      34.848  19.024   8.294  0.00  0.00    -0.649 OA
BRANCH  20  22
HETATM   22  O   UNK N   1      34.384  18.010   6.370  0.00  0.00    -0.776 OA
HETATM   23  H   UNK N   1      34.493  17.580   5.546  0.00  0.00     0.167 HD
ENDBRANCH  20  22
ENDBRANCH   1  20
BRANCH   1  24
HETATM   24  C   UNK N   1      34.793  16.189   9.292  0.00  0.00    -0.044 A 
HETATM   25  C   UNK N   1      35.008  16.592  10.609  0.00  0.00     0.009 A 
HETATM   26  C   UNK N   1      35.700  15.772  11.480  0.00  0.00     0.017 A 
HETATM   27  C   UNK N   1      36.238  14.565  11.038  0.00  0.00     0.032 A 
HETATM   28  C   UNK N   1      36.086  14.193   9.694  0.00  0.00     0.017 A 
HETATM   29  C   UNK N   1      35.372  15.008   8.815  0.00  0.00     0.009 A 
BRANCH  27  30
HETATM   30  C   UNK N   1      36.169  13.476  11.980  0.00  0.00     0.252 C 
HETATM   31  O   UNK N   1      35.317  12.603  11.898  0.00  0.00    -0.268 OA
HETATM   32  N   UNK N   1      36.903  13.657  13.111  0.00  0.00    -0.343 N 
HETATM   33  H   UNK N   1      37.596  14.355  13.084  0.00  0.00     0.163 HD
BRANCH  32  34
HETATM   34  C   UNK N   1      36.761  12.930  14.339  0.00  0.00     0.183 C 
BRANCH  34  35
HETATM   35  C   UNK N   1      37.809  11.827  14.376  0.00  0.00     0.046 C 
BRANCH  35  36
HETATM   36  C   UNK N   1      37.195  10.457  14.226  0.00  0.00     0.112 C 
BRANCH  36  37
HETATM   37  C   UNK N   1      36.343  10.196  15.418  0.00  0.00     0.139 C 
HETATM   38  O   UNK N   1      36.832  10.181  16.536  0.00  0.00    -0.650 OA
BRANCH  37  39
HETATM   39  O   UNK N   1      35.022  10.004  15.258  0.00  0.00    -0.776 OA
HETATM   40  H   UNK N   1      34.481  10.657  14.858  0.00  0.00     0.167 HD
ENDBRANCH  37  39
ENDBRANCH  36  37
ENDBRANCH  35  36
ENDBRANCH  34  35
BRANCH  34  41
HETATM   41  C   UNK N   1      36.760  13.859  15.511  0.00  0.00     0.163 C 
HETATM   42  O   UNK N   1      35.931  13.708  16.395  0.00  0.00    -0.648 OA
BRANCH  41  43
HETATM   43  O   UNK N   1      37.669  14.845  15.609  0.00  0.00    -0.775 OA
HETATM   44  H   UNK N   1      37.871  15.549  15.025  0.00  0.00     0.167 HD
ENDBRANCH  41  43
ENDBRANCH  34  41
ENDBRANCH  32  34
ENDBRANCH  27  30
ENDBRANCH   1  24
TORSDOF 14
ENDMDL
MODEL 8
REMARK VINA RESULT:      -8.1      4.150      7.951
REMARK  14 active torsions:
REMARK  status: ('A' for Active; 'I' for Inactive)
REMARK       I    between atoms: N_1  and  C_2 
REMARK    1  A    between atoms: C_5  and  O_6 
REMARK    2  A    between atoms: C_9  and  C_10 
REMARK    3  A    between atoms: C_10  and  C_11 
REMARK    4  A    between atoms: C_11  and  C_12 
REMARK    5  A    between atoms: C_11  and  C_15 
REMARK    6  A    between atoms: C_12  and  O_13 
REMARK    7  A    between atoms: C_18  and  C_21 
REMARK       I    between atoms: C_21  and  N_23 
REMARK    8  A    between atoms: C_24  and  N_23 
REMARK    9  A    between atoms: C_24  and  C_25 
REMARK   10  A    between atoms: C_24  and  C_30 
REMARK   11  A    between atoms: C_25  and  C_26 
REMARK   12  A    between atoms: C_26  and  C_27 
REMARK   13  A    between atoms: C_27  and  O_28 
REMARK   14  A    between atoms: C_30  and  O_31 
ROOT
HETATM    1  C   UNK N   1      33.821  16.924   8.665  0.00  0.00     0.121 C 
ENDROOT
BRANCH   1   2
HETATM    2  C   UNK N   1      32.551  16.125   8.275  0.00  0.00     0.058 C 
BRANCH   2   3
HETATM    3  C   UNK N   1      31.334  16.967   8.101  0.00  0.00    -0.056 A 
HETATM    4  C   UNK N   1      30.858  17.187   6.814  0.00  0.00     0.025 A 
HETATM    5  C   UNK N   1      29.679  17.872   6.604  0.00  0.00     0.043 A 
HETATM    6  C   UNK N   1      29.148  18.009   5.323  0.00  0.00     0.167 A 
HETATM    7  C   UNK N   1      28.976  18.411   7.695  0.00  0.00     0.063 A 
HETATM    8  N   UNK N   1      27.973  18.660   5.154  0.00  0.00    -0.170 N 
HETATM    9  C   UNK N   1      27.305  19.189   6.216  0.00  0.00     0.678 A 
ATOM     10  HN  UNK N   1      27.583  18.757   4.216  1.00  0.00     0.186 HD
HETATM   11  N   UNK N   1      26.081  19.851   6.011  0.00  0.00    -0.234 N 
HETATM   12  N   UNK N   1      27.807  19.063   7.478  0.00  0.00    -0.191 N 
HETATM   13  H   UNK N   1      25.356  19.602   5.392  0.00  0.00     0.174 HD
HETATM   14  H   UNK N   1      25.931  20.661   6.550  0.00  0.00     0.174 HD
ATOM     15  HN  UNK N   1      27.299  19.464   8.266  1.00  0.00     0.184 HD
HETATM   16  C   UNK N   1      29.476  18.244   8.995  0.00  0.00     0.031 A 
HETATM   17  C   UNK N   1      30.653  17.507   9.200  0.00  0.00     0.009 A 
BRANCH   6  18
HETATM   18  O   UNK N   1      29.782  17.479   4.259  0.00  0.00    -0.345 OA
HETATM   19  H   UNK N   1      29.437  16.990   3.537  0.00  0.00     0.219 HD
ENDBRANCH   6  18
ENDBRANCH   2   3
ENDBRANCH   1   2
BRANCH   1  20
HETATM   20  C   UNK N   1      34.299  18.050   7.798  0.00  0.00     0.148 C 
HETATM   21  O   UNK N   1      34.756  19.056   8.312  0.00  0.00    -0.649 OA
BRANCH  20  22
HETATM   22  O   UNK N   1      34.262  17.937   6.456  0.00  0.00    -0.776 OA
HETATM   23  H   UNK N   1      34.341  17.476   5.645  0.00  0.00     0.167 HD
ENDBRANCH  20  22
ENDBRANCH   1  20
BRANCH   1  24
HETATM   24  C   UNK N   1      34.931  16.179   9.315  0.00  0.00    -0.044 A 
HETATM   25  C   UNK N   1      35.248  16.527  10.627  0.00  0.00     0.009 A 
HETATM   26  C   UNK N   1      36.044  15.696  11.391  0.00  0.00     0.017 A 
HETATM   27  C   UNK N   1      36.584  14.534  10.843  0.00  0.00     0.032 A 
HETATM   28  C   UNK N   1      36.327  14.221   9.500  0.00  0.00     0.017 A 
HETATM   29  C   UNK N   1      35.509  15.047   8.729  0.00  0.00     0.009 A 
BRANCH  27  30
HETATM   30  C   UNK N   1      36.638  13.399  11.731  0.00  0.00     0.252 C 
HETATM   31  O   UNK N   1      37.607  12.655  11.768  0.00  0.00    -0.268 OA
HETATM   32  N   UNK N   1      35.442  13.049  12.277  0.00  0.00    -0.343 N 
HETATM   33  H   UNK N   1      34.723  13.720  12.241  0.00  0.00     0.163 HD
BRANCH  32  34
HETATM   34  C   UNK N   1      35.130  11.795  12.901  0.00  0.00     0.183 C 
BRANCH  34  35
HETATM   35  C   UNK N   1      34.634  12.064  14.315  0.00  0.00     0.046 C 
BRANCH  35  36
HETATM   36  C   UNK N   1      35.746  11.977  15.331  0.00  0.00     0.112 C 
BRANCH  36  37
HETATM   37  C   UNK N   1      36.067  13.356  15.788  0.00  0.00     0.139 C 
HETATM   38  O   UNK N   1      36.760  14.090  15.101  0.00  0.00    -0.650 OA
BRANCH  37  39
HETATM   39  O   UNK N   1      35.564  13.801  16.952  0.00  0.00    -0.776 OA
HETATM   40  H   UNK N   1      36.058  14.374  17.507  0.00  0.00     0.167 HD
ENDBRANCH  37  39
ENDBRANCH  36  37
ENDBRANCH  35  36
ENDBRANCH  34  35
BRANCH  34  41
HETATM   41  C   UNK N   1      34.215  10.986  12.038  0.00  0.00     0.163 C 
HETATM   42  O   UNK N   1      33.816   9.904  12.439  0.00  0.00    -0.648 OA
BRANCH  41  43
HETATM   43  O   UNK N   1      33.816  11.444  10.838  0.00  0.00    -0.775 OA
HETATM   44  H   UNK N   1      34.291  11.555  10.039  0.00  0.00     0.167 HD
ENDBRANCH  41  43
ENDBRANCH  34  41
ENDBRANCH  32  34
ENDBRANCH  27  30
ENDBRANCH   1  24
TORSDOF 14
ENDMDL
MODEL 9
REMARK VINA RESULT:      -8.0      4.088      9.459
REMARK  14 active torsions:
REMARK  status: ('A' for Active; 'I' for Inactive)
REMARK       I    between atoms: N_1  and  C_2 
REMARK    1  A    between atoms: C_5  and  O_6 
REMARK    2  A    between atoms: C_9  and  C_10 
REMARK    3  A    between atoms: C_10  and  C_11 
REMARK    4  A    between atoms: C_11  and  C_12 
REMARK    5  A    between atoms: C_11  and  C_15 
REMARK    6  A    between atoms: C_12  and  O_13 
REMARK    7  A    between atoms: C_18  and  C_21 
REMARK       I    between atoms: C_21  and  N_23 
REMARK    8  A    between atoms: C_24  and  N_23 
REMARK    9  A    between atoms: C_24  and  C_25 
REMARK   10  A    between atoms: C_24  and  C_30 
REMARK   11  A    between atoms: C_25  and  C_26 
REMARK   12  A    between atoms: C_26  and  C_27 
REMARK   13  A    between atoms: C_27  and  O_28 
REMARK   14  A    between atoms: C_30  and  O_31 
ROOT
HETATM    1  C   UNK N   1      29.349  14.981   4.282  0.00  0.00     0.121 C 
ENDROOT
BRANCH   1   2
HETATM    2  C   UNK N   1      30.208  16.196   4.719  0.00  0.00     0.058 C 
BRANCH   2   3
HETATM    3  C   UNK N   1      29.497  17.152   5.613  0.00  0.00    -0.056 A 
HETATM    4  C   UNK N   1      28.832  18.228   5.037  0.00  0.00     0.025 A 
HETATM    5  C   UNK N   1      28.073  19.085   5.809  0.00  0.00     0.043 A 
HETATM    6  C   UNK N   1      27.326  20.104   5.223  0.00  0.00     0.167 A 
HETATM    7  C   UNK N   1      28.016  18.910   7.202  0.00  0.00     0.063 A 
HETATM    8  N   UNK N   1      26.567  20.908   6.006  0.00  0.00    -0.170 N 
HETATM    9  C   UNK N   1      26.527  20.739   7.356  0.00  0.00     0.678 A 
ATOM     10  HN  UNK N   1      26.017  21.652   5.576  1.00  0.00     0.186 HD
HETATM   11  N   UNK N   1      25.722  21.583   8.141  0.00  0.00    -0.234 N 
HETATM   12  N   UNK N   1      27.250  19.745   7.947  0.00  0.00    -0.191 N 
HETATM   13  H   UNK N   1      24.822  21.924   7.932  0.00  0.00     0.174 HD
HETATM   14  H   UNK N   1      26.103  21.867   9.003  0.00  0.00     0.174 HD
ATOM     15  HN  UNK N   1      27.213  19.628   8.960  1.00  0.00     0.184 HD
HETATM   16  C   UNK N   1      28.730  17.861   7.801  0.00  0.00     0.031 A 
HETATM   17  C   UNK N   1      29.461  16.969   7.002  0.00  0.00     0.009 A 
BRANCH   6  18
HETATM   18  O   UNK N   1      27.335  20.280   3.888  0.00  0.00    -0.345 OA
HETATM   19  H   UNK N   1      27.432  21.066   3.387  0.00  0.00     0.219 HD
ENDBRANCH   6  18
ENDBRANCH   2   3
ENDBRANCH   1   2
BRANCH   1  20
HETATM   20  C   UNK N   1      29.960  13.881   3.466  0.00  0.00     0.148 C 
HETATM   21  O   UNK N   1      31.106  13.990   3.067  0.00  0.00    -0.649 OA
BRANCH  20  22
HETATM   22  O   UNK N   1      29.261  12.759   3.208  0.00  0.00    -0.776 OA
HETATM   23  H   UNK N   1      28.480  12.244   3.155  0.00  0.00     0.167 HD
ENDBRANCH  20  22
ENDBRANCH   1  20
BRANCH   1  24
HETATM   24  C   UNK N   1      27.922  15.230   3.947  0.00  0.00    -0.044 A 
HETATM   25  C   UNK N   1      27.004  15.176   4.995  0.00  0.00     0.009 A 
HETATM   26  C   UNK N   1      25.731  15.685   4.827  0.00  0.00     0.017 A 
HETATM   27  C   UNK N   1      25.334  16.204   3.597  0.00  0.00     0.032 A 
HETATM   28  C   UNK N   1      26.232  16.190   2.519  0.00  0.00     0.017 A 
HETATM   29  C   UNK N   1      27.526  15.695   2.688  0.00  0.00     0.009 A 
BRANCH  27  30
HETATM   30  C   UNK N   1      24.482  17.365   3.661  0.00  0.00     0.252 C 
HETATM   31  O   UNK N   1      24.914  18.494   3.481  0.00  0.00    -0.268 OA
HETATM   32  N   UNK N   1      23.265  17.145   4.228  0.00  0.00    -0.343 N 
HETATM   33  H   UNK N   1      22.972  16.208   4.302  0.00  0.00     0.163 HD
BRANCH  32  34
HETATM   34  C   UNK N   1      22.369  18.147   4.729  0.00  0.00     0.183 C 
BRANCH  34  35
HETATM   35  C   UNK N   1      21.342  18.466   3.652  0.00  0.00     0.046 C 
BRANCH  35  36
HETATM   36  C   UNK N   1      20.988  19.932   3.623  0.00  0.00     0.112 C 
BRANCH  36  37
HETATM   37  C   UNK N   1      21.828  20.593   2.587  0.00  0.00     0.139 C 
HETATM   38  O   UNK N   1      21.364  20.851   1.488  0.00  0.00    -0.650 OA
BRANCH  37  39
HETATM   39  O   UNK N   1      23.096  20.929   2.878  0.00  0.00    -0.776 OA
HETATM   40  H   UNK N   1      23.563  21.559   2.363  0.00  0.00     0.167 HD
ENDBRANCH  37  39
ENDBRANCH  36  37
ENDBRANCH  35  36
ENDBRANCH  34  35
BRANCH  34  41
HETATM   41  C   UNK N   1      21.809  17.744   6.056  0.00  0.00     0.163 C 
HETATM   42  O   UNK N   1      21.376  18.603   6.809  0.00  0.00    -0.648 OA
BRANCH  41  43
HETATM   43  O   UNK N   1      21.763  16.450   6.420  0.00  0.00    -0.775 OA
HETATM   44  H   UNK N   1      21.137  15.984   6.938  0.00  0.00     0.167 HD
ENDBRANCH  41  43
ENDBRANCH  34  41
ENDBRANCH  32  34
ENDBRANCH  27  30
ENDBRANCH   1  24
TORSDOF 14
ENDMDL
