MODEL 1
REMARK VINA RESULT:      -5.7      0.000      0.000
REMARK  8 active torsions:
REMARK  status: ('A' for Active; 'I' for Inactive)
REMARK    1  A    between atoms: P_2  and  O_3 
REMARK    2  A    between atoms: P_2  and  O_4 
REMARK    3  A    between atoms: P_2  and  O_5 
REMARK    4  A    between atoms: C_6  and  O_5 
REMARK    5  A    between atoms: C_8  and  C_9 
REMARK    6  A    between atoms: C_9  and  O_11 
REMARK    7  A    between atoms: C_13  and  O_14 
REMARK    8  A    between atoms: C_15  and  O_16 
ROOT
HETATM    1  C   UNK N   1      31.111  17.353   7.825  0.00  0.00     0.188 C 
HETATM    2  C   UNK N   1      32.382  17.758   8.530  0.00  0.00     0.022 C 
HETATM    3  C   UNK N   1      33.593  17.752   7.940  0.00  0.00     0.017 C 
HETATM    4  C   UNK N   1      33.770  17.298   6.507  0.00  0.00     0.079 C 
HETATM    5  C   UNK N   1      32.571  16.539   5.947  0.00  0.00     0.154 C 
HETATM    6  C   UNK N   1      31.285  17.262   6.304  0.00  0.00     0.180 C 
ENDROOT
BRANCH   1   7
HETATM    7  O   UNK N   1      30.106  18.288   8.109  0.00  0.00    -0.285 OA
BRANCH   7   8
HETATM    8  P   UNK N   1      28.988  17.487   9.177  0.00  0.00     0.391 P 
HETATM    9  O   UNK N   1      29.303  18.776   9.982  0.00  0.00    -0.632 OA
BRANCH   8  10
HETATM   10  O   UNK N   1      27.402  18.136   9.458  0.00  0.00    -0.307 OA
HETATM   11  H   UNK N   1      27.145  19.065   9.360  0.00  0.00     0.222 HD
ENDBRANCH   8  10
BRANCH   8  12
HETATM   12  O   UNK N   1      28.176  17.930   7.707  0.00  0.00    -0.307 OA
HETATM   13  H   UNK N   1      27.351  17.725   7.241  0.00  0.00     0.222 HD
ENDBRANCH   8  12
ENDBRANCH   7   8
ENDBRANCH   1   7
BRANCH   6  14
HETATM   14  O   UNK N   1      30.197  16.588   5.746  0.00  0.00    -0.390 OA
HETATM   15  H   UNK N   1      29.362  17.041   5.552  0.00  0.00     0.210 HD
ENDBRANCH   6  14
BRANCH   3  16
HETATM   16  C   UNK N   1      34.777  18.219   8.692  0.00  0.00     0.171 C 
HETATM   17  O   UNK N   1      35.315  19.273   8.398  0.00  0.00    -0.646 OA
BRANCH  16  18
HETATM   18  O   UNK N   1      35.266  17.487   9.715  0.00  0.00    -0.773 OA
HETATM   19  H   UNK N   1      35.174  17.790  10.597  0.00  0.00     0.167 HD
ENDBRANCH  16  18
ENDBRANCH   3  16
BRANCH   5  20
HETATM   20  O   UNK N   1      32.696  16.462   4.560  0.00  0.00    -0.393 OA
HETATM   21  H   UNK N   1      32.055  16.017   3.983  0.00  0.00     0.210 HD
ENDBRANCH   5  20
TORSDOF 8
ENDMDL
MODEL 2
REMARK VINA RESULT:      -5.4      1.626      2.204
REMARK  8 active torsions:
REMARK  status: ('A' for Active; 'I' for Inactive)
REMARK    1  A    between atoms: P_2  and  O_3 
REMARK    2  A    between atoms: P_2  and  O_4 
REMARK    3  A    between atoms: P_2  and  O_5 
REMARK    4  A    between atoms: C_6  and  O_5 
REMARK    5  A    between atoms: C_8  and  C_9 
REMARK    6  A    between atoms: C_9  and  O_11 
REMARK    7  A    between atoms: C_13  and  O_14 
REMARK    8  A    between atoms: C_15  and  O_16 
ROOT
HETATM    1  C   UNK N   1      30.115  17.282   6.523  0.00  0.00     0.188 C 
HETATM    2  C   UNK N   1      31.596  17.251   6.808  0.00  0.00     0.022 C 
HETATM    3  C   UNK N   1      32.536  17.183   5.845  0.00  0.00     0.017 C 
HETATM    4  C   UNK N   1      32.162  17.098   4.381  0.00  0.00     0.079 C 
HETATM    5  C   UNK N   1      30.698  16.742   4.138  0.00  0.00     0.154 C 
HETATM    6  C   UNK N   1      29.805  17.565   5.048  0.00  0.00     0.180 C 
ENDROOT
BRANCH   1   7
HETATM    7  O   UNK N   1      29.513  18.275   7.309  0.00  0.00    -0.285 OA
BRANCH   7   8
HETATM    8  P   UNK N   1      28.711  17.442   8.611  0.00  0.00     0.391 P 
HETATM    9  O   UNK N   1      29.393  18.607   9.374  0.00  0.00    -0.632 OA
BRANCH   8  10
HETATM   10  O   UNK N   1      27.369  18.165   9.441  0.00  0.00    -0.307 OA
HETATM   11  H   UNK N   1      26.452  18.184   9.126  0.00  0.00     0.222 HD
ENDBRANCH   8  10
BRANCH   8  12
HETATM   12  O   UNK N   1      27.528  18.101   7.523  0.00  0.00    -0.307 OA
HETATM   13  H   UNK N   1      27.025  18.921   7.405  0.00  0.00     0.222 HD
ENDBRANCH   8  12
ENDBRANCH   7   8
ENDBRANCH   1   7
BRANCH   6  14
HETATM   14  O   UNK N   1      28.466  17.269   4.784  0.00  0.00    -0.390 OA
HETATM   15  H   UNK N   1      28.192  16.844   3.956  0.00  0.00     0.210 HD
ENDBRANCH   6  14
BRANCH   3  16
HETATM   16  C   UNK N   1      33.967  17.215   6.215  0.00  0.00     0.171 C 
HETATM   17  O   UNK N   1      34.720  16.333   5.836  0.00  0.00    -0.646 OA
BRANCH  16  18
HETATM   18  O   UNK N   1      34.454  18.225   6.967  0.00  0.00    -0.773 OA
HETATM   19  H   UNK N   1      35.199  18.712   6.676  0.00  0.00     0.167 HD
ENDBRANCH  16  18
ENDBRANCH   3  16
BRANCH   5  20
HETATM   20  O   UNK N   1      30.386  17.011   2.805  0.00  0.00    -0.393 OA
HETATM   21  H   UNK N   1      29.487  17.187   2.485  0.00  0.00     0.210 HD
ENDBRANCH   5  20
TORSDOF 8
ENDMDL
MODEL 3
REMARK VINA RESULT:      -5.2      2.307      5.523
REMARK  8 active torsions:
REMARK  status: ('A' for Active; 'I' for Inactive)
REMARK    1  A    between atoms: P_2  and  O_3 
REMARK    2  A    between atoms: P_2  and  O_4 
REMARK    3  A    between atoms: P_2  and  O_5 
REMARK    4  A    between atoms: C_6  and  O_5 
REMARK    5  A    between atoms: C_8  and  C_9 
REMARK    6  A    between atoms: C_9  and  O_11 
REMARK    7  A    between atoms: C_13  and  O_14 
REMARK    8  A    between atoms: C_15  and  O_16 
ROOT
HETATM    1  C   UNK N   1      30.961  17.506   8.175  0.00  0.00     0.188 C 
HETATM    2  C   UNK N   1      30.660  17.364   6.703  0.00  0.00     0.022 C 
HETATM    3  C   UNK N   1      29.433  17.537   6.176  0.00  0.00     0.017 C 
HETATM    4  C   UNK N   1      28.239  17.861   7.046  0.00  0.00     0.079 C 
HETATM    5  C   UNK N   1      28.475  17.619   8.534  0.00  0.00     0.154 C 
HETATM    6  C   UNK N   1      29.822  18.184   8.945  0.00  0.00     0.180 C 
ENDROOT
BRANCH   1   7
HETATM    7  O   UNK N   1      32.130  18.262   8.338  0.00  0.00    -0.285 OA
BRANCH   7   8
HETATM    8  P   UNK N   1      33.447  17.226   7.862  0.00  0.00     0.391 P 
HETATM    9  O   UNK N   1      34.149  18.610   7.896  0.00  0.00    -0.632 OA
BRANCH   8  10
HETATM   10  O   UNK N   1      34.780  16.929   8.932  0.00  0.00    -0.307 OA
HETATM   11  H   UNK N   1      35.046  16.064   9.280  0.00  0.00     0.222 HD
ENDBRANCH   8  10
BRANCH   8  12
HETATM   12  O   UNK N   1      32.935  16.818   9.470  0.00  0.00    -0.307 OA
HETATM   13  H   UNK N   1      32.838  17.247  10.334  0.00  0.00     0.222 HD
ENDBRANCH   8  12
ENDBRANCH   7   8
ENDBRANCH   1   7
BRANCH   6  14
HETATM   14  O   UNK N   1      30.009  18.002  10.317  0.00  0.00    -0.390 OA
HETATM   15  H   UNK N   1      30.463  17.222  10.670  0.00  0.00     0.210 HD
ENDBRANCH   6  14
BRANCH   3  16
HETATM   16  C   UNK N   1      29.243  17.434   4.713  0.00  0.00     0.171 C 
HETATM   17  O   UNK N   1      29.743  16.511   4.091  0.00  0.00    -0.646 OA
BRANCH  16  18
HETATM   18  O   UNK N   1      28.507  18.355   4.055  0.00  0.00    -0.773 OA
HETATM   19  H   UNK N   1      28.418  19.221   4.402  0.00  0.00     0.167 HD
ENDBRANCH  16  18
ENDBRANCH   3  16
BRANCH   5  20
HETATM   20  O   UNK N   1      27.462  18.246   9.259  0.00  0.00    -0.393 OA
HETATM   21  H   UNK N   1      27.338  19.207   9.294  0.00  0.00     0.210 HD
ENDBRANCH   5  20
TORSDOF 8
ENDMDL
MODEL 4
REMARK VINA RESULT:      -5.2      8.690     10.491
REMARK  8 active torsions:
REMARK  status: ('A' for Active; 'I' for Inactive)
REMARK    1  A    between atoms: P_2  and  O_3 
REMARK    2  A    between atoms: P_2  and  O_4 
REMARK    3  A    between atoms: P_2  and  O_5 
REMARK    4  A    between atoms: C_6  and  O_5 
REMARK    5  A    between atoms: C_8  and  C_9 
REMARK    6  A    between atoms: C_9  and  O_11 
REMARK    7  A    between atoms: C_13  and  O_14 
REMARK    8  A    between atoms: C_15  and  O_16 
ROOT
HETATM    1  C   UNK N   1      35.542  12.713  14.968  0.00  0.00     0.188 C 
HETATM    2  C   UNK N   1      35.182  12.618  16.431  0.00  0.00     0.022 C 
HETATM    3  C   UNK N   1      35.609  13.497  17.358  0.00  0.00     0.017 C 
HETATM    4  C   UNK N   1      36.524  14.646  16.996  0.00  0.00     0.079 C 
HETATM    5  C   UNK N   1      37.179  14.504  15.625  0.00  0.00     0.154 C 
HETATM    6  C   UNK N   1      36.148  14.072  14.598  0.00  0.00     0.180 C 
ENDROOT
BRANCH   1   7
HETATM    7  O   UNK N   1      34.391  12.507  14.195  0.00  0.00    -0.285 OA
BRANCH   7   8
HETATM    8  P   UNK N   1      34.579  10.941  13.455  0.00  0.00     0.391 P 
HETATM    9  O   UNK N   1      33.233  10.760  14.204  0.00  0.00    -0.632 OA
BRANCH   8  10
HETATM   10  O   UNK N   1      33.522  10.425  12.179  0.00  0.00    -0.307 OA
HETATM   11  H   UNK N   1      33.031  11.007  11.579  0.00  0.00     0.222 HD
ENDBRANCH   8  10
BRANCH   8  12
HETATM   12  O   UNK N   1      34.377  12.149  12.223  0.00  0.00    -0.307 OA
HETATM   13  H   UNK N   1      34.110  12.202  11.292  0.00  0.00     0.222 HD
ENDBRANCH   8  12
ENDBRANCH   7   8
ENDBRANCH   1   7
BRANCH   6  14
HETATM   14  O   UNK N   1      36.745  13.993  13.339  0.00  0.00    -0.390 OA
HETATM   15  H   UNK N   1      36.903  13.142  12.902  0.00  0.00     0.210 HD
ENDBRANCH   6  14
BRANCH   3  16
HETATM   16  C   UNK N   1      35.159  13.357  18.761  0.00  0.00     0.171 C 
HETATM   17  O   UNK N   1      34.835  14.342  19.403  0.00  0.00    -0.646 OA
BRANCH  16  18
HETATM   18  O   UNK N   1      35.096  12.138  19.337  0.00  0.00    -0.773 OA
HETATM   19  H   UNK N   1      35.610  11.950  20.097  0.00  0.00     0.167 HD
ENDBRANCH  16  18
ENDBRANCH   3  16
BRANCH   5  20
HETATM   20  O   UNK N   1      37.721  15.736  15.256  0.00  0.00    -0.393 OA
HETATM   21  H   UNK N   1      38.410  16.196  15.761  0.00  0.00     0.210 HD
ENDBRANCH   5  20
TORSDOF 8
ENDMDL
MODEL 5
REMARK VINA RESULT:      -5.2     11.337     13.984
REMARK  8 active torsions:
REMARK  status: ('A' for Active; 'I' for Inactive)
REMARK    1  A    between atoms: P_2  and  O_3 
REMARK    2  A    between atoms: P_2  and  O_4 
REMARK    3  A    between atoms: P_2  and  O_5 
REMARK    4  A    between atoms: C_6  and  O_5 
REMARK    5  A    between atoms: C_8  and  C_9 
REMARK    6  A    between atoms: C_9  and  O_11 
REMARK    7  A    between atoms: C_13  and  O_14 
REMARK    8  A    between atoms: C_15  and  O_16 
ROOT
HETATM    1  C   UNK N   1      42.923  23.077   1.959  0.00  0.00     0.188 C 
HETATM    2  C   UNK N   1      42.143  21.812   2.222  0.00  0.00     0.022 C 
HETATM    3  C   UNK N   1      42.523  20.878   3.115  0.00  0.00     0.017 C 
HETATM    4  C   UNK N   1      43.803  21.020   3.909  0.00  0.00     0.079 C 
HETATM    5  C   UNK N   1      44.755  22.080   3.363  0.00  0.00     0.154 C 
HETATM    6  C   UNK N   1      43.987  23.346   3.030  0.00  0.00     0.180 C 
ENDROOT
BRANCH   1   7
HETATM    7  O   UNK N   1      42.040  24.165   1.916  0.00  0.00    -0.285 OA
BRANCH   7   8
HETATM    8  P   UNK N   1      41.536  24.315   0.256  0.00  0.00     0.391 P 
HETATM    9  O   UNK N   1      40.449  25.155   0.978  0.00  0.00    -0.632 OA
BRANCH   8  10
HETATM   10  O   UNK N   1      41.643  25.835  -0.575  0.00  0.00    -0.307 OA
HETATM   11  H   UNK N   1      41.206  26.055  -1.412  0.00  0.00     0.222 HD
ENDBRANCH   8  10
BRANCH   8  12
HETATM   12  O   UNK N   1      43.076  25.089   0.471  0.00  0.00    -0.307 OA
HETATM   13  H   UNK N   1      43.932  24.903   0.887  0.00  0.00     0.222 HD
ENDBRANCH   8  12
ENDBRANCH   7   8
ENDBRANCH   1   7
BRANCH   6  14
HETATM   14  O   UNK N   1      44.872  24.327   2.578  0.00  0.00    -0.390 OA
HETATM   15  H   UNK N   1      44.890  24.608   1.650  0.00  0.00     0.210 HD
ENDBRANCH   6  14
BRANCH   3  16
HETATM   16  C   UNK N   1      41.666  19.696   3.348  0.00  0.00     0.171 C 
HETATM   17  O   UNK N   1      42.009  18.598   2.941  0.00  0.00    -0.646 OA
BRANCH  16  18
HETATM   18  O   UNK N   1      40.502  19.821   4.019  0.00  0.00    -0.773 OA
HETATM   19  H   UNK N   1      40.273  20.638   4.416  0.00  0.00     0.167 HD
ENDBRANCH  16  18
ENDBRANCH   3  16
BRANCH   5  20
HETATM   20  O   UNK N   1      45.721  22.358   4.330  0.00  0.00    -0.393 OA
HETATM   21  H   UNK N   1      46.440  21.750   4.566  0.00  0.00     0.210 HD
ENDBRANCH   5  20
TORSDOF 8
ENDMDL
MODEL 6
REMARK VINA RESULT:      -5.1     12.440     13.274
REMARK  8 active torsions:
REMARK  status: ('A' for Active; 'I' for Inactive)
REMARK    1  A    between atoms: P_2  and  O_3 
REMARK    2  A    between atoms: P_2  and  O_4 
REMARK    3  A    between atoms: P_2  and  O_5 
REMARK    4  A    between atoms: C_6  and  O_5 
REMARK    5  A    between atoms: C_8  and  C_9 
REMARK    6  A    between atoms: C_9  and  O_11 
REMARK    7  A    between atoms: C_13  and  O_14 
REMARK    8  A    between atoms: C_15  and  O_16 
ROOT
HETATM    1  C   UNK N   1      20.077  17.751   2.178  0.00  0.00     0.188 C 
HETATM    2  C   UNK N   1      19.701  17.314   3.572  0.00  0.00     0.022 C 
HETATM    3  C   UNK N   1      19.506  16.028   3.920  0.00  0.00     0.017 C 
HETATM    4  C   UNK N   1      19.621  14.910   2.906  0.00  0.00     0.079 C 
HETATM    5  C   UNK N   1      19.614  15.388   1.457  0.00  0.00     0.154 C 
HETATM    6  C   UNK N   1      20.536  16.582   1.298  0.00  0.00     0.180 C 
ENDROOT
BRANCH   1   7
HETATM    7  O   UNK N   1      21.111  18.695   2.251  0.00  0.00    -0.285 OA
BRANCH   7   8
HETATM    8  P   UNK N   1      20.339  20.247   2.413  0.00  0.00     0.391 P 
HETATM    9  O   UNK N   1      21.660  20.484   3.193  0.00  0.00    -0.632 OA
BRANCH   8  10
HETATM   10  O   UNK N   1      20.982  21.650   1.618  0.00  0.00    -0.307 OA
HETATM   11  H   UNK N   1      21.679  22.228   1.964  0.00  0.00     0.222 HD
ENDBRANCH   8  10
BRANCH   8  12
HETATM   12  O   UNK N   1      20.719  19.956   0.744  0.00  0.00    -0.307 OA
HETATM   13  H   UNK N   1      20.270  19.663  -0.065  0.00  0.00     0.222 HD
ENDBRANCH   8  12
ENDBRANCH   7   8
ENDBRANCH   1   7
BRANCH   6  14
HETATM   14  O   UNK N   1      20.561  16.981  -0.039  0.00  0.00    -0.390 OA
HETATM   15  H   UNK N   1      21.141  16.552  -0.688  0.00  0.00     0.210 HD
ENDBRANCH   6  14
BRANCH   3  16
HETATM   16  C   UNK N   1      19.195  15.688   5.325  0.00  0.00     0.171 C 
HETATM   17  O   UNK N   1      20.066  15.251   6.059  0.00  0.00    -0.646 OA
BRANCH  16  18
HETATM   18  O   UNK N   1      17.948  15.866   5.809  0.00  0.00    -0.773 OA
HETATM   19  H   UNK N   1      17.464  15.137   6.143  0.00  0.00     0.167 HD
ENDBRANCH  16  18
ENDBRANCH   3  16
BRANCH   5  20
HETATM   20  O   UNK N   1      20.049  14.345   0.638  0.00  0.00    -0.393 OA
HETATM   21  H   UNK N   1      19.641  14.120  -0.213  0.00  0.00     0.210 HD
ENDBRANCH   5  20
TORSDOF 8
ENDMDL
MODEL 7
REMARK VINA RESULT:      -5.1      1.713      3.903
REMARK  8 active torsions:
REMARK  status: ('A' for Active; 'I' for Inactive)
REMARK    1  A    between atoms: P_2  and  O_3 
REMARK    2  A    between atoms: P_2  and  O_4 
REMARK    3  A    between atoms: P_2  and  O_5 
REMARK    4  A    between atoms: C_6  and  O_5 
REMARK    5  A    between atoms: C_8  and  C_9 
REMARK    6  A    between atoms: C_9  and  O_11 
REMARK    7  A    between atoms: C_13  and  O_14 
REMARK    8  A    between atoms: C_15  and  O_16 
ROOT
HETATM    1  C   UNK N   1      30.888  17.606   7.019  0.00  0.00     0.188 C 
HETATM    2  C   UNK N   1      30.769  17.382   5.532  0.00  0.00     0.022 C 
HETATM    3  C   UNK N   1      31.818  17.091   4.739  0.00  0.00     0.017 C 
HETATM    4  C   UNK N   1      33.224  17.000   5.292  0.00  0.00     0.079 C 
HETATM    5  C   UNK N   1      33.379  17.601   6.686  0.00  0.00     0.154 C 
HETATM    6  C   UNK N   1      32.239  17.146   7.578  0.00  0.00     0.180 C 
ENDROOT
BRANCH   1   7
HETATM    7  O   UNK N   1      29.865  16.907   7.676  0.00  0.00    -0.285 OA
BRANCH   7   8
HETATM    8  P   UNK N   1      28.624  18.078   8.026  0.00  0.00     0.391 P 
HETATM    9  O   UNK N   1      27.774  16.873   7.543  0.00  0.00    -0.632 OA
BRANCH   8  10
HETATM   10  O   UNK N   1      27.532  17.850   9.355  0.00  0.00    -0.307 OA
HETATM   11  H   UNK N   1      27.456  18.427  10.131  0.00  0.00     0.222 HD
ENDBRANCH   8  10
BRANCH   8  12
HETATM   12  O   UNK N   1      29.440  17.636   9.494  0.00  0.00    -0.307 OA
HETATM   13  H   UNK N   1      29.322  17.023  10.237  0.00  0.00     0.222 HD
ENDBRANCH   8  12
ENDBRANCH   7   8
ENDBRANCH   1   7
BRANCH   6  14
HETATM   14  O   UNK N   1      32.416  17.660   8.864  0.00  0.00    -0.390 OA
HETATM   15  H   UNK N   1      33.299  17.835   9.226  0.00  0.00     0.210 HD
ENDBRANCH   6  14
BRANCH   3  16
HETATM   16  C   UNK N   1      31.599  16.831   3.300  0.00  0.00     0.171 C 
HETATM   17  O   UNK N   1      32.537  16.536   2.579  0.00  0.00    -0.646 OA
BRANCH  16  18
HETATM   18  O   UNK N   1      30.357  16.908   2.776  0.00  0.00    -0.773 OA
HETATM   19  H   UNK N   1      29.611  16.691   3.299  0.00  0.00     0.167 HD
ENDBRANCH  16  18
ENDBRANCH   3  16
BRANCH   5  20
HETATM   20  O   UNK N   1      34.595  17.178   7.225  0.00  0.00    -0.393 OA
HETATM   21  H   UNK N   1      34.858  17.326   8.146  0.00  0.00     0.210 HD
ENDBRANCH   5  20
TORSDOF 8
ENDMDL
MODEL 8
REMARK VINA RESULT:      -5.0      8.763     10.795
REMARK  8 active torsions:
REMARK  status: ('A' for Active; 'I' for Inactive)
REMARK    1  A    between atoms: P_2  and  O_3 
REMARK    2  A    between atoms: P_2  and  O_4 
REMARK    3  A    between atoms: P_2  and  O_5 
REMARK    4  A    between atoms: C_6  and  O_5 
REMARK    5  A    between atoms: C_8  and  C_9 
REMARK    6  A    between atoms: C_9  and  O_11 
REMARK    7  A    between atoms: C_13  and  O_14 
REMARK    8  A    between atoms: C_15  and  O_16 
ROOT
HETATM    1  C   UNK N   1      21.829  12.508   8.388  0.00  0.00     0.188 C 
HETATM    2  C   UNK N   1      22.123  12.077   9.804  0.00  0.00     0.022 C 
HETATM    3  C   UNK N   1      23.276  12.359  10.441  0.00  0.00     0.017 C 
HETATM    4  C   UNK N   1      24.393  13.115   9.755  0.00  0.00     0.079 C 
HETATM    5  C   UNK N   1      24.241  13.198   8.238  0.00  0.00     0.154 C 
HETATM    6  C   UNK N   1      22.814  13.566   7.878  0.00  0.00     0.180 C 
ENDROOT
BRANCH   1   7
HETATM    7  O   UNK N   1      20.530  13.032   8.325  0.00  0.00    -0.285 OA
BRANCH   7   8
HETATM    8  P   UNK N   1      20.651  14.692   8.837  0.00  0.00     0.391 P 
HETATM    9  O   UNK N   1      20.005  14.855   7.435  0.00  0.00    -0.632 OA
BRANCH   8  10
HETATM   10  O   UNK N   1      19.230  15.619   9.200  0.00  0.00    -0.307 OA
HETATM   11  H   UNK N   1      19.103  16.179   9.981  0.00  0.00     0.222 HD
ENDBRANCH   8  10
BRANCH   8  12
HETATM   12  O   UNK N   1      19.543  13.842   9.869  0.00  0.00    -0.307 OA
HETATM   13  H   UNK N   1      19.532  13.053  10.434  0.00  0.00     0.222 HD
ENDBRANCH   8  12
ENDBRANCH   7   8
ENDBRANCH   1   7
BRANCH   6  14
HETATM   14  O   UNK N   1      22.697  13.687   6.492  0.00  0.00    -0.390 OA
HETATM   15  H   UNK N   1      21.877  13.995   6.075  0.00  0.00     0.210 HD
ENDBRANCH   6  14
BRANCH   3  16
HETATM   16  C   UNK N   1      23.455  11.945  11.850  0.00  0.00     0.171 C 
HETATM   17  O   UNK N   1      24.559  11.985  12.367  0.00  0.00    -0.646 OA
BRANCH  16  18
HETATM   18  O   UNK N   1      22.397  11.529  12.577  0.00  0.00    -0.773 OA
HETATM   19  H   UNK N   1      21.559  11.424  12.171  0.00  0.00     0.167 HD
ENDBRANCH  16  18
ENDBRANCH   3  16
BRANCH   5  20
HETATM   20  O   UNK N   1      25.114  14.171   7.752  0.00  0.00    -0.393 OA
HETATM   21  H   UNK N   1      26.080  14.082   7.757  0.00  0.00     0.210 HD
ENDBRANCH   5  20
TORSDOF 8
ENDMDL
MODEL 9
REMARK VINA RESULT:      -5.0     10.338     12.501
REMARK  8 active torsions:
REMARK  status: ('A' for Active; 'I' for Inactive)
REMARK    1  A    between atoms: P_2  and  O_3 
REMARK    2  A    between atoms: P_2  and  O_4 
REMARK    3  A    between atoms: P_2  and  O_5 
REMARK    4  A    between atoms: C_6  and  O_5 
REMARK    5  A    between atoms: C_8  and  C_9 
REMARK    6  A    between atoms: C_9  and  O_11 
REMARK    7  A    between atoms: C_13  and  O_14 
REMARK    8  A    between atoms: C_15  and  O_16 
ROOT
HETATM    1  C   UNK N   1      35.706  12.769  16.895  0.00  0.00     0.188 C 
HETATM    2  C   UNK N   1      35.555  11.268  16.851  0.00  0.00     0.022 C 
HETATM    3  C   UNK N   1      35.185  10.528  17.914  0.00  0.00     0.017 C 
HETATM    4  C   UNK N   1      34.923  11.161  19.263  0.00  0.00     0.079 C 
HETATM    5  C   UNK N   1      35.448  12.588  19.389  0.00  0.00     0.154 C 
HETATM    6  C   UNK N   1      35.083  13.387  18.151  0.00  0.00     0.180 C 
ENDROOT
BRANCH   1   7
HETATM    7  O   UNK N   1      35.095  13.329  15.764  0.00  0.00    -0.285 OA
BRANCH   7   8
HETATM    8  P   UNK N   1      36.201  13.082  14.442  0.00  0.00     0.391 P 
HETATM    9  O   UNK N   1      34.934  13.565  13.688  0.00  0.00    -0.632 OA
BRANCH   8  10
HETATM   10  O   UNK N   1      36.814  14.425  13.529  0.00  0.00    -0.307 OA
HETATM   11  H   UNK N   1      37.463  14.373  12.811  0.00  0.00     0.222 HD
ENDBRANCH   8  10
BRANCH   8  12
HETATM   12  O   UNK N   1      36.777  14.372  15.453  0.00  0.00    -0.307 OA
HETATM   13  H   UNK N   1      37.056  15.297  15.365  0.00  0.00     0.222 HD
ENDBRANCH   8  12
ENDBRANCH   7   8
ENDBRANCH   1   7
BRANCH   6  14
HETATM   14  O   UNK N   1      35.524  14.704  18.296  0.00  0.00    -0.390 OA
HETATM   15  H   UNK N   1      36.073  15.134  17.622  0.00  0.00     0.210 HD
ENDBRANCH   6  14
BRANCH   3  16
HETATM   16  C   UNK N   1      35.007   9.068  17.764  0.00  0.00     0.171 C 
HETATM   17  O   UNK N   1      34.293   8.453  18.539  0.00  0.00    -0.646 OA
BRANCH  16  18
HETATM   18  O   UNK N   1      35.625   8.406  16.763  0.00  0.00    -0.773 OA
HETATM   19  H   UNK N   1      35.308   7.569  16.487  0.00  0.00     0.167 HD
ENDBRANCH  16  18
ENDBRANCH   3  16
BRANCH   5  20
HETATM   20  O   UNK N   1      34.877  13.180  20.515  0.00  0.00    -0.393 OA
HETATM   21  H   UNK N   1      34.637  14.118  20.570  0.00  0.00     0.210 HD
ENDBRANCH   5  20
TORSDOF 8
ENDMDL
