MODEL 1
REMARK VINA RESULT:      -3.2      0.000      0.000
REMARK  1 active torsions:
REMARK  status: ('A' for Active; 'I' for Inactive)
REMARK    1  A    between atoms: C_2  and  C_3 
REMARK       I    between atoms: C_3  and  N_4 
ROOT
HETATM    1  C   UNK N   1      34.546  18.157   8.388  0.00  0.00     0.214 C 
HETATM    2  N   UNK N   1      34.309  17.416   9.487  0.00  0.00    -0.370 N 
HETATM    3  O   UNK N   1      35.249  19.152   8.470  0.00  0.00    -0.274 OA
HETATM    4  H   UNK N   1      34.701  17.677  10.350  0.00  0.00     0.159 HD
HETATM    5  H   UNK N   1      33.742  16.613   9.426  0.00  0.00     0.159 HD
ENDROOT
BRANCH   1   6
HETATM    6  C   UNK N   1      33.938  17.742   7.080  0.00  0.00     0.098 C 
HETATM    7  C   UNK N   1      32.469  17.378   7.212  0.00  0.00     0.014 C 
ENDBRANCH   1   6
TORSDOF 1
ENDMDL
MODEL 2
REMARK VINA RESULT:      -3.1     12.512     12.717
REMARK  1 active torsions:
REMARK  status: ('A' for Active; 'I' for Inactive)
REMARK    1  A    between atoms: C_2  and  C_3 
REMARK       I    between atoms: C_3  and  N_4 
ROOT
HETATM    1  C   UNK N   1      23.682  12.103  11.989  0.00  0.00     0.214 C 
HETATM    2  N   UNK N   1      24.823  12.254  11.291  0.00  0.00    -0.370 N 
HETATM    3  O   UNK N   1      23.726  12.010  13.206  0.00  0.00    -0.274 OA
HETATM    4  H   UNK N   1      25.686  12.288  11.761  0.00  0.00     0.159 HD
HETATM    5  H   UNK N   1      24.793  12.329  10.310  0.00  0.00     0.159 HD
ENDROOT
BRANCH   1   6
HETATM    6  C   UNK N   1      22.375  12.053  11.254  0.00  0.00     0.098 C 
HETATM    7  C   UNK N   1      22.248  13.156  10.218  0.00  0.00     0.014 C 
ENDBRANCH   1   6
TORSDOF 1
ENDMDL
MODEL 3
REMARK VINA RESULT:      -2.9     17.370     17.677
REMARK  1 active torsions:
REMARK  status: ('A' for Active; 'I' for Inactive)
REMARK    1  A    between atoms: C_2  and  C_3 
REMARK       I    between atoms: C_3  and  N_4 
ROOT
HETATM    1  C   UNK N   1      25.911  27.736  -3.481  0.00  0.00     0.214 C 
HETATM    2  N   UNK N   1      25.855  29.082  -3.485  0.00  0.00    -0.370 N 
HETATM    3  O   UNK N   1      25.896  27.134  -2.419  0.00  0.00    -0.274 OA
HETATM    4  H   UNK N   1      25.801  29.574  -2.635  0.00  0.00     0.159 HD
HETATM    5  H   UNK N   1      25.867  29.572  -4.338  0.00  0.00     0.159 HD
ENDROOT
BRANCH   1   6
HETATM    6  C   UNK N   1      25.992  27.004  -4.787  0.00  0.00     0.098 C 
HETATM    7  C   UNK N   1      24.725  27.146  -5.613  0.00  0.00     0.014 C 
ENDBRANCH   1   6
TORSDOF 1
ENDMDL
MODEL 4
REMARK VINA RESULT:      -2.9     10.938     11.303
REMARK  1 active torsions:
REMARK  status: ('A' for Active; 'I' for Inactive)
REMARK    1  A    between atoms: C_2  and  C_3 
REMARK       I    between atoms: C_3  and  N_4 
ROOT
HETATM    1  C   UNK N   1      35.214  13.409  18.818  0.00  0.00     0.214 C 
HETATM    2  N   UNK N   1      35.118  12.977  20.090  0.00  0.00    -0.370 N 
HETATM    3  O   UNK N   1      35.318  14.604  18.592  0.00  0.00    -0.274 OA
HETATM    4  H   UNK N   1      35.132  13.624  20.831  0.00  0.00     0.159 HD
HETATM    5  H   UNK N   1      35.033  12.014  20.277  0.00  0.00     0.159 HD
ENDROOT
BRANCH   1   6
HETATM    6  C   UNK N   1      35.190  12.407  17.701  0.00  0.00     0.098 C 
HETATM    7  C   UNK N   1      34.768  13.022  16.378  0.00  0.00     0.014 C 
ENDBRANCH   1   6
TORSDOF 1
ENDMDL
MODEL 5
REMARK VINA RESULT:      -2.9     14.988     15.066
REMARK  1 active torsions:
REMARK  status: ('A' for Active; 'I' for Inactive)
REMARK    1  A    between atoms: C_2  and  C_3 
REMARK       I    between atoms: C_3  and  N_4 
ROOT
HETATM    1  C   UNK N   1      20.800  20.667   1.975  0.00  0.00     0.214 C 
HETATM    2  N   UNK N   1      20.441  20.991   0.717  0.00  0.00    -0.370 N 
HETATM    3  O   UNK N   1      21.714  21.269   2.516  0.00  0.00    -0.274 OA
HETATM    4  H   UNK N   1      20.915  21.708   0.240  0.00  0.00     0.159 HD
HETATM    5  H   UNK N   1      19.705  20.508   0.277  0.00  0.00     0.159 HD
ENDROOT
BRANCH   1   6
HETATM    6  C   UNK N   1      20.065  19.570   2.686  0.00  0.00     0.098 C 
HETATM    7  C   UNK N   1      20.207  18.228   1.989  0.00  0.00     0.014 C 
ENDBRANCH   1   6
TORSDOF 1
ENDMDL
MODEL 6
REMARK VINA RESULT:      -2.9     13.951     14.316
REMARK  1 active torsions:
REMARK  status: ('A' for Active; 'I' for Inactive)
REMARK    1  A    between atoms: C_2  and  C_3 
REMARK       I    between atoms: C_3  and  N_4 
ROOT
HETATM    1  C   UNK N   1      20.834  12.670  10.786  0.00  0.00     0.214 C 
HETATM    2  N   UNK N   1      20.565  11.869  11.835  0.00  0.00    -0.370 N 
HETATM    3  O   UNK N   1      19.917  13.217  10.193  0.00  0.00    -0.274 OA
HETATM    4  H   UNK N   1      19.635  11.728  12.120  0.00  0.00     0.159 HD
HETATM    5  H   UNK N   1      21.301  11.425  12.315  0.00  0.00     0.159 HD
ENDROOT
BRANCH   1   6
HETATM    6  C   UNK N   1      22.259  12.873  10.366  0.00  0.00     0.098 C 
HETATM    7  C   UNK N   1      23.153  11.710  10.761  0.00  0.00     0.014 C 
ENDBRANCH   1   6
TORSDOF 1
ENDMDL
MODEL 7
REMARK VINA RESULT:      -2.8     11.327     11.594
REMARK  1 active torsions:
REMARK  status: ('A' for Active; 'I' for Inactive)
REMARK    1  A    between atoms: C_2  and  C_3 
REMARK       I    between atoms: C_3  and  N_4 
ROOT
HETATM    1  C   UNK N   1      43.700  22.609   4.283  0.00  0.00     0.214 C 
HETATM    2  N   UNK N   1      43.548  23.812   3.695  0.00  0.00    -0.370 N 
HETATM    3  O   UNK N   1      43.985  22.548   5.468  0.00  0.00    -0.274 OA
HETATM    4  H   UNK N   1      43.667  24.634   4.221  0.00  0.00     0.159 HD
HETATM    5  H   UNK N   1      43.317  23.866   2.740  0.00  0.00     0.159 HD
ENDROOT
BRANCH   1   6
HETATM    6  C   UNK N   1      43.514  21.366   3.464  0.00  0.00     0.098 C 
HETATM    7  C   UNK N   1      44.795  20.560   3.334  0.00  0.00     0.014 C 
ENDBRANCH   1   6
TORSDOF 1
ENDMDL
MODEL 8
REMARK VINA RESULT:      -2.7     18.579     18.971
REMARK  1 active torsions:
REMARK  status: ('A' for Active; 'I' for Inactive)
REMARK    1  A    between atoms: C_2  and  C_3 
REMARK       I    between atoms: C_3  and  N_4 
ROOT
HETATM    1  C   UNK N   1      51.567  22.926  12.276  0.00  0.00     0.214 C 
HETATM    2  N   UNK N   1      51.344  24.200  11.901  0.00  0.00    -0.370 N 
HETATM    3  O   UNK N   1      50.742  22.344  12.963  0.00  0.00    -0.274 OA
HETATM    4  H   UNK N   1      50.519  24.657  12.181  0.00  0.00     0.159 HD
HETATM    5  H   UNK N   1      52.006  24.673  11.347  0.00  0.00     0.159 HD
ENDROOT
BRANCH   1   6
HETATM    6  C   UNK N   1      52.831  22.245  11.840  0.00  0.00     0.098 C 
HETATM    7  C   UNK N   1      52.972  20.850  12.425  0.00  0.00     0.014 C 
ENDBRANCH   1   6
TORSDOF 1
ENDMDL
MODEL 9
REMARK VINA RESULT:      -2.7      8.071      8.543
REMARK  1 active torsions:
REMARK  status: ('A' for Active; 'I' for Inactive)
REMARK    1  A    between atoms: C_2  and  C_3 
REMARK       I    between atoms: C_3  and  N_4 
ROOT
HETATM    1  C   UNK N   1      35.869  13.662  14.311  0.00  0.00     0.214 C 
HETATM    2  N   UNK N   1      36.723  14.596  13.853  0.00  0.00    -0.370 N 
HETATM    3  O   UNK N   1      34.846  13.421  13.689  0.00  0.00    -0.274 OA
HETATM    4  H   UNK N   1      36.523  15.080  13.021  0.00  0.00     0.159 HD
HETATM    5  H   UNK N   1      37.549  14.794  14.352  0.00  0.00     0.159 HD
ENDROOT
BRANCH   1   6
HETATM    6  C   UNK N   1      36.192  12.934  15.583  0.00  0.00     0.098 C 
HETATM    7  C   UNK N   1      35.154  13.168  16.666  0.00  0.00     0.014 C 
ENDBRANCH   1   6
TORSDOF 1
ENDMDL
