MODEL 1
REMARK VINA RESULT:      -5.9      0.000      0.000
REMARK  4 active torsions:
REMARK  status: ('A' for Active; 'I' for Inactive)
REMARK    1  A    between atoms: C_10  and  C_9 
REMARK    2  A    between atoms: C_11  and  C_10 
REMARK    3  A    between atoms: C_10  and  N_12 
REMARK    4  A    between atoms: O_14  and  C_11 
ROOT
HETATM    1  C   UNK N   1      35.269  12.601  19.728  0.00  0.00     0.001 A 
HETATM    2  C   UNK N   1      35.566  11.229  19.632  0.00  0.00     0.001 A 
HETATM    3  C   UNK N   1      35.123  13.373  18.565  0.00  0.00     0.007 A 
HETATM    4  C   UNK N   1      35.721  10.631  18.373  0.00  0.00     0.007 A 
HETATM    5  C   UNK N   1      35.158  13.400  16.004  0.00  0.00     0.046 C 
HETATM    6  C   UNK N   1      35.700  10.963  15.842  0.00  0.00     0.046 C 
HETATM    7  C   UNK N   1      35.272  12.751  17.324  0.00  0.00    -0.051 A 
HETATM    8  C   UNK N   1      35.564  11.421  17.233  0.00  0.00    -0.051 A 
HETATM    9  C   UNK N   1      35.250  12.200  15.029  0.00  0.00     0.027 C 
ENDROOT
BRANCH   9  10
HETATM   10  C   UNK N   1      36.125  12.501  13.801  0.00  0.00     0.178 C 
BRANCH  10  11
HETATM   11  C   UNK N   1      35.738  13.803  13.132  0.00  0.00     0.163 C 
HETATM   12  O   UNK N   1      34.673  13.909  12.544  0.00  0.00    -0.648 OA
BRANCH  11  13
HETATM   13  O   UNK N   1      36.558  14.870  13.210  0.00  0.00    -0.775 OA
HETATM   14  H   UNK N   1      36.281  15.740  13.003  0.00  0.00     0.167 HD
ENDBRANCH  11  13
ENDBRANCH  10  11
BRANCH  10  15
HETATM   15  N   UNK N   1      37.522  12.554  14.216  0.00  0.00    -0.417 N 
HETATM   16  H   UNK N   1      38.297  12.648  13.561  0.00  0.00     0.150 HD
HETATM   17  H   UNK N   1      37.733  12.495  15.213  0.00  0.00     0.150 HD
ENDBRANCH  10  15
ENDBRANCH   9  10
TORSDOF 4
ENDMDL
MODEL 2
REMARK VINA RESULT:      -5.6      1.260      2.248
REMARK  4 active torsions:
REMARK  status: ('A' for Active; 'I' for Inactive)
REMARK    1  A    between atoms: C_10  and  C_9 
REMARK    2  A    between atoms: C_11  and  C_10 
REMARK    3  A    between atoms: C_10  and  N_12 
REMARK    4  A    between atoms: O_14  and  C_11 
ROOT
HETATM    1  C   UNK N   1      35.318  11.465  18.667  0.00  0.00     0.001 A 
HETATM    2  C   UNK N   1      35.064  12.847  18.726  0.00  0.00     0.001 A 
HETATM    3  C   UNK N   1      35.847  10.896  17.498  0.00  0.00     0.007 A 
HETATM    4  C   UNK N   1      35.335  13.660  17.615  0.00  0.00     0.007 A 
HETATM    5  C   UNK N   1      36.670  11.309  15.107  0.00  0.00     0.046 C 
HETATM    6  C   UNK N   1      36.200  13.764  15.216  0.00  0.00     0.046 C 
HETATM    7  C   UNK N   1      36.118  11.728  16.410  0.00  0.00    -0.051 A 
HETATM    8  C   UNK N   1      35.867  13.068  16.468  0.00  0.00    -0.051 A 
HETATM    9  C   UNK N   1      36.902  12.661  14.388  0.00  0.00     0.027 C 
ENDROOT
BRANCH   9  10
HETATM   10  C   UNK N   1      36.488  12.624  12.908  0.00  0.00     0.178 C 
BRANCH  10  11
HETATM   11  C   UNK N   1      35.027  12.974  12.717  0.00  0.00     0.163 C 
HETATM   12  O   UNK N   1      34.701  14.038  12.216  0.00  0.00    -0.648 OA
BRANCH  11  13
HETATM   13  O   UNK N   1      34.072  12.091  13.072  0.00  0.00    -0.775 OA
HETATM   14  H   UNK N   1      34.264  11.269  13.479  0.00  0.00     0.167 HD
ENDBRANCH  11  13
ENDBRANCH  10  11
BRANCH  10  15
HETATM   15  N   UNK N   1      37.322  13.556  12.159  0.00  0.00    -0.417 N 
HETATM   16  H   UNK N   1      37.903  13.276  11.369  0.00  0.00     0.150 HD
HETATM   17  H   UNK N   1      37.324  14.536  12.439  0.00  0.00     0.150 HD
ENDBRANCH  10  15
ENDBRANCH   9  10
TORSDOF 4
ENDMDL
MODEL 3
REMARK VINA RESULT:      -5.6      2.618      3.869
REMARK  4 active torsions:
REMARK  status: ('A' for Active; 'I' for Inactive)
REMARK    1  A    between atoms: C_10  and  C_9 
REMARK    2  A    between atoms: C_11  and  C_10 
REMARK    3  A    between atoms: C_10  and  N_12 
REMARK    4  A    between atoms: O_14  and  C_11 
ROOT
HETATM    1  C   UNK N   1      34.771  10.745  15.525  0.00  0.00     0.001 A 
HETATM    2  C   UNK N   1      35.591  11.555  16.331  0.00  0.00     0.001 A 
HETATM    3  C   UNK N   1      34.450  11.147  14.219  0.00  0.00     0.007 A 
HETATM    4  C   UNK N   1      36.086  12.770  15.833  0.00  0.00     0.007 A 
HETATM    5  C   UNK N   1      34.732  12.936  12.407  0.00  0.00     0.046 C 
HETATM    6  C   UNK N   1      36.178  14.378  13.853  0.00  0.00     0.046 C 
HETATM    7  C   UNK N   1      34.964  12.355  13.744  0.00  0.00    -0.051 A 
HETATM    8  C   UNK N   1      35.756  13.141  14.529  0.00  0.00    -0.051 A 
HETATM    9  C   UNK N   1      35.675  14.166  12.405  0.00  0.00     0.027 C 
ENDROOT
BRANCH   9  10
HETATM   10  C   UNK N   1      35.025  15.408  11.774  0.00  0.00     0.178 C 
BRANCH  10  11
HETATM   11  C   UNK N   1      35.998  16.179  10.907  0.00  0.00     0.163 C 
HETATM   12  O   UNK N   1      35.669  17.235  10.389  0.00  0.00    -0.648 OA
BRANCH  11  13
HETATM   13  O   UNK N   1      37.252  15.718  10.728  0.00  0.00    -0.775 OA
HETATM   14  H   UNK N   1      37.741  15.298  11.408  0.00  0.00     0.167 HD
ENDBRANCH  11  13
ENDBRANCH  10  11
BRANCH  10  15
HETATM   15  N   UNK N   1      33.877  14.990  10.978  0.00  0.00    -0.417 N 
HETATM   16  H   UNK N   1      33.822  15.113   9.968  0.00  0.00     0.150 HD
HETATM   17  H   UNK N   1      33.090  14.552  11.457  0.00  0.00     0.150 HD
ENDBRANCH  10  15
ENDBRANCH   9  10
TORSDOF 4
ENDMDL
MODEL 4
REMARK VINA RESULT:      -5.6      7.323     10.834
REMARK  4 active torsions:
REMARK  status: ('A' for Active; 'I' for Inactive)
REMARK    1  A    between atoms: C_10  and  C_9 
REMARK    2  A    between atoms: C_11  and  C_10 
REMARK    3  A    between atoms: C_10  and  N_12 
REMARK    4  A    between atoms: O_14  and  C_11 
ROOT
HETATM    1  C   UNK N   1      30.884  17.442   4.762  0.00  0.00     0.001 A 
HETATM    2  C   UNK N   1      32.154  17.666   4.198  0.00  0.00     0.001 A 
HETATM    3  C   UNK N   1      30.766  17.099   6.118  0.00  0.00     0.007 A 
HETATM    4  C   UNK N   1      33.305  17.544   4.990  0.00  0.00     0.007 A 
HETATM    5  C   UNK N   1      31.998  16.644   8.318  0.00  0.00     0.046 C 
HETATM    6  C   UNK N   1      34.252  17.030   7.304  0.00  0.00     0.046 C 
HETATM    7  C   UNK N   1      31.928  16.994   6.886  0.00  0.00    -0.051 A 
HETATM    8  C   UNK N   1      33.159  17.209   6.337  0.00  0.00    -0.051 A 
HETATM    9  C   UNK N   1      33.499  16.849   8.643  0.00  0.00     0.027 C 
ENDROOT
BRANCH   9  10
HETATM   10  C   UNK N   1      34.067  15.739   9.542  0.00  0.00     0.178 C 
BRANCH  10  11
HETATM   11  C   UNK N   1      35.226  16.227  10.385  0.00  0.00     0.163 C 
HETATM   12  O   UNK N   1      36.350  15.783  10.216  0.00  0.00    -0.648 OA
BRANCH  11  13
HETATM   13  O   UNK N   1      35.028  17.186  11.311  0.00  0.00    -0.775 OA
HETATM   14  H   UNK N   1      35.730  17.611  11.762  0.00  0.00     0.167 HD
ENDBRANCH  11  13
ENDBRANCH  10  11
BRANCH  10  15
HETATM   15  N   UNK N   1      33.004  15.238  10.405  0.00  0.00    -0.417 N 
HETATM   16  H   UNK N   1      33.165  14.577  11.165  0.00  0.00     0.150 HD
HETATM   17  H   UNK N   1      32.052  15.566  10.241  0.00  0.00     0.150 HD
ENDBRANCH  10  15
ENDBRANCH   9  10
TORSDOF 4
ENDMDL
MODEL 5
REMARK VINA RESULT:      -5.5     27.780     28.496
REMARK  4 active torsions:
REMARK  status: ('A' for Active; 'I' for Inactive)
REMARK    1  A    between atoms: C_10  and  C_9 
REMARK    2  A    between atoms: C_11  and  C_10 
REMARK    3  A    between atoms: C_10  and  N_12 
REMARK    4  A    between atoms: O_14  and  C_11 
ROOT
HETATM    1  C   UNK N   1      27.282  29.686  -4.781  0.00  0.00     0.001 A 
HETATM    2  C   UNK N   1      26.269  29.240  -3.913  0.00  0.00     0.001 A 
HETATM    3  C   UNK N   1      27.557  28.981  -5.963  0.00  0.00     0.007 A 
HETATM    4  C   UNK N   1      25.535  28.086  -4.224  0.00  0.00     0.007 A 
HETATM    5  C   UNK N   1      26.955  26.978  -7.443  0.00  0.00     0.046 C 
HETATM    6  C   UNK N   1      25.165  26.183  -5.885  0.00  0.00     0.046 C 
HETATM    7  C   UNK N   1      26.805  27.842  -6.255  0.00  0.00    -0.051 A 
HETATM    8  C   UNK N   1      25.825  27.408  -5.409  0.00  0.00    -0.051 A 
HETATM    9  C   UNK N   1      25.761  26.000  -7.301  0.00  0.00     0.027 C 
ENDROOT
BRANCH   9  10
HETATM   10  C   UNK N   1      26.141  24.550  -7.644  0.00  0.00     0.178 C 
BRANCH  10  11
HETATM   11  C   UNK N   1      25.192  23.938  -8.653  0.00  0.00     0.163 C 
HETATM   12  O   UNK N   1      25.112  24.387  -9.786  0.00  0.00    -0.648 OA
BRANCH  11  13
HETATM   13  O   UNK N   1      24.449  22.866  -8.314  0.00  0.00    -0.775 OA
HETATM   14  H   UNK N   1      23.576  22.732  -8.628  0.00  0.00     0.167 HD
ENDBRANCH  11  13
ENDBRANCH  10  11
BRANCH  10  15
HETATM   15  N   UNK N   1      27.502  24.528  -8.167  0.00  0.00    -0.417 N 
HETATM   16  H   UNK N   1      27.762  24.049  -9.029  0.00  0.00     0.150 HD
HETATM   17  H   UNK N   1      28.229  25.015  -7.644  0.00  0.00     0.150 HD
ENDBRANCH  10  15
ENDBRANCH   9  10
TORSDOF 4
ENDMDL
MODEL 6
REMARK VINA RESULT:      -5.5      9.427     10.770
REMARK  4 active torsions:
REMARK  status: ('A' for Active; 'I' for Inactive)
REMARK    1  A    between atoms: C_10  and  C_9 
REMARK    2  A    between atoms: C_11  and  C_10 
REMARK    3  A    between atoms: C_10  and  N_12 
REMARK    4  A    between atoms: O_14  and  C_11 
ROOT
HETATM    1  C   UNK N   1      28.156  17.907   8.824  0.00  0.00     0.001 A 
HETATM    2  C   UNK N   1      28.014  17.168   7.636  0.00  0.00     0.001 A 
HETATM    3  C   UNK N   1      29.429  18.323   9.247  0.00  0.00     0.007 A 
HETATM    4  C   UNK N   1      29.145  16.841   6.872  0.00  0.00     0.007 A 
HETATM    5  C   UNK N   1      31.942  18.341   8.750  0.00  0.00     0.046 C 
HETATM    6  C   UNK N   1      31.681  17.014   6.645  0.00  0.00     0.046 C 
HETATM    7  C   UNK N   1      30.536  17.994   8.464  0.00  0.00    -0.051 A 
HETATM    8  C   UNK N   1      30.397  17.273   7.313  0.00  0.00    -0.051 A 
HETATM    9  C   UNK N   1      32.674  17.866   7.470  0.00  0.00     0.027 C 
ENDROOT
BRANCH   9  10
HETATM   10  C   UNK N   1      34.007  17.163   7.777  0.00  0.00     0.178 C 
BRANCH  10  11
HETATM   11  C   UNK N   1      34.881  17.982   8.703  0.00  0.00     0.163 C 
HETATM   12  O   UNK N   1      35.223  19.114   8.400  0.00  0.00    -0.648 OA
BRANCH  11  13
HETATM   13  O   UNK N   1      35.263  17.473   9.892  0.00  0.00    -0.775 OA
HETATM   14  H   UNK N   1      35.852  17.917  10.470  0.00  0.00     0.167 HD
ENDBRANCH  11  13
ENDBRANCH  10  11
BRANCH  10  15
HETATM   15  N   UNK N   1      33.729  15.864   8.377  0.00  0.00    -0.417 N 
HETATM   16  H   UNK N   1      32.824  15.612   8.772  0.00  0.00     0.150 HD
HETATM   17  H   UNK N   1      34.479  15.172   8.403  0.00  0.00     0.150 HD
ENDBRANCH  10  15
ENDBRANCH   9  10
TORSDOF 4
ENDMDL
MODEL 7
REMARK VINA RESULT:      -5.2     15.326     16.387
REMARK  4 active torsions:
REMARK  status: ('A' for Active; 'I' for Inactive)
REMARK    1  A    between atoms: C_10  and  C_9 
REMARK    2  A    between atoms: C_11  and  C_10 
REMARK    3  A    between atoms: C_10  and  N_12 
REMARK    4  A    between atoms: O_14  and  C_11 
ROOT
HETATM    1  C   UNK N   1      22.487  11.662  11.172  0.00  0.00     0.001 A 
HETATM    2  C   UNK N   1      23.608  11.988  10.387  0.00  0.00     0.001 A 
HETATM    3  C   UNK N   1      21.288  12.376  11.018  0.00  0.00     0.007 A 
HETATM    4  C   UNK N   1      23.532  13.030   9.451  0.00  0.00     0.007 A 
HETATM    5  C   UNK N   1      20.069  14.256   9.775  0.00  0.00     0.046 C 
HETATM    6  C   UNK N   1      22.072  14.837   8.394  0.00  0.00     0.046 C 
HETATM    7  C   UNK N   1      21.235  13.402  10.072  0.00  0.00    -0.051 A 
HETATM    8  C   UNK N   1      22.325  13.718   9.314  0.00  0.00    -0.051 A 
HETATM    9  C   UNK N   1      20.551  15.071   8.549  0.00  0.00     0.027 C 
ENDROOT
BRANCH   9  10
HETATM   10  C   UNK N   1      20.144  16.552   8.626  0.00  0.00     0.178 C 
BRANCH  10  11
HETATM   11  C   UNK N   1      20.430  17.288   7.334  0.00  0.00     0.163 C 
HETATM   12  O   UNK N   1      20.266  16.741   6.256  0.00  0.00    -0.648 OA
BRANCH  11  13
HETATM   13  O   UNK N   1      20.840  18.572   7.368  0.00  0.00    -0.775 OA
HETATM   14  H   UNK N   1      20.642  19.187   6.689  0.00  0.00     0.167 HD
ENDBRANCH  11  13
ENDBRANCH  10  11
BRANCH  10  15
HETATM   15  N   UNK N   1      18.723  16.637   8.941  0.00  0.00    -0.417 N 
HETATM   16  H   UNK N   1      18.015  16.911   8.260  0.00  0.00     0.150 HD
HETATM   17  H   UNK N   1      18.422  16.411   9.889  0.00  0.00     0.150 HD
ENDBRANCH  10  15
ENDBRANCH   9  10
TORSDOF 4
ENDMDL
MODEL 8
REMARK VINA RESULT:      -5.2      1.139      1.972
REMARK  4 active torsions:
REMARK  status: ('A' for Active; 'I' for Inactive)
REMARK    1  A    between atoms: C_10  and  C_9 
REMARK    2  A    between atoms: C_11  and  C_10 
REMARK    3  A    between atoms: C_10  and  N_12 
REMARK    4  A    between atoms: O_14  and  C_11 
ROOT
HETATM    1  C   UNK N   1      36.162  10.066  19.520  0.00  0.00     0.001 A 
HETATM    2  C   UNK N   1      35.581  11.205  20.105  0.00  0.00     0.001 A 
HETATM    3  C   UNK N   1      36.386  10.022  18.134  0.00  0.00     0.007 A 
HETATM    4  C   UNK N   1      35.219  12.299  19.305  0.00  0.00     0.007 A 
HETATM    5  C   UNK N   1      36.182  11.260  15.900  0.00  0.00     0.046 C 
HETATM    6  C   UNK N   1      35.135  13.276  16.948  0.00  0.00     0.046 C 
HETATM    7  C   UNK N   1      36.026  11.128  17.362  0.00  0.00    -0.051 A 
HETATM    8  C   UNK N   1      35.458  12.231  17.932  0.00  0.00    -0.051 A 
HETATM    9  C   UNK N   1      35.775  12.734  15.649  0.00  0.00     0.027 C 
ENDROOT
BRANCH   9  10
HETATM   10  C   UNK N   1      34.900  12.901  14.396  0.00  0.00     0.178 C 
BRANCH  10  11
HETATM   11  C   UNK N   1      35.543  13.810  13.370  0.00  0.00     0.163 C 
HETATM   12  O   UNK N   1      34.915  14.194  12.396  0.00  0.00    -0.648 OA
BRANCH  11  13
HETATM   13  O   UNK N   1      36.812  14.230  13.545  0.00  0.00    -0.775 OA
HETATM   14  H   UNK N   1      37.513  13.979  12.977  0.00  0.00     0.167 HD
ENDBRANCH  11  13
ENDBRANCH  10  11
BRANCH  10  15
HETATM   15  N   UNK N   1      34.656  11.588  13.810  0.00  0.00    -0.417 N 
HETATM   16  H   UNK N   1      34.537  11.435  12.809  0.00  0.00     0.150 HD
HETATM   17  H   UNK N   1      34.603  10.782  14.433  0.00  0.00     0.150 HD
ENDBRANCH  10  15
ENDBRANCH   9  10
TORSDOF 4
ENDMDL
MODEL 9
REMARK VINA RESULT:      -5.1     17.644     19.802
REMARK  4 active torsions:
REMARK  status: ('A' for Active; 'I' for Inactive)
REMARK    1  A    between atoms: C_10  and  C_9 
REMARK    2  A    between atoms: C_11  and  C_10 
REMARK    3  A    between atoms: C_10  and  N_12 
REMARK    4  A    between atoms: O_14  and  C_11 
ROOT
HETATM    1  C   UNK N   1      26.397  19.941   3.832  0.00  0.00     0.001 A 
HETATM    2  C   UNK N   1      26.229  18.700   4.473  0.00  0.00     0.001 A 
HETATM    3  C   UNK N   1      25.299  20.577   3.230  0.00  0.00     0.007 A 
HETATM    4  C   UNK N   1      24.965  18.093   4.508  0.00  0.00     0.007 A 
HETATM    5  C   UNK N   1      22.792  20.471   2.714  0.00  0.00     0.046 C 
HETATM    6  C   UNK N   1      22.506  18.257   3.843  0.00  0.00     0.046 C 
HETATM    7  C   UNK N   1      24.050  19.956   3.289  0.00  0.00    -0.051 A 
HETATM    8  C   UNK N   1      23.890  18.750   3.908  0.00  0.00    -0.051 A 
HETATM    9  C   UNK N   1      21.743  19.457   3.234  0.00  0.00     0.027 C 
ENDROOT
BRANCH   9  10
HETATM   10  C   UNK N   1      20.710  19.071   2.162  0.00  0.00     0.178 C 
BRANCH  10  11
HETATM   11  C   UNK N   1      19.479  18.426   2.765  0.00  0.00     0.163 C 
HETATM   12  O   UNK N   1      19.584  17.558   3.616  0.00  0.00    -0.648 OA
BRANCH  11  13
HETATM   13  O   UNK N   1      18.252  18.835   2.385  0.00  0.00    -0.775 OA
HETATM   14  H   UNK N   1      17.884  18.630   1.548  0.00  0.00     0.167 HD
ENDBRANCH  11  13
ENDBRANCH  10  11
BRANCH  10  15
HETATM   15  N   UNK N   1      20.330  20.266   1.419  0.00  0.00    -0.417 N 
HETATM   16  H   UNK N   1      20.605  20.434   0.452  0.00  0.00     0.150 HD
HETATM   17  H   UNK N   1      19.760  20.969   1.890  0.00  0.00     0.150 HD
ENDBRANCH  10  15
ENDBRANCH   9  10
TORSDOF 4
ENDMDL
