MODEL 1
REMARK VINA RESULT:      -5.0      0.000      0.000
REMARK  7 active torsions:
REMARK  status: ('A' for Active; 'I' for Inactive)
REMARK    1  A    between atoms: C_2  and  C_1 
REMARK    2  A    between atoms: O_7  and  C_1 
REMARK    3  A    between atoms: C_3  and  C_2 
REMARK    4  A    between atoms: C_2  and  O_6 
REMARK    5  A    between atoms: C_3  and  C_11 
REMARK    6  A    between atoms: C_4  and  C_3 
REMARK    7  A    between atoms: O_9  and  C_4 
ROOT
HETATM    1  C   UNK N   1      32.814  16.360   8.297  0.00  0.00     0.126 C 
ENDROOT
BRANCH   1   2
HETATM    2  C   UNK N   1      33.585  17.547   8.950  0.00  0.00     0.230 C 
BRANCH   2   3
HETATM    3  C   UNK N   1      34.498  18.288   8.005  0.00  0.00     0.170 C 
HETATM    4  O   UNK N   1      34.522  18.023   6.812  0.00  0.00    -0.648 OA
BRANCH   3   5
HETATM    5  O   UNK N   1      35.334  19.224   8.493  0.00  0.00    -0.774 OA
HETATM    6  H   UNK N   1      35.398  19.466   9.395  0.00  0.00     0.167 HD
ENDBRANCH   3   5
ENDBRANCH   2   3
BRANCH   2   7
HETATM    7  O   UNK N   1      34.383  17.104  10.010  0.00  0.00    -0.384 OA
HETATM    8  H   UNK N   1      35.306  17.375  10.139  0.00  0.00     0.210 HD
ENDBRANCH   2   7
ENDBRANCH   1   2
BRANCH   1   9
HETATM    9  C   UNK N   1      31.339  16.699   7.945  0.00  0.00    -0.006 C 
HETATM   10  C   UNK N   1      30.762  17.949   8.586  0.00  0.00     0.010 C 
HETATM   11  C   UNK N   1      31.170  16.841   6.441  0.00  0.00     0.010 C 
ENDBRANCH   1   9
BRANCH   1  12
HETATM   12  C   UNK N   1      32.799  15.112   9.174  0.00  0.00     0.147 C 
HETATM   13  O   UNK N   1      33.484  14.138   8.899  0.00  0.00    -0.650 OA
BRANCH  12  14
HETATM   14  O   UNK N   1      32.030  15.076  10.278  0.00  0.00    -0.776 OA
HETATM   15  H   UNK N   1      32.348  15.214  11.149  0.00  0.00     0.167 HD
ENDBRANCH  12  14
ENDBRANCH   1  12
TORSDOF 7
ENDMDL
MODEL 2
REMARK VINA RESULT:      -4.9      1.252      3.539
REMARK  7 active torsions:
REMARK  status: ('A' for Active; 'I' for Inactive)
REMARK    1  A    between atoms: C_2  and  C_1 
REMARK    2  A    between atoms: O_7  and  C_1 
REMARK    3  A    between atoms: C_3  and  C_2 
REMARK    4  A    between atoms: C_2  and  O_6 
REMARK    5  A    between atoms: C_3  and  C_11 
REMARK    6  A    between atoms: C_4  and  C_3 
REMARK    7  A    between atoms: O_9  and  C_4 
ROOT
HETATM    1  C   UNK N   1      33.399  17.468   8.722  0.00  0.00     0.126 C 
ENDROOT
BRANCH   1   2
HETATM    2  C   UNK N   1      33.877  16.025   9.069  0.00  0.00     0.230 C 
BRANCH   2   3
HETATM    3  C   UNK N   1      34.272  15.833  10.512  0.00  0.00     0.170 C 
HETATM    4  O   UNK N   1      35.213  16.447  10.996  0.00  0.00    -0.648 OA
BRANCH   3   5
HETATM    5  O   UNK N   1      33.609  14.936  11.265  0.00  0.00    -0.774 OA
HETATM    6  H   UNK N   1      33.430  15.034  12.179  0.00  0.00     0.167 HD
ENDBRANCH   3   5
ENDBRANCH   2   3
BRANCH   2   7
HETATM    7  O   UNK N   1      34.988  15.666   8.300  0.00  0.00    -0.384 OA
HETATM    8  H   UNK N   1      35.457  14.822   8.393  0.00  0.00     0.210 HD
ENDBRANCH   2   7
ENDBRANCH   1   2
BRANCH   1   9
HETATM    9  C   UNK N   1      32.054  17.503   7.943  0.00  0.00    -0.006 C 
HETATM   10  C   UNK N   1      31.510  16.165   7.474  0.00  0.00     0.010 C 
HETATM   11  C   UNK N   1      30.972  18.165   8.780  0.00  0.00     0.010 C 
ENDBRANCH   1   9
BRANCH   1  12
HETATM   12  C   UNK N   1      34.422  18.248   7.902  0.00  0.00     0.147 C 
HETATM   13  O   UNK N   1      34.517  18.089   6.694  0.00  0.00    -0.650 OA
BRANCH  12  14
HETATM   14  O   UNK N   1      35.232  19.135   8.508  0.00  0.00    -0.776 OA
HETATM   15  H   UNK N   1      35.896  18.907   9.130  0.00  0.00     0.167 HD
ENDBRANCH  12  14
ENDBRANCH   1  12
TORSDOF 7
ENDMDL
MODEL 3
REMARK VINA RESULT:      -4.6     12.931     14.430
REMARK  7 active torsions:
REMARK  status: ('A' for Active; 'I' for Inactive)
REMARK    1  A    between atoms: C_2  and  C_1 
REMARK    2  A    between atoms: O_7  and  C_1 
REMARK    3  A    between atoms: C_3  and  C_2 
REMARK    4  A    between atoms: C_2  and  O_6 
REMARK    5  A    between atoms: C_3  and  C_11 
REMARK    6  A    between atoms: C_4  and  C_3 
REMARK    7  A    between atoms: O_9  and  C_4 
ROOT
HETATM    1  C   UNK N   1      21.045  18.622   2.831  0.00  0.00     0.126 C 
ENDROOT
BRANCH   1   2
HETATM    2  C   UNK N   1      19.964  17.697   2.194  0.00  0.00     0.230 C 
BRANCH   2   3
HETATM    3  C   UNK N   1      20.271  17.264   0.783  0.00  0.00     0.170 C 
HETATM    4  O   UNK N   1      20.493  16.092   0.517  0.00  0.00    -0.648 OA
BRANCH   3   5
HETATM    5  O   UNK N   1      20.348  18.190  -0.191  0.00  0.00    -0.774 OA
HETATM    6  H   UNK N   1      19.886  18.150  -1.005  0.00  0.00     0.167 HD
ENDBRANCH   3   5
ENDBRANCH   2   3
BRANCH   2   7
HETATM    7  O   UNK N   1      18.719  18.335   2.154  0.00  0.00    -0.384 OA
HETATM    8  H   UNK N   1      17.890  17.913   2.430  0.00  0.00     0.210 HD
ENDBRANCH   2   7
ENDBRANCH   1   2
BRANCH   1   9
HETATM    9  C   UNK N   1      21.321  18.312   4.328  0.00  0.00    -0.006 C 
HETATM   10  C   UNK N   1      20.757  17.008   4.863  0.00  0.00     0.010 C 
HETATM   11  C   UNK N   1      22.816  18.306   4.604  0.00  0.00     0.010 C 
ENDBRANCH   1   9
BRANCH   1  12
HETATM   12  C   UNK N   1      20.691  20.102   2.729  0.00  0.00     0.147 C 
HETATM   13  O   UNK N   1      20.777  20.701   1.667  0.00  0.00    -0.650 OA
BRANCH  12  14
HETATM   14  O   UNK N   1      20.264  20.768   3.819  0.00  0.00    -0.776 OA
HETATM   15  H   UNK N   1      19.612  21.440   3.806  0.00  0.00     0.167 HD
ENDBRANCH  12  14
ENDBRANCH   1  12
TORSDOF 7
ENDMDL
MODEL 4
REMARK VINA RESULT:      -4.5      1.392      1.950
REMARK  7 active torsions:
REMARK  status: ('A' for Active; 'I' for Inactive)
REMARK    1  A    between atoms: C_2  and  C_1 
REMARK    2  A    between atoms: O_7  and  C_1 
REMARK    3  A    between atoms: C_3  and  C_2 
REMARK    4  A    between atoms: C_2  and  O_6 
REMARK    5  A    between atoms: C_3  and  C_11 
REMARK    6  A    between atoms: C_4  and  C_3 
REMARK    7  A    between atoms: O_9  and  C_4 
ROOT
HETATM    1  C   UNK N   1      31.972  17.272   7.643  0.00  0.00     0.126 C 
ENDROOT
BRANCH   1   2
HETATM    2  C   UNK N   1      33.075  17.839   8.588  0.00  0.00     0.230 C 
BRANCH   2   3
HETATM    3  C   UNK N   1      34.305  18.340   7.874  0.00  0.00     0.170 C 
HETATM    4  O   UNK N   1      35.072  19.124   8.414  0.00  0.00    -0.648 OA
BRANCH   3   5
HETATM    5  O   UNK N   1      34.537  17.954   6.606  0.00  0.00    -0.774 OA
HETATM    6  H   UNK N   1      34.593  17.064   6.319  0.00  0.00     0.167 HD
ENDBRANCH   3   5
ENDBRANCH   2   3
BRANCH   2   7
HETATM    7  O   UNK N   1      33.508  16.865   9.494  0.00  0.00    -0.384 OA
HETATM    8  H   UNK N   1      32.921  16.415  10.122  0.00  0.00     0.210 HD
ENDBRANCH   2   7
ENDBRANCH   1   2
BRANCH   1   9
HETATM    9  C   UNK N   1      30.538  17.386   8.229  0.00  0.00    -0.006 C 
HETATM   10  C   UNK N   1      30.264  18.586   9.118  0.00  0.00     0.010 C 
HETATM   11  C   UNK N   1      29.506  17.404   7.113  0.00  0.00     0.010 C 
ENDBRANCH   1   9
BRANCH   1  12
HETATM   12  C   UNK N   1      32.202  15.808   7.279  0.00  0.00     0.147 C 
HETATM   13  O   UNK N   1      31.915  14.911   8.058  0.00  0.00    -0.650 OA
BRANCH  12  14
HETATM   14  O   UNK N   1      32.719  15.488   6.078  0.00  0.00    -0.776 OA
HETATM   15  H   UNK N   1      32.208  15.272   5.323  0.00  0.00     0.167 HD
ENDBRANCH  12  14
ENDBRANCH   1  12
TORSDOF 7
ENDMDL
MODEL 5
REMARK VINA RESULT:      -4.4      1.965      3.166
REMARK  7 active torsions:
REMARK  status: ('A' for Active; 'I' for Inactive)
REMARK    1  A    between atoms: C_2  and  C_1 
REMARK    2  A    between atoms: O_7  and  C_1 
REMARK    3  A    between atoms: C_3  and  C_2 
REMARK    4  A    between atoms: C_2  and  O_6 
REMARK    5  A    between atoms: C_3  and  C_11 
REMARK    6  A    between atoms: C_4  and  C_3 
REMARK    7  A    between atoms: O_9  and  C_4 
ROOT
HETATM    1  C   UNK N   1      34.776  15.912   9.095  0.00  0.00     0.126 C 
ENDROOT
BRANCH   1   2
HETATM    2  C   UNK N   1      33.738  16.807   8.353  0.00  0.00     0.230 C 
BRANCH   2   3
HETATM    3  C   UNK N   1      34.339  17.988   7.633  0.00  0.00     0.170 C 
HETATM    4  O   UNK N   1      34.345  18.046   6.412  0.00  0.00    -0.648 OA
BRANCH   3   5
HETATM    5  O   UNK N   1      34.921  18.970   8.346  0.00  0.00    -0.774 OA
HETATM    6  H   UNK N   1      35.783  19.303   8.193  0.00  0.00     0.167 HD
ENDBRANCH   3   5
ENDBRANCH   2   3
BRANCH   2   7
HETATM    7  O   UNK N   1      32.792  17.323   9.244  0.00  0.00    -0.384 OA
HETATM    8  H   UNK N   1      32.847  17.218  10.207  0.00  0.00     0.210 HD
ENDBRANCH   2   7
ENDBRANCH   1   2
BRANCH   1   9
HETATM    9  C   UNK N   1      34.727  14.420   8.662  0.00  0.00    -0.006 C 
HETATM   10  C   UNK N   1      34.266  14.142   7.243  0.00  0.00     0.010 C 
HETATM   11  C   UNK N   1      36.092  13.773   8.830  0.00  0.00     0.010 C 
ENDBRANCH   1   9
BRANCH   1  12
HETATM   12  C   UNK N   1      34.615  15.954  10.611  0.00  0.00     0.147 C 
HETATM   13  O   UNK N   1      35.225  16.767  11.289  0.00  0.00    -0.650 OA
BRANCH  12  14
HETATM   14  O   UNK N   1      33.781  15.091  11.222  0.00  0.00    -0.776 OA
HETATM   15  H   UNK N   1      33.150  15.335  11.871  0.00  0.00     0.167 HD
ENDBRANCH  12  14
ENDBRANCH   1  12
TORSDOF 7
ENDMDL
MODEL 6
REMARK VINA RESULT:      -4.3     13.474     14.389
REMARK  7 active torsions:
REMARK  status: ('A' for Active; 'I' for Inactive)
REMARK    1  A    between atoms: C_2  and  C_1 
REMARK    2  A    between atoms: O_7  and  C_1 
REMARK    3  A    between atoms: C_3  and  C_2 
REMARK    4  A    between atoms: C_2  and  O_6 
REMARK    5  A    between atoms: C_3  and  C_11 
REMARK    6  A    between atoms: C_4  and  C_3 
REMARK    7  A    between atoms: O_9  and  C_4 
ROOT
HETATM    1  C   UNK N   1      20.492  17.534   2.576  0.00  0.00     0.126 C 
ENDROOT
BRANCH   1   2
HETATM    2  C   UNK N   1      19.872  18.899   2.151  0.00  0.00     0.230 C 
BRANCH   2   3
HETATM    3  C   UNK N   1      20.580  20.105   2.715  0.00  0.00     0.170 C 
HETATM    4  O   UNK N   1      20.276  20.562   3.807  0.00  0.00    -0.648 OA
BRANCH   3   5
HETATM    5  O   UNK N   1      21.531  20.716   1.983  0.00  0.00    -0.774 OA
HETATM    6  H   UNK N   1      21.365  21.345   1.310  0.00  0.00     0.167 HD
ENDBRANCH   3   5
ENDBRANCH   2   3
BRANCH   2   7
HETATM    7  O   UNK N   1      18.538  18.993   2.558  0.00  0.00    -0.384 OA
HETATM    8  H   UNK N   1      18.159  18.473   3.284  0.00  0.00     0.210 HD
ENDBRANCH   2   7
ENDBRANCH   1   2
BRANCH   1   9
HETATM    9  C   UNK N   1      20.148  16.369   1.607  0.00  0.00    -0.006 C 
HETATM   10  C   UNK N   1      19.796  16.758   0.182  0.00  0.00     0.010 C 
HETATM   11  C   UNK N   1      21.299  15.379   1.535  0.00  0.00     0.010 C 
ENDBRANCH   1   9
BRANCH   1  12
HETATM   12  C   UNK N   1      20.066  17.103   3.977  0.00  0.00     0.147 C 
HETATM   13  O   UNK N   1      20.822  17.218   4.930  0.00  0.00    -0.650 OA
BRANCH  12  14
HETATM   14  O   UNK N   1      18.835  16.596   4.178  0.00  0.00    -0.776 OA
HETATM   15  H   UNK N   1      18.662  15.787   4.618  0.00  0.00     0.167 HD
ENDBRANCH  12  14
ENDBRANCH   1  12
TORSDOF 7
ENDMDL
MODEL 7
REMARK VINA RESULT:      -4.3      1.658      3.960
REMARK  7 active torsions:
REMARK  status: ('A' for Active; 'I' for Inactive)
REMARK    1  A    between atoms: C_2  and  C_1 
REMARK    2  A    between atoms: O_7  and  C_1 
REMARK    3  A    between atoms: C_3  and  C_2 
REMARK    4  A    between atoms: C_2  and  O_6 
REMARK    5  A    between atoms: C_3  and  C_11 
REMARK    6  A    between atoms: C_4  and  C_3 
REMARK    7  A    between atoms: O_9  and  C_4 
ROOT
HETATM    1  C   UNK N   1      34.014  16.779   8.710  0.00  0.00     0.126 C 
ENDROOT
BRANCH   1   2
HETATM    2  C   UNK N   1      35.099  16.269   9.706  0.00  0.00     0.230 C 
BRANCH   2   3
HETATM    3  C   UNK N   1      34.586  15.297  10.738  0.00  0.00     0.170 C 
HETATM    4  O   UNK N   1      35.339  14.510  11.294  0.00  0.00    -0.648 OA
BRANCH   3   5
HETATM    5  O   UNK N   1      33.269  15.263  11.018  0.00  0.00    -0.774 OA
HETATM    6  H   UNK N   1      32.587  15.262  10.376  0.00  0.00     0.167 HD
ENDBRANCH   3   5
ENDBRANCH   2   3
BRANCH   2   7
HETATM    7  O   UNK N   1      35.674  17.332  10.409  0.00  0.00    -0.384 OA
HETATM    8  H   UNK N   1      36.361  17.221  11.086  0.00  0.00     0.210 HD
ENDBRANCH   2   7
ENDBRANCH   1   2
BRANCH   1   9
HETATM    9  C   UNK N   1      33.557  15.702   7.688  0.00  0.00    -0.006 C 
HETATM   10  C   UNK N   1      34.354  14.410   7.665  0.00  0.00     0.010 C 
HETATM   11  C   UNK N   1      32.101  15.332   7.919  0.00  0.00     0.010 C 
ENDBRANCH   1   9
BRANCH   1  12
HETATM   12  C   UNK N   1      34.469  17.999   7.916  0.00  0.00     0.147 C 
HETATM   13  O   UNK N   1      34.845  19.016   8.479  0.00  0.00    -0.650 OA
BRANCH  12  14
HETATM   14  O   UNK N   1      34.469  17.962   6.570  0.00  0.00    -0.776 OA
HETATM   15  H   UNK N   1      33.712  17.789   6.045  0.00  0.00     0.167 HD
ENDBRANCH  12  14
ENDBRANCH   1  12
TORSDOF 7
ENDMDL
MODEL 8
REMARK VINA RESULT:      -4.3      4.324      5.582
REMARK  7 active torsions:
REMARK  status: ('A' for Active; 'I' for Inactive)
REMARK    1  A    between atoms: C_2  and  C_1 
REMARK    2  A    between atoms: O_7  and  C_1 
REMARK    3  A    between atoms: C_3  and  C_2 
REMARK    4  A    between atoms: C_2  and  O_6 
REMARK    5  A    between atoms: C_3  and  C_11 
REMARK    6  A    between atoms: C_4  and  C_3 
REMARK    7  A    between atoms: O_9  and  C_4 
ROOT
HETATM    1  C   UNK N   1      29.296  18.042   7.952  0.00  0.00     0.126 C 
ENDROOT
BRANCH   1   2
HETATM    2  C   UNK N   1      28.371  17.939   6.702  0.00  0.00     0.230 C 
BRANCH   2   3
HETATM    3  C   UNK N   1      27.810  19.259   6.234  0.00  0.00     0.170 C 
HETATM    4  O   UNK N   1      28.113  19.723   5.144  0.00  0.00    -0.648 OA
BRANCH   3   5
HETATM    5  O   UNK N   1      27.001  19.959   7.050  0.00  0.00    -0.774 OA
HETATM    6  H   UNK N   1      27.283  20.426   7.812  0.00  0.00     0.167 HD
ENDBRANCH   3   5
ENDBRANCH   2   3
BRANCH   2   7
HETATM    7  O   UNK N   1      27.276  17.107   6.955  0.00  0.00    -0.384 OA
HETATM    8  H   UNK N   1      26.361  17.424   7.011  0.00  0.00     0.210 HD
ENDBRANCH   2   7
ENDBRANCH   1   2
BRANCH   1   9
HETATM    9  C   UNK N   1      30.540  17.115   7.879  0.00  0.00    -0.006 C 
HETATM   10  C   UNK N   1      30.829  16.476   6.533  0.00  0.00     0.010 C 
HETATM   11  C   UNK N   1      31.791  17.869   8.301  0.00  0.00     0.010 C 
ENDBRANCH   1   9
BRANCH   1  12
HETATM   12  C   UNK N   1      28.566  17.726   9.254  0.00  0.00     0.147 C 
HETATM   13  O   UNK N   1      29.077  17.019  10.109  0.00  0.00    -0.650 OA
BRANCH  12  14
HETATM   14  O   UNK N   1      27.341  18.238   9.479  0.00  0.00    -0.776 OA
HETATM   15  H   UNK N   1      27.080  18.655  10.276  0.00  0.00     0.167 HD
ENDBRANCH  12  14
ENDBRANCH   1  12
TORSDOF 7
ENDMDL
MODEL 9
REMARK VINA RESULT:      -4.2      4.455      6.059
REMARK  7 active torsions:
REMARK  status: ('A' for Active; 'I' for Inactive)
REMARK    1  A    between atoms: C_2  and  C_1 
REMARK    2  A    between atoms: O_7  and  C_1 
REMARK    3  A    between atoms: C_3  and  C_2 
REMARK    4  A    between atoms: C_2  and  O_6 
REMARK    5  A    between atoms: C_3  and  C_11 
REMARK    6  A    between atoms: C_4  and  C_3 
REMARK    7  A    between atoms: O_9  and  C_4 
ROOT
HETATM    1  C   UNK N   1      36.344  13.769  11.513  0.00  0.00     0.126 C 
ENDROOT
BRANCH   1   2
HETATM    2  C   UNK N   1      36.013  15.293  11.524  0.00  0.00     0.230 C 
BRANCH   2   3
HETATM    3  C   UNK N   1      34.696  15.646  10.881  0.00  0.00     0.170 C 
HETATM    4  O   UNK N   1      34.618  16.539  10.050  0.00  0.00    -0.648 OA
BRANCH   3   5
HETATM    5  O   UNK N   1      33.579  14.999  11.265  0.00  0.00    -0.774 OA
HETATM    6  H   UNK N   1      32.898  15.372  11.788  0.00  0.00     0.167 HD
ENDBRANCH   3   5
ENDBRANCH   2   3
BRANCH   2   7
HETATM    7  O   UNK N   1      36.996  16.024  10.848  0.00  0.00    -0.384 OA
HETATM    8  H   UNK N   1      36.799  16.706  10.187  0.00  0.00     0.210 HD
ENDBRANCH   2   7
ENDBRANCH   1   2
BRANCH   1   9
HETATM    9  C   UNK N   1      36.742  13.213  12.908  0.00  0.00    -0.006 C 
HETATM   10  C   UNK N   1      36.198  13.959  14.114  0.00  0.00     0.010 C 
HETATM   11  C   UNK N   1      36.316  11.760  13.043  0.00  0.00     0.010 C 
ENDBRANCH   1   9
BRANCH   1  12
HETATM   12  C   UNK N   1      37.467  13.416  10.543  0.00  0.00     0.147 C 
HETATM   13  O   UNK N   1      37.235  13.179   9.367  0.00  0.00    -0.650 OA
BRANCH  12  14
HETATM   14  O   UNK N   1      38.741  13.372  10.978  0.00  0.00    -0.776 OA
HETATM   15  H   UNK N   1      39.043  13.768  11.771  0.00  0.00     0.167 HD
ENDBRANCH  12  14
ENDBRANCH   1  12
TORSDOF 7
ENDMDL
