MODEL 1
REMARK VINA RESULT:      -6.1      0.000      0.000
REMARK  12 active torsions:
REMARK  status: ('A' for Active; 'I' for Inactive)
REMARK    1  A    between atoms: C_3  and  C_1 
REMARK    2  A    between atoms: O_15  and  C_1 
REMARK    3  A    between atoms: C_4  and  C_2 
REMARK    4  A    between atoms: O_16  and  C_2 
REMARK    5  A    between atoms: C_5  and  O_17 
REMARK    6  A    between atoms: C_6  and  O_18 
REMARK    7  A    between atoms: C_7  and  O_19 
REMARK    8  A    between atoms: C_8  and  O_20 
REMARK    9  A    between atoms: C_9  and  O_21 
REMARK   10  A    between atoms: C_10  and  O_24 
REMARK   11  A    between atoms: O_22  and  C_11 
REMARK   12  A    between atoms: C_12  and  O_24 
ROOT
HETATM    1  C   UNK N   1      37.137  13.355  10.635  0.00  0.00     0.138 C 
HETATM    2  C   UNK N   1      35.033  12.164  11.564  0.00  0.00     0.186 C 
HETATM    3  C   UNK N   1      36.125  11.366  12.292  0.00  0.00     0.223 C 
HETATM    4  C   UNK N   1      35.628  12.981  10.377  0.00  0.00     0.181 C 
HETATM    5  C   UNK N   1      37.076  12.419  12.822  0.00  0.00     0.144 C 
HETATM    6  N   UNK N   1      37.473  13.372  12.046  0.00  0.00    -0.363 N 
ATOM      7  HN  UNK N   1      38.027  14.139  12.427  1.00  0.00     0.162 HD
ENDROOT
BRANCH   4   8
HETATM    8  O   UNK N   1      34.787  14.116  10.152  0.00  0.00    -0.348 OA
BRANCH   8   9
HETATM    9  C   UNK N   1      34.339  14.233   8.798  0.00  0.00     0.292 C 
HETATM   10  C   UNK N   1      32.817  13.992   8.657  0.00  0.00     0.204 C 
HETATM   11  C   UNK N   1      32.010  15.137   9.285  0.00  0.00     0.183 C 
HETATM   12  C   UNK N   1      32.508  16.469   8.709  0.00  0.00     0.180 C 
HETATM   13  C   UNK N   1      34.031  16.562   8.930  0.00  0.00     0.179 C 
HETATM   14  O   UNK N   1      34.697  15.500   8.260  0.00  0.00    -0.348 OA
BRANCH  10  15
HETATM   15  O   UNK N   1      32.454  12.765   9.217  0.00  0.00    -0.388 OA
HETATM   16  H   UNK N   1      33.112  12.069   9.376  0.00  0.00     0.210 HD
ENDBRANCH  10  15
BRANCH  11  17
HETATM   17  O   UNK N   1      32.166  15.133  10.674  0.00  0.00    -0.390 OA
HETATM   18  H   UNK N   1      32.427  14.596  11.439  0.00  0.00     0.210 HD
ENDBRANCH  11  17
BRANCH  12  19
HETATM   19  O   UNK N   1      32.224  16.534   7.340  0.00  0.00    -0.390 OA
HETATM   20  H   UNK N   1      32.603  16.885   6.519  0.00  0.00     0.210 HD
ENDBRANCH  12  19
BRANCH  13  21
HETATM   21  C   UNK N   1      34.547  17.892   8.392  0.00  0.00     0.198 C 
BRANCH  21  22
HETATM   22  O   UNK N   1      34.605  17.864   6.999  0.00  0.00    -0.398 OA
HETATM   23  H   UNK N   1      33.946  17.388   6.470  0.00  0.00     0.209 HD
ENDBRANCH  21  22
ENDBRANCH  13  21
ENDBRANCH   8   9
ENDBRANCH   4   8
BRANCH   1  24
HETATM   24  C   UNK N   1      37.631  14.625   9.957  0.00  0.00     0.191 C 
BRANCH  24  25
HETATM   25  O   UNK N   1      37.233  15.752  10.677  0.00  0.00    -0.399 OA
HETATM   26  H   UNK N   1      36.610  16.267  11.213  0.00  0.00     0.209 HD
ENDBRANCH  24  25
ENDBRANCH   1  24
BRANCH   2  27
HETATM   27  O   UNK N   1      33.997  11.336  11.123  0.00  0.00    -0.390 OA
HETATM   28  H   UNK N   1      34.171  10.488  10.687  0.00  0.00     0.210 HD
ENDBRANCH   2  27
BRANCH   3  29
HETATM   29  O   UNK N   1      36.777  10.500  11.407  0.00  0.00    -0.385 OA
HETATM   30  H   UNK N   1      37.441  10.034  10.876  0.00  0.00     0.210 HD
ENDBRANCH   3  29
BRANCH   5  31
HETATM   31  O   UNK N   1      37.407  12.436  14.128  0.00  0.00    -0.348 OA
HETATM   32  H   UNK N   1      37.931  11.941  14.726  0.00  0.00     0.219 HD
ENDBRANCH   5  31
TORSDOF 12
ENDMDL
MODEL 2
REMARK VINA RESULT:      -5.9      2.069      3.979
REMARK  12 active torsions:
REMARK  status: ('A' for Active; 'I' for Inactive)
REMARK    1  A    between atoms: C_3  and  C_1 
REMARK    2  A    between atoms: O_15  and  C_1 
REMARK    3  A    between atoms: C_4  and  C_2 
REMARK    4  A    between atoms: O_16  and  C_2 
REMARK    5  A    between atoms: C_5  and  O_17 
REMARK    6  A    between atoms: C_6  and  O_18 
REMARK    7  A    between atoms: C_7  and  O_19 
REMARK    8  A    between atoms: C_8  and  O_20 
REMARK    9  A    between atoms: C_9  and  O_21 
REMARK   10  A    between atoms: C_10  and  O_24 
REMARK   11  A    between atoms: O_22  and  C_11 
REMARK   12  A    between atoms: C_12  and  O_24 
ROOT
HETATM    1  C   UNK N   1      34.504  13.469  10.166  0.00  0.00     0.138 C 
HETATM    2  C   UNK N   1      35.411  15.813  10.790  0.00  0.00     0.186 C 
HETATM    3  C   UNK N   1      36.083  14.975  11.889  0.00  0.00     0.223 C 
HETATM    4  C   UNK N   1      34.254  15.023  10.106  0.00  0.00     0.181 C 
HETATM    5  C   UNK N   1      36.646  13.772  11.159  0.00  0.00     0.144 C 
HETATM    6  N   UNK N   1      35.908  13.135  10.311  0.00  0.00    -0.363 N 
ATOM      7  HN  UNK N   1      36.315  12.393   9.742  1.00  0.00     0.162 HD
ENDROOT
BRANCH   4   8
HETATM    8  O   UNK N   1      34.097  15.527   8.776  0.00  0.00    -0.348 OA
BRANCH   8   9
HETATM    9  C   UNK N   1      32.927  16.334   8.608  0.00  0.00     0.292 C 
HETATM   10  C   UNK N   1      33.239  17.693   7.938  0.00  0.00     0.204 C 
HETATM   11  C   UNK N   1      33.629  17.512   6.464  0.00  0.00     0.183 C 
HETATM   12  C   UNK N   1      32.546  16.679   5.764  0.00  0.00     0.180 C 
HETATM   13  C   UNK N   1      32.355  15.363   6.543  0.00  0.00     0.179 C 
HETATM   14  O   UNK N   1      31.934  15.630   7.874  0.00  0.00    -0.348 OA
BRANCH  10  15
HETATM   15  O   UNK N   1      34.240  18.374   8.635  0.00  0.00    -0.388 OA
HETATM   16  H   UNK N   1      34.305  19.341   8.605  0.00  0.00     0.210 HD
ENDBRANCH  10  15
BRANCH  11  17
HETATM   17  O   UNK N   1      34.863  16.862   6.367  0.00  0.00    -0.390 OA
HETATM   18  H   UNK N   1      35.366  16.077   6.632  0.00  0.00     0.210 HD
ENDBRANCH  11  17
BRANCH  12  19
HETATM   19  O   UNK N   1      31.341  17.391   5.735  0.00  0.00    -0.390 OA
HETATM   20  H   UNK N   1      30.962  18.222   6.062  0.00  0.00     0.210 HD
ENDBRANCH  12  19
BRANCH  13  21
HETATM   21  C   UNK N   1      31.305  14.504   5.849  0.00  0.00     0.198 C 
BRANCH  21  22
HETATM   22  O   UNK N   1      31.558  13.150   6.072  0.00  0.00    -0.398 OA
HETATM   23  H   UNK N   1      32.461  12.800   6.112  0.00  0.00     0.209 HD
ENDBRANCH  21  22
ENDBRANCH  13  21
ENDBRANCH   8   9
ENDBRANCH   4   8
BRANCH   1  24
HETATM   24  C   UNK N   1      33.877  12.652   9.045  0.00  0.00     0.191 C 
BRANCH  24  25
HETATM   25  O   UNK N   1      32.497  12.851   9.006  0.00  0.00    -0.399 OA
HETATM   26  H   UNK N   1      31.696  13.354   8.792  0.00  0.00     0.209 HD
ENDBRANCH  24  25
ENDBRANCH   1  24
BRANCH   2  27
HETATM   27  O   UNK N   1      34.950  17.035  11.285  0.00  0.00    -0.390 OA
HETATM   28  H   UNK N   1      35.159  17.875  10.848  0.00  0.00     0.210 HD
ENDBRANCH   2  27
BRANCH   3  29
HETATM   29  O   UNK N   1      35.148  14.585  12.853  0.00  0.00    -0.385 OA
HETATM   30  H   UNK N   1      34.713  14.204  13.632  0.00  0.00     0.210 HD
ENDBRANCH   3  29
BRANCH   5  31
HETATM   31  O   UNK N   1      37.945  13.445  11.296  0.00  0.00    -0.348 OA
HETATM   32  H   UNK N   1      38.660  13.167  10.757  0.00  0.00     0.219 HD
ENDBRANCH   5  31
TORSDOF 12
ENDMDL
MODEL 3
REMARK VINA RESULT:      -5.6      2.479      6.291
REMARK  12 active torsions:
REMARK  status: ('A' for Active; 'I' for Inactive)
REMARK    1  A    between atoms: C_3  and  C_1 
REMARK    2  A    between atoms: O_15  and  C_1 
REMARK    3  A    between atoms: C_4  and  C_2 
REMARK    4  A    between atoms: O_16  and  C_2 
REMARK    5  A    between atoms: C_5  and  O_17 
REMARK    6  A    between atoms: C_6  and  O_18 
REMARK    7  A    between atoms: C_7  and  O_19 
REMARK    8  A    between atoms: C_8  and  O_20 
REMARK    9  A    between atoms: C_9  and  O_21 
REMARK   10  A    between atoms: C_10  and  O_24 
REMARK   11  A    between atoms: O_22  and  C_11 
REMARK   12  A    between atoms: C_12  and  O_24 
ROOT
HETATM    1  C   UNK N   1      34.281  15.064   6.657  0.00  0.00     0.138 C 
HETATM    2  C   UNK N   1      33.816  17.135   8.141  0.00  0.00     0.186 C 
HETATM    3  C   UNK N   1      33.169  17.606   6.829  0.00  0.00     0.223 C 
HETATM    4  C   UNK N   1      34.749  15.909   7.901  0.00  0.00     0.181 C 
HETATM    5  C   UNK N   1      32.348  16.421   6.363  0.00  0.00     0.144 C 
HETATM    6  N   UNK N   1      32.872  15.240   6.362  0.00  0.00    -0.363 N 
ATOM      7  HN  UNK N   1      32.292  14.428   6.151  1.00  0.00     0.162 HD
ENDROOT
BRANCH   4   8
HETATM    8  O   UNK N   1      34.813  15.155   9.115  0.00  0.00    -0.348 OA
BRANCH   8   9
HETATM    9  C   UNK N   1      36.052  15.306   9.814  0.00  0.00     0.292 C 
HETATM   10  C   UNK N   1      35.849  15.716  11.292  0.00  0.00     0.204 C 
HETATM   11  C   UNK N   1      35.241  14.569  12.112  0.00  0.00     0.183 C 
HETATM   12  C   UNK N   1      36.088  13.307  11.902  0.00  0.00     0.180 C 
HETATM   13  C   UNK N   1      36.193  13.029  10.389  0.00  0.00     0.179 C 
HETATM   14  O   UNK N   1      36.825  14.117   9.727  0.00  0.00    -0.348 OA
BRANCH  10  15
HETATM   15  O   UNK N   1      35.060  16.865  11.387  0.00  0.00    -0.388 OA
HETATM   16  H   UNK N   1      35.451  17.730  11.587  0.00  0.00     0.210 HD
ENDBRANCH  10  15
BRANCH  11  17
HETATM   17  O   UNK N   1      33.925  14.330  11.705  0.00  0.00    -0.390 OA
HETATM   18  H   UNK N   1      33.341  13.709  11.242  0.00  0.00     0.210 HD
ENDBRANCH  11  17
BRANCH  12  19
HETATM   19  O   UNK N   1      37.368  13.496  12.438  0.00  0.00    -0.390 OA
HETATM   20  H   UNK N   1      38.246  13.083  12.427  0.00  0.00     0.210 HD
ENDBRANCH  12  19
BRANCH  13  21
HETATM   21  C   UNK N   1      37.006  11.761  10.156  0.00  0.00     0.198 C 
BRANCH  21  22
HETATM   22  O   UNK N   1      38.371  12.052  10.156  0.00  0.00    -0.398 OA
HETATM   23  H   UNK N   1      39.007  11.514  10.652  0.00  0.00     0.209 HD
ENDBRANCH  21  22
ENDBRANCH  13  21
ENDBRANCH   8   9
ENDBRANCH   4   8
BRANCH   1  24
HETATM   24  C   UNK N   1      34.635  13.584   6.690  0.00  0.00     0.191 C 
BRANCH  24  25
HETATM   25  O   UNK N   1      36.004  13.412   6.896  0.00  0.00    -0.399 OA
HETATM   26  H   UNK N   1      36.928  13.706   6.893  0.00  0.00     0.209 HD
ENDBRANCH  24  25
ENDBRANCH   1  24
BRANCH   2  27
HETATM   27  O   UNK N   1      34.511  18.169   8.772  0.00  0.00    -0.390 OA
HETATM   28  H   UNK N   1      35.309  18.004   9.297  0.00  0.00     0.210 HD
ENDBRANCH   2  27
BRANCH   3  29
HETATM   29  O   UNK N   1      34.148  17.939   5.887  0.00  0.00    -0.385 OA
HETATM   30  H   UNK N   1      34.629  18.125   5.066  0.00  0.00     0.210 HD
ENDBRANCH   3  29
BRANCH   5  31
HETATM   31  O   UNK N   1      31.041  16.575   6.073  0.00  0.00    -0.348 OA
HETATM   32  H   UNK N   1      30.486  17.196   5.645  0.00  0.00     0.219 HD
ENDBRANCH   5  31
TORSDOF 12
ENDMDL
MODEL 4
REMARK VINA RESULT:      -5.6      2.091      6.331
REMARK  12 active torsions:
REMARK  status: ('A' for Active; 'I' for Inactive)
REMARK    1  A    between atoms: C_3  and  C_1 
REMARK    2  A    between atoms: O_15  and  C_1 
REMARK    3  A    between atoms: C_4  and  C_2 
REMARK    4  A    between atoms: O_16  and  C_2 
REMARK    5  A    between atoms: C_5  and  O_17 
REMARK    6  A    between atoms: C_6  and  O_18 
REMARK    7  A    between atoms: C_7  and  O_19 
REMARK    8  A    between atoms: C_8  and  O_20 
REMARK    9  A    between atoms: C_9  and  O_21 
REMARK   10  A    between atoms: C_10  and  O_24 
REMARK   11  A    between atoms: O_22  and  C_11 
REMARK   12  A    between atoms: C_12  and  O_24 
ROOT
HETATM    1  C   UNK N   1      33.501  15.302   7.444  0.00  0.00     0.138 C 
HETATM    2  C   UNK N   1      34.211  17.203   9.054  0.00  0.00     0.186 C 
HETATM    3  C   UNK N   1      33.461  18.027   7.995  0.00  0.00     0.223 C 
HETATM    4  C   UNK N   1      34.547  15.775   8.524  0.00  0.00     0.181 C 
HETATM    5  C   UNK N   1      32.179  17.257   7.753  0.00  0.00     0.144 C 
HETATM    6  N   UNK N   1      32.224  15.979   7.570  0.00  0.00    -0.363 N 
ATOM      7  HN  UNK N   1      31.358  15.443   7.513  1.00  0.00     0.162 HD
ENDROOT
BRANCH   4   8
HETATM    8  O   UNK N   1      34.646  14.896   9.648  0.00  0.00    -0.348 OA
BRANCH   8   9
HETATM    9  C   UNK N   1      35.850  14.122   9.660  0.00  0.00     0.292 C 
HETATM   10  C   UNK N   1      36.772  14.483  10.849  0.00  0.00     0.204 C 
HETATM   11  C   UNK N   1      36.169  14.022  12.183  0.00  0.00     0.183 C 
HETATM   12  C   UNK N   1      35.805  12.535  12.075  0.00  0.00     0.180 C 
HETATM   13  C   UNK N   1      34.885  12.339  10.854  0.00  0.00     0.179 C 
HETATM   14  O   UNK N   1      35.551  12.732   9.661  0.00  0.00    -0.348 OA
BRANCH  10  15
HETATM   15  O   UNK N   1      37.040  15.853  10.873  0.00  0.00    -0.388 OA
HETATM   16  H   UNK N   1      37.938  16.194  10.738  0.00  0.00     0.210 HD
ENDBRANCH  10  15
BRANCH  11  17
HETATM   17  O   UNK N   1      35.025  14.769  12.480  0.00  0.00    -0.390 OA
HETATM   18  H   UNK N   1      34.202  14.786  12.992  0.00  0.00     0.210 HD
ENDBRANCH  11  17
BRANCH  12  19
HETATM   19  O   UNK N   1      36.967  11.769  11.920  0.00  0.00    -0.390 OA
HETATM   20  H   UNK N   1      37.341  11.100  11.324  0.00  0.00     0.210 HD
ENDBRANCH  12  19
BRANCH  13  21
HETATM   21  C   UNK N   1      34.485  10.873  10.743  0.00  0.00     0.198 C 
BRANCH  21  22
HETATM   22  O   UNK N   1      33.157  10.761  10.330  0.00  0.00    -0.398 OA
HETATM   23  H   UNK N   1      32.571  10.070  10.677  0.00  0.00     0.209 HD
ENDBRANCH  21  22
ENDBRANCH  13  21
ENDBRANCH   8   9
ENDBRANCH   4   8
BRANCH   1  24
HETATM   24  C   UNK N   1      33.296  13.798   7.335  0.00  0.00     0.191 C 
BRANCH  24  25
HETATM   25  O   UNK N   1      32.645  13.308   8.467  0.00  0.00    -0.399 OA
HETATM   26  H   UNK N   1      32.369  13.345   9.396  0.00  0.00     0.209 HD
ENDBRANCH  24  25
ENDBRANCH   1  24
BRANCH   2  27
HETATM   27  O   UNK N   1      35.369  17.854   9.487  0.00  0.00    -0.390 OA
HETATM   28  H   UNK N   1      36.036  18.179   8.863  0.00  0.00     0.210 HD
ENDBRANCH   2  27
BRANCH   3  29
HETATM   29  O   UNK N   1      34.216  18.127   6.822  0.00  0.00    -0.385 OA
HETATM   30  H   UNK N   1      34.900  18.334   6.167  0.00  0.00     0.210 HD
ENDBRANCH   3  29
BRANCH   5  31
HETATM   31  O   UNK N   1      30.987  17.877   7.854  0.00  0.00    -0.348 OA
HETATM   32  H   UNK N   1      30.566  18.646   7.523  0.00  0.00     0.219 HD
ENDBRANCH   5  31
TORSDOF 12
ENDMDL
MODEL 5
REMARK VINA RESULT:      -5.6      2.345      3.467
REMARK  12 active torsions:
REMARK  status: ('A' for Active; 'I' for Inactive)
REMARK    1  A    between atoms: C_3  and  C_1 
REMARK    2  A    between atoms: O_15  and  C_1 
REMARK    3  A    between atoms: C_4  and  C_2 
REMARK    4  A    between atoms: O_16  and  C_2 
REMARK    5  A    between atoms: C_5  and  O_17 
REMARK    6  A    between atoms: C_6  and  O_18 
REMARK    7  A    between atoms: C_7  and  O_19 
REMARK    8  A    between atoms: C_8  and  O_20 
REMARK    9  A    between atoms: C_9  and  O_21 
REMARK   10  A    between atoms: C_10  and  O_24 
REMARK   11  A    between atoms: O_22  and  C_11 
REMARK   12  A    between atoms: C_12  and  O_24 
ROOT
HETATM    1  C   UNK N   1      35.448  13.081   8.890  0.00  0.00     0.138 C 
HETATM    2  C   UNK N   1      34.396  14.681  10.633  0.00  0.00     0.186 C 
HETATM    3  C   UNK N   1      35.062  13.669  11.579  0.00  0.00     0.223 C 
HETATM    4  C   UNK N   1      34.298  14.117   9.183  0.00  0.00     0.181 C 
HETATM    5  C   UNK N   1      36.453  13.476  11.011  0.00  0.00     0.144 C 
HETATM    6  N   UNK N   1      36.604  13.275   9.744  0.00  0.00    -0.363 N 
ATOM      7  HN  UNK N   1      37.542  13.250   9.343  1.00  0.00     0.162 HD
ENDROOT
BRANCH   4   8
HETATM    8  O   UNK N   1      34.280  15.224   8.276  0.00  0.00    -0.348 OA
BRANCH   8   9
HETATM    9  C   UNK N   1      32.999  15.450   7.681  0.00  0.00     0.292 C 
HETATM   10  C   UNK N   1      32.543  16.924   7.804  0.00  0.00     0.204 C 
HETATM   11  C   UNK N   1      33.394  17.847   6.920  0.00  0.00     0.183 C 
HETATM   12  C   UNK N   1      33.403  17.291   5.489  0.00  0.00     0.180 C 
HETATM   13  C   UNK N   1      33.881  15.826   5.533  0.00  0.00     0.179 C 
HETATM   14  O   UNK N   1      32.998  15.038   6.321  0.00  0.00    -0.348 OA
BRANCH  10  15
HETATM   15  O   UNK N   1      32.576  17.346   9.135  0.00  0.00    -0.388 OA
HETATM   16  H   UNK N   1      33.172  16.932   9.780  0.00  0.00     0.210 HD
ENDBRANCH  10  15
BRANCH  11  17
HETATM   17  O   UNK N   1      34.700  17.916   7.410  0.00  0.00    -0.390 OA
HETATM   18  H   UNK N   1      35.639  17.921   7.164  0.00  0.00     0.210 HD
ENDBRANCH  11  17
BRANCH  12  19
HETATM   19  O   UNK N   1      32.116  17.353   4.944  0.00  0.00    -0.390 OA
HETATM   20  H   UNK N   1      31.371  16.767   4.731  0.00  0.00     0.210 HD
ENDBRANCH  12  19
BRANCH  13  21
HETATM   21  C   UNK N   1      33.929  15.259   4.119  0.00  0.00     0.198 C 
BRANCH  21  22
HETATM   22  O   UNK N   1      34.731  14.119   4.078  0.00  0.00    -0.398 OA
HETATM   23  H   UNK N   1      35.699  14.175   4.096  0.00  0.00     0.209 HD
ENDBRANCH  21  22
ENDBRANCH  13  21
ENDBRANCH   8   9
ENDBRANCH   4   8
BRANCH   1  24
HETATM   24  C   UNK N   1      35.878  12.961   7.434  0.00  0.00     0.191 C 
BRANCH  24  25
HETATM   25  O   UNK N   1      34.789  12.632   6.627  0.00  0.00    -0.399 OA
HETATM   26  H   UNK N   1      34.377  12.319   5.807  0.00  0.00     0.209 HD
ENDBRANCH  24  25
ENDBRANCH   1  24
BRANCH   2  27
HETATM   27  O   UNK N   1      33.136  15.068  11.098  0.00  0.00    -0.390 OA
HETATM   28  H   UNK N   1      32.797  15.966  10.968  0.00  0.00     0.210 HD
ENDBRANCH   2  27
BRANCH   3  29
HETATM   29  O   UNK N   1      34.353  12.463  11.591  0.00  0.00    -0.385 OA
HETATM   30  H   UNK N   1      34.026  11.570  11.401  0.00  0.00     0.210 HD
ENDBRANCH   3  29
BRANCH   5  31
HETATM   31  O   UNK N   1      37.534  13.641  11.798  0.00  0.00    -0.348 OA
HETATM   32  H   UNK N   1      38.046  14.342  12.149  0.00  0.00     0.219 HD
ENDBRANCH   5  31
TORSDOF 12
ENDMDL
MODEL 6
REMARK VINA RESULT:      -5.4      2.013      5.925
REMARK  12 active torsions:
REMARK  status: ('A' for Active; 'I' for Inactive)
REMARK    1  A    between atoms: C_3  and  C_1 
REMARK    2  A    between atoms: O_15  and  C_1 
REMARK    3  A    between atoms: C_4  and  C_2 
REMARK    4  A    between atoms: O_16  and  C_2 
REMARK    5  A    between atoms: C_5  and  O_17 
REMARK    6  A    between atoms: C_6  and  O_18 
REMARK    7  A    between atoms: C_7  and  O_19 
REMARK    8  A    between atoms: C_8  and  O_20 
REMARK    9  A    between atoms: C_9  and  O_21 
REMARK   10  A    between atoms: C_10  and  O_24 
REMARK   11  A    between atoms: O_22  and  C_11 
REMARK   12  A    between atoms: C_12  and  O_24 
ROOT
HETATM    1  C   UNK N   1      34.686  16.290  10.171  0.00  0.00     0.138 C 
HETATM    2  C   UNK N   1      34.238  14.925   8.016  0.00  0.00     0.186 C 
HETATM    3  C   UNK N   1      33.388  16.170   7.715  0.00  0.00     0.223 C 
HETATM    4  C   UNK N   1      34.620  14.854   9.526  0.00  0.00     0.181 C 
HETATM    5  C   UNK N   1      34.285  17.337   8.072  0.00  0.00     0.144 C 
HETATM    6  N   UNK N   1      34.930  17.331   9.191  0.00  0.00    -0.363 N 
ATOM      7  HN  UNK N   1      35.614  18.061   9.386  1.00  0.00     0.162 HD
ENDROOT
BRANCH   4   8
HETATM    8  O   UNK N   1      35.841  14.117   9.642  0.00  0.00    -0.348 OA
BRANCH   8   9
HETATM    9  C   UNK N   1      35.647  12.749  10.013  0.00  0.00     0.292 C 
HETATM   10  C   UNK N   1      36.953  11.925   9.935  0.00  0.00     0.204 C 
HETATM   11  C   UNK N   1      37.943  12.342  11.032  0.00  0.00     0.183 C 
HETATM   12  C   UNK N   1      37.228  12.291  12.389  0.00  0.00     0.180 C 
HETATM   13  C   UNK N   1      35.957  13.159  12.310  0.00  0.00     0.179 C 
HETATM   14  O   UNK N   1      35.075  12.659  11.312  0.00  0.00    -0.348 OA
BRANCH  10  15
HETATM   15  O   UNK N   1      37.538  12.039   8.671  0.00  0.00    -0.388 OA
HETATM   16  H   UNK N   1      38.325  11.523   8.432  0.00  0.00     0.210 HD
ENDBRANCH  10  15
BRANCH  11  17
HETATM   17  O   UNK N   1      38.414  13.636  10.792  0.00  0.00    -0.390 OA
HETATM   18  H   UNK N   1      38.166  14.573  10.751  0.00  0.00     0.210 HD
ENDBRANCH  11  17
BRANCH  12  19
HETATM   19  O   UNK N   1      36.881  10.970  12.697  0.00  0.00    -0.390 OA
HETATM   20  H   UNK N   1      37.136  10.063  12.465  0.00  0.00     0.210 HD
ENDBRANCH  12  19
BRANCH  13  21
HETATM   21  C   UNK N   1      35.244  13.149  13.657  0.00  0.00     0.198 C 
BRANCH  21  22
HETATM   22  O   UNK N   1      34.198  12.226  13.647  0.00  0.00    -0.398 OA
HETATM   23  H   UNK N   1      33.645  12.090  12.862  0.00  0.00     0.209 HD
ENDBRANCH  21  22
ENDBRANCH  13  21
ENDBRANCH   8   9
ENDBRANCH   4   8
BRANCH   1  24
HETATM   24  C   UNK N   1      35.631  16.443  11.354  0.00  0.00     0.191 C 
BRANCH  24  25
HETATM   25  O   UNK N   1      36.948  16.201  10.964  0.00  0.00    -0.399 OA
HETATM   26  H   UNK N   1      37.673  15.639  10.648  0.00  0.00     0.209 HD
ENDBRANCH  24  25
ENDBRANCH   1  24
BRANCH   2  27
HETATM   27  O   UNK N   1      33.594  13.752   7.614  0.00  0.00    -0.390 OA
HETATM   28  H   UNK N   1      33.175  13.155   8.252  0.00  0.00     0.210 HD
ENDBRANCH   2  27
BRANCH   3  29
HETATM   29  O   UNK N   1      32.226  16.173   8.493  0.00  0.00    -0.385 OA
HETATM   30  H   UNK N   1      31.386  16.410   8.915  0.00  0.00     0.210 HD
ENDBRANCH   3  29
BRANCH   5  31
HETATM   31  O   UNK N   1      34.510  18.317   7.174  0.00  0.00    -0.348 OA
HETATM   32  H   UNK N   1      34.214  19.188   6.997  0.00  0.00     0.219 HD
ENDBRANCH   5  31
TORSDOF 12
ENDMDL
MODEL 7
REMARK VINA RESULT:      -5.4      3.173      4.552
REMARK  12 active torsions:
REMARK  status: ('A' for Active; 'I' for Inactive)
REMARK    1  A    between atoms: C_3  and  C_1 
REMARK    2  A    between atoms: O_15  and  C_1 
REMARK    3  A    between atoms: C_4  and  C_2 
REMARK    4  A    between atoms: O_16  and  C_2 
REMARK    5  A    between atoms: C_5  and  O_17 
REMARK    6  A    between atoms: C_6  and  O_18 
REMARK    7  A    between atoms: C_7  and  O_19 
REMARK    8  A    between atoms: C_8  and  O_20 
REMARK    9  A    between atoms: C_9  and  O_21 
REMARK   10  A    between atoms: C_10  and  O_24 
REMARK   11  A    between atoms: O_22  and  C_11 
REMARK   12  A    between atoms: C_12  and  O_24 
ROOT
HETATM    1  C   UNK N   1      34.272  16.544   9.246  0.00  0.00     0.138 C 
HETATM    2  C   UNK N   1      35.691  14.413   8.851  0.00  0.00     0.186 C 
HETATM    3  C   UNK N   1      35.955  14.626  10.350  0.00  0.00     0.223 C 
HETATM    4  C   UNK N   1      35.084  15.693   8.198  0.00  0.00     0.181 C 
HETATM    5  C   UNK N   1      34.588  14.903  10.941  0.00  0.00     0.144 C 
HETATM    6  N   UNK N   1      33.801  15.749  10.364  0.00  0.00    -0.363 N 
ATOM      7  HN  UNK N   1      32.843  15.859  10.697  1.00  0.00     0.162 HD
ENDROOT
BRANCH   4   8
HETATM    8  O   UNK N   1      34.310  15.289   7.065  0.00  0.00    -0.348 OA
BRANCH   8   9
HETATM    9  C   UNK N   1      34.923  15.612   5.813  0.00  0.00     0.292 C 
HETATM   10  C   UNK N   1      34.976  14.401   4.852  0.00  0.00     0.204 C 
HETATM   11  C   UNK N   1      33.574  14.024   4.351  0.00  0.00     0.183 C 
HETATM   12  C   UNK N   1      32.901  15.277   3.775  0.00  0.00     0.180 C 
HETATM   13  C   UNK N   1      32.923  16.386   4.846  0.00  0.00     0.179 C 
HETATM   14  O   UNK N   1      34.261  16.710   5.199  0.00  0.00    -0.348 OA
BRANCH  10  15
HETATM   15  O   UNK N   1      35.593  13.307   5.463  0.00  0.00    -0.388 OA
HETATM   16  H   UNK N   1      35.853  12.525   4.950  0.00  0.00     0.210 HD
ENDBRANCH  10  15
BRANCH  11  17
HETATM   17  O   UNK N   1      32.806  13.514   5.402  0.00  0.00    -0.390 OA
HETATM   18  H   UNK N   1      31.941  13.149   5.645  0.00  0.00     0.210 HD
ENDBRANCH  11  17
BRANCH  12  19
HETATM   19  O   UNK N   1      33.589  15.708   2.634  0.00  0.00    -0.390 OA
HETATM   20  H   UNK N   1      34.000  15.343   1.834  0.00  0.00     0.210 HD
ENDBRANCH  12  19
BRANCH  13  21
HETATM   21  C   UNK N   1      32.232  17.633   4.308  0.00  0.00     0.198 C 
BRANCH  21  22
HETATM   22  O   UNK N   1      31.417  17.307   3.223  0.00  0.00    -0.398 OA
HETATM   23  H   UNK N   1      31.788  17.025   2.373  0.00  0.00     0.209 HD
ENDBRANCH  21  22
ENDBRANCH  13  21
ENDBRANCH   8   9
ENDBRANCH   4   8
BRANCH   1  24
HETATM   24  C   UNK N   1      33.139  17.388   8.680  0.00  0.00     0.191 C 
BRANCH  24  25
HETATM   25  O   UNK N   1      33.625  18.289   7.732  0.00  0.00    -0.399 OA
HETATM   26  H   UNK N   1      33.592  19.107   7.212  0.00  0.00     0.209 HD
ENDBRANCH  24  25
ENDBRANCH   1  24
BRANCH   2  27
HETATM   27  O   UNK N   1      36.847  14.015   8.176  0.00  0.00    -0.390 OA
HETATM   28  H   UNK N   1      36.817  13.399   7.428  0.00  0.00     0.210 HD
ENDBRANCH   2  27
BRANCH   3  29
HETATM   29  O   UNK N   1      36.818  15.709  10.550  0.00  0.00    -0.385 OA
HETATM   30  H   UNK N   1      37.441  16.441  10.426  0.00  0.00     0.210 HD
ENDBRANCH   3  29
BRANCH   5  31
HETATM   31  O   UNK N   1      34.145  14.180  11.988  0.00  0.00    -0.348 OA
HETATM   32  H   UNK N   1      33.328  13.918  12.364  0.00  0.00     0.219 HD
ENDBRANCH   5  31
TORSDOF 12
ENDMDL
MODEL 8
REMARK VINA RESULT:      -5.4      1.816      2.232
REMARK  12 active torsions:
REMARK  status: ('A' for Active; 'I' for Inactive)
REMARK    1  A    between atoms: C_3  and  C_1 
REMARK    2  A    between atoms: O_15  and  C_1 
REMARK    3  A    between atoms: C_4  and  C_2 
REMARK    4  A    between atoms: O_16  and  C_2 
REMARK    5  A    between atoms: C_5  and  O_17 
REMARK    6  A    between atoms: C_6  and  O_18 
REMARK    7  A    between atoms: C_7  and  O_19 
REMARK    8  A    between atoms: C_8  and  O_20 
REMARK    9  A    between atoms: C_9  and  O_21 
REMARK   10  A    between atoms: C_10  and  O_24 
REMARK   11  A    between atoms: O_22  and  C_11 
REMARK   12  A    between atoms: C_12  and  O_24 
ROOT
HETATM    1  C   UNK N   1      36.417  15.257  11.032  0.00  0.00     0.138 C 
HETATM    2  C   UNK N   1      36.715  12.986   9.823  0.00  0.00     0.186 C 
HETATM    3  C   UNK N   1      37.714  12.798  10.976  0.00  0.00     0.223 C 
HETATM    4  C   UNK N   1      36.313  14.484   9.663  0.00  0.00     0.181 C 
HETATM    5  C   UNK N   1      36.964  13.260  12.208  0.00  0.00     0.144 C 
HETATM    6  N   UNK N   1      36.312  14.375  12.179  0.00  0.00    -0.363 N 
ATOM      7  HN  UNK N   1      35.720  14.637  12.968  1.00  0.00     0.162 HD
ENDROOT
BRANCH   4   8
HETATM    8  O   UNK N   1      35.010  14.534   9.075  0.00  0.00    -0.348 OA
BRANCH   8   9
HETATM    9  C   UNK N   1      35.024  14.914   7.696  0.00  0.00     0.292 C 
HETATM   10  C   UNK N   1      34.109  14.018   6.828  0.00  0.00     0.204 C 
HETATM   11  C   UNK N   1      32.626  14.266   7.139  0.00  0.00     0.183 C 
HETATM   12  C   UNK N   1      32.343  15.771   7.035  0.00  0.00     0.180 C 
HETATM   13  C   UNK N   1      33.326  16.522   7.955  0.00  0.00     0.179 C 
HETATM   14  O   UNK N   1      34.668  16.283   7.550  0.00  0.00    -0.348 OA
BRANCH  10  15
HETATM   15  O   UNK N   1      34.430  12.669   6.994  0.00  0.00    -0.388 OA
HETATM   16  H   UNK N   1      35.085  12.385   7.652  0.00  0.00     0.210 HD
ENDBRANCH  10  15
BRANCH  11  17
HETATM   17  O   UNK N   1      32.320  13.814   8.426  0.00  0.00    -0.390 OA
HETATM   18  H   UNK N   1      31.799  13.994   9.225  0.00  0.00     0.210 HD
ENDBRANCH  11  17
BRANCH  12  19
HETATM   19  O   UNK N   1      32.512  16.198   5.712  0.00  0.00    -0.390 OA
HETATM   20  H   UNK N   1      33.073  16.021   4.941  0.00  0.00     0.210 HD
ENDBRANCH  12  19
BRANCH  13  21
HETATM   21  C   UNK N   1      33.045  18.019   7.892  0.00  0.00     0.198 C 
BRANCH  21  22
HETATM   22  O   UNK N   1      34.238  18.741   7.939  0.00  0.00    -0.398 OA
HETATM   23  H   UNK N   1      34.638  19.118   7.140  0.00  0.00     0.209 HD
ENDBRANCH  21  22
ENDBRANCH  13  21
ENDBRANCH   8   9
ENDBRANCH   4   8
BRANCH   1  24
HETATM   24  C   UNK N   1      35.487  16.450  11.193  0.00  0.00     0.191 C 
BRANCH  24  25
HETATM   25  O   UNK N   1      35.719  17.391  10.189  0.00  0.00    -0.399 OA
HETATM   26  H   UNK N   1      36.287  17.932   9.618  0.00  0.00     0.209 HD
ENDBRANCH  24  25
ENDBRANCH   1  24
BRANCH   2  27
HETATM   27  O   UNK N   1      37.216  12.477   8.622  0.00  0.00    -0.390 OA
HETATM   28  H   UNK N   1      38.152  12.557   8.383  0.00  0.00     0.210 HD
ENDBRANCH   2  27
BRANCH   3  29
HETATM   29  O   UNK N   1      38.861  13.572  10.767  0.00  0.00    -0.385 OA
HETATM   30  H   UNK N   1      39.484  14.306  10.656  0.00  0.00     0.210 HD
ENDBRANCH   3  29
BRANCH   5  31
HETATM   31  O   UNK N   1      36.870  12.456  13.285  0.00  0.00    -0.348 OA
HETATM   32  H   UNK N   1      36.459  11.649  13.524  0.00  0.00     0.219 HD
ENDBRANCH   5  31
TORSDOF 12
ENDMDL
MODEL 9
REMARK VINA RESULT:      -5.4      4.169      8.113
REMARK  12 active torsions:
REMARK  status: ('A' for Active; 'I' for Inactive)
REMARK    1  A    between atoms: C_3  and  C_1 
REMARK    2  A    between atoms: O_15  and  C_1 
REMARK    3  A    between atoms: C_4  and  C_2 
REMARK    4  A    between atoms: O_16  and  C_2 
REMARK    5  A    between atoms: C_5  and  O_17 
REMARK    6  A    between atoms: C_6  and  O_18 
REMARK    7  A    between atoms: C_7  and  O_19 
REMARK    8  A    between atoms: C_8  and  O_20 
REMARK    9  A    between atoms: C_9  and  O_21 
REMARK   10  A    between atoms: C_10  and  O_24 
REMARK   11  A    between atoms: O_22  and  C_11 
REMARK   12  A    between atoms: C_12  and  O_24 
ROOT
HETATM    1  C   UNK N   1      29.020  17.845   8.234  0.00  0.00     0.138 C 
HETATM    2  C   UNK N   1      29.102  17.525   5.665  0.00  0.00     0.186 C 
HETATM    3  C   UNK N   1      27.696  18.129   5.806  0.00  0.00     0.223 C 
HETATM    4  C   UNK N   1      29.642  17.026   7.040  0.00  0.00     0.181 C 
HETATM    5  C   UNK N   1      27.881  19.307   6.740  0.00  0.00     0.144 C 
HETATM    6  N   UNK N   1      28.562  19.160   7.828  0.00  0.00    -0.363 N 
ATOM      7  HN  UNK N   1      28.777  19.973   8.405  1.00  0.00     0.162 HD
ENDROOT
BRANCH   4   8
HETATM    8  O   UNK N   1      31.071  17.069   6.999  0.00  0.00    -0.348 OA
BRANCH   8   9
HETATM    9  C   UNK N   1      31.673  15.787   6.797  0.00  0.00     0.292 C 
HETATM   10  C   UNK N   1      32.717  15.798   5.656  0.00  0.00     0.204 C 
HETATM   11  C   UNK N   1      33.967  16.600   6.050  0.00  0.00     0.183 C 
HETATM   12  C   UNK N   1      34.486  16.076   7.396  0.00  0.00     0.180 C 
HETATM   13  C   UNK N   1      33.338  16.132   8.423  0.00  0.00     0.179 C 
HETATM   14  O   UNK N   1      32.255  15.311   8.004  0.00  0.00    -0.348 OA
BRANCH  10  15
HETATM   15  O   UNK N   1      32.161  16.299   4.477  0.00  0.00    -0.388 OA
HETATM   16  H   UNK N   1      31.812  17.203   4.429  0.00  0.00     0.210 HD
ENDBRANCH  10  15
BRANCH  11  17
HETATM   17  O   UNK N   1      33.655  17.958   6.158  0.00  0.00    -0.390 OA
HETATM   18  H   UNK N   1      34.026  18.849   6.254  0.00  0.00     0.210 HD
ENDBRANCH  11  17
BRANCH  12  19
HETATM   19  O   UNK N   1      34.932  14.756   7.255  0.00  0.00    -0.390 OA
HETATM   20  H   UNK N   1      35.581  14.147   7.642  0.00  0.00     0.210 HD
ENDBRANCH  12  19
BRANCH  13  21
HETATM   21  C   UNK N   1      33.838  15.644   9.778  0.00  0.00     0.198 C 
BRANCH  21  22
HETATM   22  O   UNK N   1      32.784  15.118  10.526  0.00  0.00    -0.398 OA
HETATM   23  H   UNK N   1      32.016  14.704  10.103  0.00  0.00     0.209 HD
ENDBRANCH  21  22
ENDBRANCH  13  21
ENDBRANCH   8   9
ENDBRANCH   4   8
BRANCH   1  24
HETATM   24  C   UNK N   1      29.877  17.945   9.487  0.00  0.00     0.191 C 
BRANCH  24  25
HETATM   25  O   UNK N   1      30.291  16.679   9.901  0.00  0.00    -0.399 OA
HETATM   26  H   UNK N   1      30.713  16.059  10.516  0.00  0.00     0.209 HD
ENDBRANCH  24  25
ENDBRANCH   1  24
BRANCH   2  27
HETATM   27  O   UNK N   1      29.127  16.495   4.722  0.00  0.00    -0.390 OA
HETATM   28  H   UNK N   1      29.316  15.577   4.971  0.00  0.00     0.210 HD
ENDBRANCH   2  27
BRANCH   3  29
HETATM   29  O   UNK N   1      26.808  17.193   6.346  0.00  0.00    -0.385 OA
HETATM   30  H   UNK N   1      26.309  16.618   6.947  0.00  0.00     0.210 HD
ENDBRANCH   3  29
BRANCH   5  31
HETATM   31  O   UNK N   1      27.448  20.531   6.380  0.00  0.00    -0.348 OA
HETATM   32  H   UNK N   1      27.593  21.153   5.695  0.00  0.00     0.219 HD
ENDBRANCH   5  31
TORSDOF 12
ENDMDL
