REMARK  14 active torsions:
REMARK  status: ('A' for Active; 'I' for Inactive)
REMARK    1  A    between atoms: C_8  and  C_5 
REMARK    2  A    between atoms: C_9  and  C_5 
REMARK    3  A    between atoms: N_21  and  C_8 
REMARK    4  A    between atoms: S_31  and  C_9 
REMARK    5  A    between atoms: C_13  and  C_10 
REMARK    6  A    between atoms: N_23  and  C_10 
REMARK    7  A    between atoms: C_15  and  C_11 
REMARK    8  A    between atoms: N_25  and  C_11 
REMARK    9  A    between atoms: C_14  and  C_12 
REMARK   10  A    between atoms: C_13  and  O_28 
REMARK   11  A    between atoms: C_16  and  C_14 
REMARK   12  A    between atoms: C_14  and  N_27 
REMARK   13  A    between atoms: O_29  and  C_15 
REMARK   14  A    between atoms: O_30  and  C_16 
REMARK       I    between atoms: N_20  and  C_17 
REMARK       I    between atoms: N_27  and  C_17 
ROOT
HETATM    1  C   UNK N   1       0.168   1.785   0.648  0.00  0.00     0.136 C 
HETATM    2  N   UNK N   1      -0.667   2.688   0.274  0.00  0.00    -0.365 N 
ATOM      3  HN  UNK N   1      -1.621   2.551   0.606  1.00  0.00     0.161 HD
ENDROOT
BRANCH   2   4
HETATM    4  C   UNK N   1      -0.475   3.865  -0.539  0.00  0.00     0.205 C 
BRANCH   4   5
HETATM    5  C   UNK N   1      -1.863   4.289  -0.867  0.00  0.00     0.130 C 
HETATM    6  N   UNK N   1      -2.691   4.451   0.109  0.00  0.00    -0.361 N 
ATOM      7  HN  UNK N   1      -2.305   4.560   1.047  1.00  0.00     0.162 HD
BRANCH   6   8
HETATM    8  C   UNK N   1      -4.125   4.489  -0.035  0.00  0.00     0.153 C 
HETATM    9  C   UNK N   1      -4.707   5.084   1.240  0.00  0.00     0.041 C 
BRANCH   8  10
HETATM   10  C   UNK N   1      -4.593   3.056  -0.247  0.00  0.00     0.134 C 
HETATM   11  N   UNK N   1      -5.266   2.442   0.675  0.00  0.00    -0.373 N 
ATOM     12  HN  UNK N   1      -5.467   2.973   1.523  1.00  0.00     0.161 HD
BRANCH  11  13
HETATM   13  C   UNK N   1      -5.766   1.072   0.631  0.00  0.00     0.122 C 
BRANCH  13  14
HETATM   14  C   UNK N   1      -5.028   0.101  -0.292  0.00  0.00     0.029 C 
BRANCH  14  15
HETATM   15  C   UNK N   1      -3.716  -0.364   0.308  0.00  0.00     0.072 C 
BRANCH  15  16
HETATM   16  S   UNK N   1      -3.406  -2.076  -0.212  0.00  0.00    -0.182 SA
HETATM   17  H   UNK N   1      -4.401  -2.918  -0.601  0.00  0.00     0.101 HD
ENDBRANCH  15  16
ENDBRANCH  14  15
ENDBRANCH  13  14
ENDBRANCH  11  13
BRANCH  10  18
HETATM   18  O   UNK N   1      -4.251   2.427  -1.390  0.00  0.00    -0.348 OA
HETATM   19  H   UNK N   1      -4.512   2.003  -2.184  0.00  0.00     0.219 HD
ENDBRANCH  10  18
ENDBRANCH   8  10
ENDBRANCH   6   8
BRANCH   5  20
HETATM   20  O   UNK N   1      -2.276   4.312  -2.151  0.00  0.00    -0.348 OA
HETATM   21  H   UNK N   1      -2.405   4.569  -3.043  0.00  0.00     0.219 HD
ENDBRANCH   5  20
ENDBRANCH   4   5
ENDBRANCH   2   4
BRANCH   1  22
HETATM   22  C   UNK N   1       1.656   1.752   0.324  0.00  0.00     0.177 C 
BRANCH  22  23
HETATM   23  C   UNK N   1       2.023   0.611  -0.661  0.00  0.00     0.017 C 
HETATM   24  C   UNK N   1       3.341  -0.081  -0.298  0.00  0.00     0.007 C 
HETATM   25  C   UNK N   1       3.111  -1.109   0.813  0.00  0.00     0.000 C 
HETATM   26  C   UNK N   1       2.100  -2.157   0.356  0.00  0.00     0.000 C 
HETATM   27  C   UNK N   1       0.767  -1.496   0.028  0.00  0.00     0.000 C 
HETATM   28  C   UNK N   1       0.947  -0.424  -1.045  0.00  0.00     0.007 C 
ENDBRANCH  22  23
BRANCH  22  29
HETATM   29  N   UNK N   1       2.210   2.986  -0.203  0.00  0.00    -0.215 N 
HETATM   30  C   UNK N   1       2.298   4.189   0.547  0.00  0.00     0.665 C 
HETATM   31  N   UNK N   1       2.871   5.215   0.027  0.00  0.00    -0.235 N 
HETATM   32  N   UNK N   1       1.769   4.275   1.852  0.00  0.00    -0.235 N 
HETATM   33  H   UNK N   1       3.771   5.228  -0.372  0.00  0.00     0.174 HD
ATOM     34  HN  UNK N   1       2.349   6.091   0.027  1.00  0.00     0.174 HD
HETATM   35  H   UNK N   1       1.636   4.624   2.763  0.00  0.00     0.174 HD
HETATM   36  H   UNK N   1       1.148   3.511   1.852  0.00  0.00     0.174 HD
HETATM   37  H   UNK N   1       2.542   2.989  -1.130  0.00  0.00     0.178 HD
ENDBRANCH  22  29
ENDBRANCH   1  22
BRANCH   1  38
HETATM   38  O   UNK N   1      -0.319   0.769   1.386  0.00  0.00    -0.348 OA
HETATM   39  H   UNK N   1      -1.101   0.709   1.899  0.00  0.00     0.219 HD
ENDBRANCH   1  38
TORSDOF 14
