MODEL 1
REMARK VINA RESULT:      -7.6      0.000      0.000
REMARK  17 active torsions:
REMARK  status: ('A' for Active; 'I' for Inactive)
REMARK    1  A    between atoms: C_5  and  C_3 
REMARK    2  A    between atoms: O_20  and  C_3 
REMARK    3  A    between atoms: C_6  and  C_4 
REMARK    4  A    between atoms: O_31  and  C_4 
REMARK    5  A    between atoms: O_21  and  C_7 
REMARK    6  A    between atoms: C_9  and  O_22 
REMARK    7  A    between atoms: C_10  and  O_23 
REMARK    8  A    between atoms: C_11  and  O_24 
REMARK    9  A    between atoms: C_12  and  O_25 
REMARK   10  A    between atoms: C_13  and  N_19 
REMARK   11  A    between atoms: C_14  and  O_34 
REMARK   12  A    between atoms: P_36  and  O_27 
REMARK   13  A    between atoms: P_37  and  O_29 
REMARK   14  A    between atoms: P_36  and  O_31 
REMARK   15  A    between atoms: P_37  and  O_34 
REMARK   16  A    between atoms: P_36  and  O_35 
REMARK   17  A    between atoms: P_37  and  O_35 
ROOT
HETATM    1  O   UNK N   1      35.469  16.683  10.527  0.00  0.00    -0.631 OA
HETATM    2  P   UNK N   1      34.983  15.204  10.482  0.00  0.00     0.401 P 
ENDROOT
BRANCH   2   3
HETATM    3  O   UNK N   1      33.304  15.262  10.936  0.00  0.00    -0.307 OA
HETATM    4  H   UNK N   1      32.499  15.687  11.270  0.00  0.00     0.222 HD
ENDBRANCH   2   3
BRANCH   2   5
HETATM    5  O   UNK N   1      35.153  14.571   8.866  0.00  0.00    -0.294 OA
BRANCH   5   6
HETATM    6  C   UNK N   1      33.868  14.224   8.498  0.00  0.00     0.215 C 
BRANCH   6   7
HETATM    7  C   UNK N   1      33.464  14.853   7.176  0.00  0.00     0.180 C 
HETATM    8  C   UNK N   1      34.359  16.062   6.855  0.00  0.00     0.182 C 
HETATM    9  C   UNK N   1      33.364  17.204   6.854  0.00  0.00     0.198 C 
HETATM   10  C   UNK N   1      32.341  16.659   7.844  0.00  0.00     0.263 C 
HETATM   11  O   UNK N   1      32.162  15.342   7.383  0.00  0.00    -0.353 OA
BRANCH   8  12
HETATM   12  O   UNK N   1      35.004  15.942   5.621  0.00  0.00    -0.390 OA
HETATM   13  H   UNK N   1      35.865  16.144   5.220  0.00  0.00     0.210 HD
ENDBRANCH   8  12
BRANCH   9  14
HETATM   14  O   UNK N   1      33.964  18.404   7.245  0.00  0.00    -0.388 OA
HETATM   15  H   UNK N   1      34.855  18.625   7.558  0.00  0.00     0.210 HD
ENDBRANCH   9  14
BRANCH  10  16
HETATM   16  N   UNK N   1      31.020  17.310   7.953  0.00  0.00    -0.280 N 
HETATM   17  C   UNK N   1      30.742  17.876   9.167  0.00  0.00     0.103 A 
HETATM   18  C   UNK N   1      29.529  18.505   9.412  0.00  0.00     0.073 A 
HETATM   19  C   UNK N   1      28.597  18.571   8.391  0.00  0.00     0.144 A 
HETATM   20  N   UNK N   1      28.880  18.031   7.179  0.00  0.00    -0.289 N 
HETATM   21  C   UNK N   1      30.074  17.401   6.943  0.00  0.00     0.330 A 
ATOM     22  HN  UNK N   1      28.191  18.096   6.429  1.00  0.00     0.172 HD
HETATM   23  O   UNK N   1      30.290  16.948   5.834  0.00  0.00    -0.246 OA
BRANCH  19  24
HETATM   24  O   UNK N   1      27.415  19.171   8.601  0.00  0.00    -0.346 OA
HETATM   25  H   UNK N   1      27.262  20.035   8.272  0.00  0.00     0.219 HD
ENDBRANCH  19  24
ENDBRANCH  10  16
ENDBRANCH   6   7
ENDBRANCH   5   6
ENDBRANCH   2   5
BRANCH   2  26
HETATM   26  O   UNK N   1      36.016  14.319  11.647  0.00  0.00    -0.195 OA
BRANCH  26  27
HETATM   27  P   UNK N   1      35.926  12.534  11.538  0.00  0.00     0.404 P 
HETATM   28  O   UNK N   1      37.315  12.816  12.158  0.00  0.00    -0.631 OA
BRANCH  27  29
HETATM   29  O   UNK N   1      34.435  13.107  12.224  0.00  0.00    -0.307 OA
HETATM   30  H   UNK N   1      33.776  12.520  12.626  0.00  0.00     0.222 HD
ENDBRANCH  27  29
BRANCH  27  31
HETATM   31  O   UNK N   1      35.696  11.762  13.110  0.00  0.00    -0.263 OA
BRANCH  31  32
HETATM   32  C   UNK N   1      34.926  12.438  14.113  0.00  0.00     0.303 C 
HETATM   33  C   UNK N   1      34.167  11.594  15.170  0.00  0.00     0.205 C 
HETATM   34  C   UNK N   1      34.982  11.373  16.445  0.00  0.00     0.188 C 
HETATM   35  C   UNK N   1      35.487  12.741  16.940  0.00  0.00     0.232 C 
HETATM   36  C   UNK N   1      36.300  13.393  15.821  0.00  0.00     0.184 C 
HETATM   37  F   UNK N   1      34.425  13.562  17.282  0.00  0.00    -0.244 F 
HETATM   38  O   UNK N   1      35.522  13.617  14.645  0.00  0.00    -0.348 OA
BRANCH  33  39
HETATM   39  O   UNK N   1      33.706  10.390  14.632  0.00  0.00    -0.388 OA
HETATM   40  H   UNK N   1      33.314  10.185  13.770  0.00  0.00     0.210 HD
ENDBRANCH  33  39
BRANCH  34  41
HETATM   41  O   UNK N   1      36.053  10.512  16.198  0.00  0.00    -0.390 OA
HETATM   42  H   UNK N   1      36.618   9.900  15.700  0.00  0.00     0.210 HD
ENDBRANCH  34  41
BRANCH  36  43
HETATM   43  C   UNK N   1      36.899  14.722  16.250  0.00  0.00     0.199 C 
BRANCH  43  44
HETATM   44  O   UNK N   1      37.635  15.268  15.193  0.00  0.00    -0.398 OA
HETATM   45  H   UNK N   1      37.851  14.723  14.420  0.00  0.00     0.209 HD
ENDBRANCH  43  44
ENDBRANCH  36  43
ENDBRANCH  31  32
ENDBRANCH  27  31
ENDBRANCH  26  27
ENDBRANCH   2  26
TORSDOF 17
ENDMDL
MODEL 2
REMARK VINA RESULT:      -7.6      2.309      3.333
REMARK  17 active torsions:
REMARK  status: ('A' for Active; 'I' for Inactive)
REMARK    1  A    between atoms: C_5  and  C_3 
REMARK    2  A    between atoms: O_20  and  C_3 
REMARK    3  A    between atoms: C_6  and  C_4 
REMARK    4  A    between atoms: O_31  and  C_4 
REMARK    5  A    between atoms: O_21  and  C_7 
REMARK    6  A    between atoms: C_9  and  O_22 
REMARK    7  A    between atoms: C_10  and  O_23 
REMARK    8  A    between atoms: C_11  and  O_24 
REMARK    9  A    between atoms: C_12  and  O_25 
REMARK   10  A    between atoms: C_13  and  N_19 
REMARK   11  A    between atoms: C_14  and  O_34 
REMARK   12  A    between atoms: P_36  and  O_27 
REMARK   13  A    between atoms: P_37  and  O_29 
REMARK   14  A    between atoms: P_36  and  O_31 
REMARK   15  A    between atoms: P_37  and  O_34 
REMARK   16  A    between atoms: P_36  and  O_35 
REMARK   17  A    between atoms: P_37  and  O_35 
ROOT
HETATM    1  O   UNK N   1      37.986  13.881   9.658  0.00  0.00    -0.631 OA
HETATM    2  P   UNK N   1      36.843  13.784  10.711  0.00  0.00     0.401 P 
ENDROOT
BRANCH   2   3
HETATM    3  O   UNK N   1      37.627  13.317  12.193  0.00  0.00    -0.307 OA
HETATM    4  H   UNK N   1      38.156  13.467  12.992  0.00  0.00     0.222 HD
ENDBRANCH   2   3
BRANCH   2   5
HETATM    5  O   UNK N   1      36.071  15.336  10.897  0.00  0.00    -0.294 OA
BRANCH   5   6
HETATM    6  C   UNK N   1      35.673  15.675   9.619  0.00  0.00     0.215 C 
BRANCH   6   7
HETATM    7  C   UNK N   1      34.224  16.128   9.574  0.00  0.00     0.180 C 
HETATM    8  C   UNK N   1      33.277  14.927   9.742  0.00  0.00     0.182 C 
HETATM    9  C   UNK N   1      32.541  14.914   8.418  0.00  0.00     0.198 C 
HETATM   10  C   UNK N   1      33.611  15.520   7.518  0.00  0.00     0.263 C 
HETATM   11  O   UNK N   1      34.035  16.629   8.274  0.00  0.00    -0.353 OA
BRANCH   8  12
HETATM   12  O   UNK N   1      32.397  15.081  10.817  0.00  0.00    -0.390 OA
HETATM   13  H   UNK N   1      32.282  15.650  11.596  0.00  0.00     0.210 HD
ENDBRANCH   8  12
BRANCH   9  14
HETATM   14  O   UNK N   1      32.151  13.620   8.063  0.00  0.00    -0.388 OA
HETATM   15  H   UNK N   1      31.297  13.233   7.815  0.00  0.00     0.210 HD
ENDBRANCH   9  14
BRANCH  10  16
HETATM   16  N   UNK N   1      33.245  15.977   6.163  0.00  0.00    -0.280 N 
HETATM   17  C   UNK N   1      32.167  16.816   6.096  0.00  0.00     0.103 A 
HETATM   18  C   UNK N   1      31.705  17.307   4.883  0.00  0.00     0.073 A 
HETATM   19  C   UNK N   1      32.370  16.947   3.724  0.00  0.00     0.144 A 
HETATM   20  N   UNK N   1      33.455  16.134   3.790  0.00  0.00    -0.289 N 
HETATM   21  C   UNK N   1      33.903  15.642   4.989  0.00  0.00     0.330 A 
ATOM     22  HN  UNK N   1      33.946  15.885   2.932  1.00  0.00     0.172 HD
HETATM   23  O   UNK N   1      34.890  14.931   4.999  0.00  0.00    -0.246 OA
BRANCH  19  24
HETATM   24  O   UNK N   1      31.943  17.405   2.537  0.00  0.00    -0.346 OA
HETATM   25  H   UNK N   1      32.336  18.167   2.159  0.00  0.00     0.219 HD
ENDBRANCH  19  24
ENDBRANCH  10  16
ENDBRANCH   6   7
ENDBRANCH   5   6
ENDBRANCH   2   5
BRANCH   2  26
HETATM   26  O   UNK N   1      35.704  12.555  10.078  0.00  0.00    -0.195 OA
BRANCH  26  27
HETATM   27  P   UNK N   1      35.034  11.437  11.305  0.00  0.00     0.404 P 
HETATM   28  O   UNK N   1      36.476  10.932  11.066  0.00  0.00    -0.631 OA
BRANCH  27  29
HETATM   29  O   UNK N   1      34.654  13.061  11.794  0.00  0.00    -0.307 OA
HETATM   30  H   UNK N   1      33.792  13.476  11.632  0.00  0.00     0.222 HD
ENDBRANCH  27  29
BRANCH  27  31
HETATM   31  O   UNK N   1      35.700  11.709  12.919  0.00  0.00    -0.263 OA
BRANCH  31  32
HETATM   32  C   UNK N   1      34.911  12.410  13.889  0.00  0.00     0.303 C 
HETATM   33  C   UNK N   1      34.096  11.592  14.924  0.00  0.00     0.205 C 
HETATM   34  C   UNK N   1      34.860  11.362  16.228  0.00  0.00     0.188 C 
HETATM   35  C   UNK N   1      35.379  12.722  16.731  0.00  0.00     0.232 C 
HETATM   36  C   UNK N   1      36.245  13.347  15.638  0.00  0.00     0.184 C 
HETATM   37  F   UNK N   1      34.324  13.569  17.030  0.00  0.00    -0.244 F 
HETATM   38  O   UNK N   1      35.514  13.579  14.434  0.00  0.00    -0.348 OA
BRANCH  33  39
HETATM   39  O   UNK N   1      33.628  10.394  14.379  0.00  0.00    -0.388 OA
HETATM   40  H   UNK N   1      33.770   9.990  13.509  0.00  0.00     0.210 HD
ENDBRANCH  33  39
BRANCH  34  41
HETATM   41  O   UNK N   1      35.920  10.475  16.025  0.00  0.00    -0.390 OA
HETATM   42  H   UNK N   1      36.536   9.909  15.534  0.00  0.00     0.210 HD
ENDBRANCH  34  41
BRANCH  36  43
HETATM   43  C   UNK N   1      36.859  14.665  16.078  0.00  0.00     0.199 C 
BRANCH  43  44
HETATM   44  O   UNK N   1      37.666  15.173  15.055  0.00  0.00    -0.398 OA
HETATM   45  H   UNK N   1      37.261  15.523  14.246  0.00  0.00     0.209 HD
ENDBRANCH  43  44
ENDBRANCH  36  43
ENDBRANCH  31  32
ENDBRANCH  27  31
ENDBRANCH  26  27
ENDBRANCH   2  26
TORSDOF 17
ENDMDL
MODEL 3
REMARK VINA RESULT:      -7.5     10.013     13.725
REMARK  17 active torsions:
REMARK  status: ('A' for Active; 'I' for Inactive)
REMARK    1  A    between atoms: C_5  and  C_3 
REMARK    2  A    between atoms: O_20  and  C_3 
REMARK    3  A    between atoms: C_6  and  C_4 
REMARK    4  A    between atoms: O_31  and  C_4 
REMARK    5  A    between atoms: O_21  and  C_7 
REMARK    6  A    between atoms: C_9  and  O_22 
REMARK    7  A    between atoms: C_10  and  O_23 
REMARK    8  A    between atoms: C_11  and  O_24 
REMARK    9  A    between atoms: C_12  and  O_25 
REMARK   10  A    between atoms: C_13  and  N_19 
REMARK   11  A    between atoms: C_14  and  O_34 
REMARK   12  A    between atoms: P_36  and  O_27 
REMARK   13  A    between atoms: P_37  and  O_29 
REMARK   14  A    between atoms: P_36  and  O_31 
REMARK   15  A    between atoms: P_37  and  O_34 
REMARK   16  A    between atoms: P_36  and  O_35 
REMARK   17  A    between atoms: P_37  and  O_35 
ROOT
HETATM    1  O   UNK N   1      24.481  14.070   7.380  0.00  0.00    -0.631 OA
HETATM    2  P   UNK N   1      23.540  14.275   6.156  0.00  0.00     0.401 P 
ENDROOT
BRANCH   2   3
HETATM    3  O   UNK N   1      23.329  12.689   5.472  0.00  0.00    -0.307 OA
HETATM    4  H   UNK N   1      23.111  12.057   4.769  0.00  0.00     0.222 HD
ENDBRANCH   2   3
BRANCH   2   5
HETATM    5  O   UNK N   1      22.008  14.916   6.685  0.00  0.00    -0.294 OA
BRANCH   5   6
HETATM    6  C   UNK N   1      22.144  16.283   6.551  0.00  0.00     0.215 C 
BRANCH   6   7
HETATM    7  C   UNK N   1      20.802  16.980   6.406  0.00  0.00     0.180 C 
HETATM    8  C   UNK N   1      19.716  15.978   5.977  0.00  0.00     0.182 C 
HETATM    9  C   UNK N   1      19.306  16.515   4.621  0.00  0.00     0.198 C 
HETATM   10  C   UNK N   1      20.613  17.170   4.193  0.00  0.00     0.263 C 
HETATM   11  O   UNK N   1      20.971  17.890   5.348  0.00  0.00    -0.353 OA
BRANCH   8  12
HETATM   12  O   UNK N   1      18.636  15.941   6.863  0.00  0.00    -0.390 OA
HETATM   13  H   UNK N   1      17.681  16.113   6.864  0.00  0.00     0.210 HD
ENDBRANCH   8  12
BRANCH   9  14
HETATM   14  O   UNK N   1      18.869  15.490   3.777  0.00  0.00    -0.388 OA
HETATM   15  H   UNK N   1      19.338  14.823   3.252  0.00  0.00     0.210 HD
ENDBRANCH   9  14
BRANCH  10  16
HETATM   16  N   UNK N   1      20.619  18.088   3.037  0.00  0.00    -0.280 N 
HETATM   17  C   UNK N   1      20.956  19.384   3.317  0.00  0.00     0.103 A 
HETATM   18  C   UNK N   1      20.983  20.356   2.327  0.00  0.00     0.073 A 
HETATM   19  C   UNK N   1      20.681  19.989   1.027  0.00  0.00     0.144 A 
HETATM   20  N   UNK N   1      20.370  18.698   0.742  0.00  0.00    -0.289 N 
HETATM   21  C   UNK N   1      20.333  17.743   1.725  0.00  0.00     0.330 A 
ATOM     22  HN  UNK N   1      20.161  18.435  -0.221  1.00  0.00     0.172 HD
HETATM   23  O   UNK N   1      20.067  16.596   1.418  0.00  0.00    -0.246 OA
BRANCH  19  24
HETATM   24  O   UNK N   1      20.697  20.908   0.050  0.00  0.00    -0.346 OA
HETATM   25  H   UNK N   1      20.243  20.748  -0.754  0.00  0.00     0.219 HD
ENDBRANCH  19  24
ENDBRANCH  10  16
ENDBRANCH   6   7
ENDBRANCH   5   6
ENDBRANCH   2   5
BRANCH   2  26
HETATM   26  O   UNK N   1      24.394  15.420   5.075  0.00  0.00    -0.195 OA
BRANCH  26  27
HETATM   27  P   UNK N   1      26.178  15.267   5.064  0.00  0.00     0.404 P 
HETATM   28  O   UNK N   1      25.799  15.510   3.584  0.00  0.00    -0.631 OA
BRANCH  27  29
HETATM   29  O   UNK N   1      25.738  16.343   6.356  0.00  0.00    -0.307 OA
HETATM   30  H   UNK N   1      25.492  16.036   7.242  0.00  0.00     0.222 HD
ENDBRANCH  27  29
BRANCH  27  31
HETATM   31  O   UNK N   1      26.997  16.812   4.813  0.00  0.00    -0.263 OA
BRANCH  31  32
HETATM   32  C   UNK N   1      26.508  17.978   5.490  0.00  0.00     0.303 C 
HETATM   33  C   UNK N   1      27.528  18.943   6.149  0.00  0.00     0.205 C 
HETATM   34  C   UNK N   1      27.944  20.085   5.222  0.00  0.00     0.188 C 
HETATM   35  C   UNK N   1      26.669  20.754   4.675  0.00  0.00     0.232 C 
HETATM   36  C   UNK N   1      25.828  19.692   3.968  0.00  0.00     0.184 C 
HETATM   37  F   UNK N   1      25.934  21.321   5.704  0.00  0.00    -0.244 F 
HETATM   38  O   UNK N   1      25.425  18.644   4.849  0.00  0.00    -0.348 OA
BRANCH  33  39
HETATM   39  O   UNK N   1      28.634  18.255   6.655  0.00  0.00    -0.388 OA
HETATM   40  H   UNK N   1      28.693  17.492   7.249  0.00  0.00     0.210 HD
ENDBRANCH  33  39
BRANCH  34  41
HETATM   41  O   UNK N   1      28.735  19.604   4.177  0.00  0.00    -0.390 OA
HETATM   42  H   UNK N   1      29.043  18.989   3.493  0.00  0.00     0.210 HD
ENDBRANCH  34  41
BRANCH  36  43
HETATM   43  C   UNK N   1      24.579  20.281   3.334  0.00  0.00     0.199 C 
BRANCH  43  44
HETATM   44  O   UNK N   1      24.899  20.826   2.085  0.00  0.00    -0.398 OA
HETATM   45  H   UNK N   1      25.594  21.498   2.013  0.00  0.00     0.209 HD
ENDBRANCH  43  44
ENDBRANCH  36  43
ENDBRANCH  31  32
ENDBRANCH  27  31
ENDBRANCH  26  27
ENDBRANCH   2  26
TORSDOF 17
ENDMDL
MODEL 4
REMARK VINA RESULT:      -7.4      4.067      8.941
REMARK  17 active torsions:
REMARK  status: ('A' for Active; 'I' for Inactive)
REMARK    1  A    between atoms: C_5  and  C_3 
REMARK    2  A    between atoms: O_20  and  C_3 
REMARK    3  A    between atoms: C_6  and  C_4 
REMARK    4  A    between atoms: O_31  and  C_4 
REMARK    5  A    between atoms: O_21  and  C_7 
REMARK    6  A    between atoms: C_9  and  O_22 
REMARK    7  A    between atoms: C_10  and  O_23 
REMARK    8  A    between atoms: C_11  and  O_24 
REMARK    9  A    between atoms: C_12  and  O_25 
REMARK   10  A    between atoms: C_13  and  N_19 
REMARK   11  A    between atoms: C_14  and  O_34 
REMARK   12  A    between atoms: P_36  and  O_27 
REMARK   13  A    between atoms: P_37  and  O_29 
REMARK   14  A    between atoms: P_36  and  O_31 
REMARK   15  A    between atoms: P_37  and  O_34 
REMARK   16  A    between atoms: P_36  and  O_35 
REMARK   17  A    between atoms: P_37  and  O_35 
ROOT
HETATM    1  O   UNK N   1      35.245   9.403  10.243  0.00  0.00    -0.631 OA
HETATM    2  P   UNK N   1      35.536  10.929  10.350  0.00  0.00     0.401 P 
ENDROOT
BRANCH   2   3
HETATM    3  O   UNK N   1      33.984  11.701  10.206  0.00  0.00    -0.307 OA
HETATM    4  H   UNK N   1      33.325  12.390  10.386  0.00  0.00     0.222 HD
ENDBRANCH   2   3
BRANCH   2   5
HETATM    5  O   UNK N   1      36.252  11.291  11.898  0.00  0.00    -0.294 OA
BRANCH   5   6
HETATM    6  C   UNK N   1      35.176  11.391  12.757  0.00  0.00     0.215 C 
BRANCH   6   7
HETATM    7  C   UNK N   1      34.995  12.803  13.284  0.00  0.00     0.180 C 
HETATM    8  C   UNK N   1      36.336  13.558  13.282  0.00  0.00     0.182 C 
HETATM    9  C   UNK N   1      36.551  13.828  14.757  0.00  0.00     0.198 C 
HETATM   10  C   UNK N   1      35.811  12.636  15.352  0.00  0.00     0.263 C 
HETATM   11  O   UNK N   1      34.606  12.649  14.627  0.00  0.00    -0.353 OA
BRANCH   8  12
HETATM   12  O   UNK N   1      36.286  14.743  12.545  0.00  0.00    -0.390 OA
HETATM   13  H   UNK N   1      35.643  15.267  12.039  0.00  0.00     0.210 HD
ENDBRANCH   8  12
BRANCH   9  14
HETATM   14  O   UNK N   1      37.912  13.881  15.074  0.00  0.00    -0.388 OA
HETATM   15  H   UNK N   1      38.579  13.195  15.231  0.00  0.00     0.210 HD
ENDBRANCH   9  14
BRANCH  10  16
HETATM   16  N   UNK N   1      35.500  12.623  16.795  0.00  0.00    -0.280 N 
HETATM   17  C   UNK N   1      35.283  13.849  17.362  0.00  0.00     0.103 A 
HETATM   18  C   UNK N   1      34.998  13.983  18.713  0.00  0.00     0.073 A 
HETATM   19  C   UNK N   1      34.916  12.841  19.491  0.00  0.00     0.144 A 
HETATM   20  N   UNK N   1      35.107  11.622  18.927  0.00  0.00    -0.289 N 
HETATM   21  C   UNK N   1      35.399  11.493  17.594  0.00  0.00     0.330 A 
ATOM     22  HN  UNK N   1      35.031  10.785  19.505  1.00  0.00     0.172 HD
HETATM   23  O   UNK N   1      35.544  10.378  17.129  0.00  0.00    -0.246 OA
BRANCH  19  24
HETATM   24  O   UNK N   1      34.644  12.941  20.801  0.00  0.00    -0.346 OA
HETATM   25  H   UNK N   1      33.854  12.574  21.147  0.00  0.00     0.219 HD
ENDBRANCH  19  24
ENDBRANCH  10  16
ENDBRANCH   6   7
ENDBRANCH   5   6
ENDBRANCH   2   5
BRANCH   2  26
HETATM   26  O   UNK N   1      36.657  11.304   9.004  0.00  0.00    -0.195 OA
BRANCH  26  27
HETATM   27  P   UNK N   1      36.422  12.908   8.244  0.00  0.00     0.404 P 
HETATM   28  O   UNK N   1      35.263  12.044   7.694  0.00  0.00    -0.631 OA
BRANCH  27  29
HETATM   29  O   UNK N   1      36.715  13.154   9.940  0.00  0.00    -0.307 OA
HETATM   30  H   UNK N   1      36.125  13.671  10.511  0.00  0.00     0.222 HD
ENDBRANCH  27  29
BRANCH  27  31
HETATM   31  O   UNK N   1      35.058  13.798   8.928  0.00  0.00    -0.263 OA
BRANCH  31  32
HETATM   32  C   UNK N   1      34.192  14.528   8.049  0.00  0.00     0.303 C 
HETATM   33  C   UNK N   1      32.659  14.326   8.172  0.00  0.00     0.205 C 
HETATM   34  C   UNK N   1      32.001  15.348   9.099  0.00  0.00     0.188 C 
HETATM   35  C   UNK N   1      32.442  16.756   8.659  0.00  0.00     0.232 C 
HETATM   36  C   UNK N   1      33.969  16.820   8.693  0.00  0.00     0.184 C 
HETATM   37  F   UNK N   1      31.993  17.032   7.378  0.00  0.00    -0.244 F 
HETATM   38  O   UNK N   1      34.571  15.878   7.805  0.00  0.00    -0.348 OA
BRANCH  33  39
HETATM   39  O   UNK N   1      32.340  13.015   8.534  0.00  0.00    -0.388 OA
HETATM   40  H   UNK N   1      32.249  12.210   8.001  0.00  0.00     0.210 HD
ENDBRANCH  33  39
BRANCH  34  41
HETATM   41  O   UNK N   1      32.365  15.110  10.426  0.00  0.00    -0.390 OA
HETATM   42  H   UNK N   1      32.585  15.316  11.348  0.00  0.00     0.210 HD
ENDBRANCH  34  41
BRANCH  36  43
HETATM   43  C   UNK N   1      34.491  18.202   8.340  0.00  0.00     0.199 C 
BRANCH  43  44
HETATM   44  O   UNK N   1      34.616  18.315   6.951  0.00  0.00    -0.398 OA
HETATM   45  H   UNK N   1      34.194  19.054   6.485  0.00  0.00     0.209 HD
ENDBRANCH  43  44
ENDBRANCH  36  43
ENDBRANCH  31  32
ENDBRANCH  27  31
ENDBRANCH  26  27
ENDBRANCH   2  26
TORSDOF 17
ENDMDL
MODEL 5
REMARK VINA RESULT:      -7.4      3.907      9.362
REMARK  17 active torsions:
REMARK  status: ('A' for Active; 'I' for Inactive)
REMARK    1  A    between atoms: C_5  and  C_3 
REMARK    2  A    between atoms: O_20  and  C_3 
REMARK    3  A    between atoms: C_6  and  C_4 
REMARK    4  A    between atoms: O_31  and  C_4 
REMARK    5  A    between atoms: O_21  and  C_7 
REMARK    6  A    between atoms: C_9  and  O_22 
REMARK    7  A    between atoms: C_10  and  O_23 
REMARK    8  A    between atoms: C_11  and  O_24 
REMARK    9  A    between atoms: C_12  and  O_25 
REMARK   10  A    between atoms: C_13  and  N_19 
REMARK   11  A    between atoms: C_14  and  O_34 
REMARK   12  A    between atoms: P_36  and  O_27 
REMARK   13  A    between atoms: P_37  and  O_29 
REMARK   14  A    between atoms: P_36  and  O_31 
REMARK   15  A    between atoms: P_37  and  O_34 
REMARK   16  A    between atoms: P_36  and  O_35 
REMARK   17  A    between atoms: P_37  and  O_35 
ROOT
HETATM    1  O   UNK N   1      35.799   9.906   9.827  0.00  0.00    -0.631 OA
HETATM    2  P   UNK N   1      35.358  11.373  10.104  0.00  0.00     0.401 P 
ENDROOT
BRANCH   2   3
HETATM    3  O   UNK N   1      33.624  11.312  10.235  0.00  0.00    -0.307 OA
HETATM    4  H   UNK N   1      32.782  11.004  10.604  0.00  0.00     0.222 HD
ENDBRANCH   2   3
BRANCH   2   5
HETATM    5  O   UNK N   1      36.060  11.932  11.599  0.00  0.00    -0.294 OA
BRANCH   5   6
HETATM    6  C   UNK N   1      35.016  11.894  12.502  0.00  0.00     0.215 C 
BRANCH   6   7
HETATM    7  C   UNK N   1      34.883  13.194  13.276  0.00  0.00     0.180 C 
HETATM    8  C   UNK N   1      36.232  13.931  13.334  0.00  0.00     0.182 C 
HETATM    9  C   UNK N   1      36.527  13.939  14.820  0.00  0.00     0.198 C 
HETATM   10  C   UNK N   1      35.802  12.665  15.237  0.00  0.00     0.263 C 
HETATM   11  O   UNK N   1      34.561  12.810  14.590  0.00  0.00    -0.353 OA
BRANCH   8  12
HETATM   12  O   UNK N   1      36.161  15.227  12.818  0.00  0.00    -0.390 OA
HETATM   13  H   UNK N   1      36.751  15.973  12.622  0.00  0.00     0.210 HD
ENDBRANCH   8  12
BRANCH   9  14
HETATM   14  O   UNK N   1      37.902  13.929  15.067  0.00  0.00    -0.388 OA
HETATM   15  H   UNK N   1      38.676  14.064  14.498  0.00  0.00     0.210 HD
ENDBRANCH   9  14
BRANCH  10  16
HETATM   16  N   UNK N   1      35.566  12.401  16.670  0.00  0.00    -0.280 N 
HETATM   17  C   UNK N   1      35.255  13.498  17.426  0.00  0.00     0.103 A 
HETATM   18  C   UNK N   1      35.026  13.395  18.791  0.00  0.00     0.073 A 
HETATM   19  C   UNK N   1      35.097  12.147  19.385  0.00  0.00     0.144 A 
HETATM   20  N   UNK N   1      35.381  11.054  18.632  0.00  0.00    -0.289 N 
HETATM   21  C   UNK N   1      35.618  11.160  17.286  0.00  0.00     0.330 A 
ATOM     22  HN  UNK N   1      35.419  10.136  19.077  1.00  0.00     0.172 HD
HETATM   23  O   UNK N   1      35.852  10.149  16.650  0.00  0.00    -0.246 OA
BRANCH  19  24
HETATM   24  O   UNK N   1      34.882  12.019  20.703  0.00  0.00    -0.346 OA
HETATM   25  H   UNK N   1      34.011  12.076  21.045  0.00  0.00     0.219 HD
ENDBRANCH  19  24
ENDBRANCH  10  16
ENDBRANCH   6   7
ENDBRANCH   5   6
ENDBRANCH   2   5
BRANCH   2  26
HETATM   26  O   UNK N   1      35.944  12.327   8.706  0.00  0.00    -0.195 OA
BRANCH  26  27
HETATM   27  P   UNK N   1      36.395  14.019   9.076  0.00  0.00     0.404 P 
HETATM   28  O   UNK N   1      36.959  13.768   7.658  0.00  0.00    -0.631 OA
BRANCH  27  29
HETATM   29  O   UNK N   1      34.721  13.805   9.495  0.00  0.00    -0.307 OA
HETATM   30  H   UNK N   1      34.017  14.396   9.186  0.00  0.00     0.222 HD
ENDBRANCH  27  29
BRANCH  27  31
HETATM   31  O   UNK N   1      35.433  15.198   8.177  0.00  0.00    -0.263 OA
BRANCH  31  32
HETATM   32  C   UNK N   1      34.217  15.690   8.754  0.00  0.00     0.303 C 
HETATM   33  C   UNK N   1      34.163  17.160   9.247  0.00  0.00     0.205 C 
HETATM   34  C   UNK N   1      33.636  18.121   8.182  0.00  0.00     0.188 C 
HETATM   35  C   UNK N   1      32.306  17.563   7.642  0.00  0.00     0.232 C 
HETATM   36  C   UNK N   1      32.553  16.156   7.101  0.00  0.00     0.184 C 
HETATM   37  F   UNK N   1      31.351  17.515   8.645  0.00  0.00    -0.244 F 
HETATM   38  O   UNK N   1      33.021  15.261   8.110  0.00  0.00    -0.348 OA
BRANCH  33  39
HETATM   39  O   UNK N   1      35.395  17.576   9.758  0.00  0.00    -0.388 OA
HETATM   40  H   UNK N   1      35.915  18.378   9.597  0.00  0.00     0.210 HD
ENDBRANCH  33  39
BRANCH  34  41
HETATM   41  O   UNK N   1      34.565  18.265   7.150  0.00  0.00    -0.390 OA
HETATM   42  H   UNK N   1      35.420  18.205   6.696  0.00  0.00     0.210 HD
ENDBRANCH  34  41
BRANCH  36  43
HETATM   43  C   UNK N   1      31.303  15.554   6.481  0.00  0.00     0.199 C 
BRANCH  43  44
HETATM   44  O   UNK N   1      31.411  14.160   6.466  0.00  0.00    -0.398 OA
HETATM   45  H   UNK N   1      31.066  13.655   5.713  0.00  0.00     0.209 HD
ENDBRANCH  43  44
ENDBRANCH  36  43
ENDBRANCH  31  32
ENDBRANCH  27  31
ENDBRANCH  26  27
ENDBRANCH   2  26
TORSDOF 17
ENDMDL
MODEL 6
REMARK VINA RESULT:      -7.4      2.652      4.408
REMARK  17 active torsions:
REMARK  status: ('A' for Active; 'I' for Inactive)
REMARK    1  A    between atoms: C_5  and  C_3 
REMARK    2  A    between atoms: O_20  and  C_3 
REMARK    3  A    between atoms: C_6  and  C_4 
REMARK    4  A    between atoms: O_31  and  C_4 
REMARK    5  A    between atoms: O_21  and  C_7 
REMARK    6  A    between atoms: C_9  and  O_22 
REMARK    7  A    between atoms: C_10  and  O_23 
REMARK    8  A    between atoms: C_11  and  O_24 
REMARK    9  A    between atoms: C_12  and  O_25 
REMARK   10  A    between atoms: C_13  and  N_19 
REMARK   11  A    between atoms: C_14  and  O_34 
REMARK   12  A    between atoms: P_36  and  O_27 
REMARK   13  A    between atoms: P_37  and  O_29 
REMARK   14  A    between atoms: P_36  and  O_31 
REMARK   15  A    between atoms: P_37  and  O_34 
REMARK   16  A    between atoms: P_36  and  O_35 
REMARK   17  A    between atoms: P_37  and  O_35 
ROOT
HETATM    1  O   UNK N   1      33.621  13.907   5.096  0.00  0.00    -0.631 OA
HETATM    2  P   UNK N   1      33.902  14.024   6.624  0.00  0.00     0.401 P 
ENDROOT
BRANCH   2   3
HETATM    3  O   UNK N   1      34.723  15.545   6.822  0.00  0.00    -0.307 OA
HETATM    4  H   UNK N   1      35.484  16.144   6.776  0.00  0.00     0.222 HD
ENDBRANCH   2   3
BRANCH   2   5
HETATM    5  O   UNK N   1      32.398  14.027   7.506  0.00  0.00    -0.294 OA
BRANCH   5   6
HETATM    6  C   UNK N   1      31.591  14.901   6.804  0.00  0.00     0.215 C 
BRANCH   6   7
HETATM    7  C   UNK N   1      31.970  16.351   7.049  0.00  0.00     0.180 C 
HETATM    8  C   UNK N   1      31.928  16.674   8.553  0.00  0.00     0.182 C 
HETATM    9  C   UNK N   1      30.835  17.720   8.624  0.00  0.00     0.198 C 
HETATM   10  C   UNK N   1      29.985  17.291   7.434  0.00  0.00     0.263 C 
HETATM   11  O   UNK N   1      30.956  17.106   6.433  0.00  0.00    -0.353 OA
BRANCH   8  12
HETATM   12  O   UNK N   1      33.144  17.169   9.031  0.00  0.00    -0.390 OA
HETATM   13  H   UNK N   1      34.077  17.207   8.765  0.00  0.00     0.210 HD
ENDBRANCH   8  12
BRANCH   9  14
HETATM   14  O   UNK N   1      30.170  17.682   9.852  0.00  0.00    -0.388 OA
HETATM   15  H   UNK N   1      29.275  17.412  10.110  0.00  0.00     0.210 HD
ENDBRANCH   9  14
BRANCH  10  16
HETATM   16  N   UNK N   1      28.940  18.201   6.923  0.00  0.00    -0.280 N 
HETATM   17  C   UNK N   1      28.953  18.411   5.571  0.00  0.00     0.103 A 
HETATM   18  C   UNK N   1      28.038  19.258   4.962  0.00  0.00     0.073 A 
HETATM   19  C   UNK N   1      27.085  19.882   5.747  0.00  0.00     0.144 A 
HETATM   20  N   UNK N   1      27.055  19.657   7.085  0.00  0.00    -0.289 N 
HETATM   21  C   UNK N   1      27.967  18.829   7.686  0.00  0.00     0.330 A 
ATOM     22  HN  UNK N   1      26.341  20.112   7.653  1.00  0.00     0.172 HD
HETATM   23  O   UNK N   1      27.890  18.643   8.886  0.00  0.00    -0.246 OA
BRANCH  19  24
HETATM   24  O   UNK N   1      26.189  20.708   5.184  0.00  0.00    -0.346 OA
HETATM   25  H   UNK N   1      26.457  21.552   4.876  0.00  0.00     0.219 HD
ENDBRANCH  19  24
ENDBRANCH  10  16
ENDBRANCH   6   7
ENDBRANCH   5   6
ENDBRANCH   2   5
BRANCH   2  26
HETATM   26  O   UNK N   1      34.905  12.601   7.042  0.00  0.00    -0.195 OA
BRANCH  26  27
HETATM   27  P   UNK N   1      36.117  12.878   8.331  0.00  0.00     0.404 P 
HETATM   28  O   UNK N   1      36.735  13.526   7.070  0.00  0.00    -0.631 OA
BRANCH  27  29
HETATM   29  O   UNK N   1      34.554  13.305   8.961  0.00  0.00    -0.307 OA
HETATM   30  H   UNK N   1      34.335  14.195   9.279  0.00  0.00     0.222 HD
ENDBRANCH  27  29
BRANCH  27  31
HETATM   31  O   UNK N   1      36.168  14.558   8.874  0.00  0.00    -0.263 OA
BRANCH  31  32
HETATM   32  C   UNK N   1      36.707  14.856  10.168  0.00  0.00     0.303 C 
HETATM   33  C   UNK N   1      36.063  15.994  11.004  0.00  0.00     0.205 C 
HETATM   34  C   UNK N   1      34.982  15.486  11.958  0.00  0.00     0.188 C 
HETATM   35  C   UNK N   1      35.568  14.322  12.779  0.00  0.00     0.232 C 
HETATM   36  C   UNK N   1      36.061  13.245  11.812  0.00  0.00     0.184 C 
HETATM   37  F   UNK N   1      36.622  14.759  13.565  0.00  0.00    -0.244 F 
HETATM   38  O   UNK N   1      37.088  13.724  10.944  0.00  0.00    -0.348 OA
BRANCH  33  39
HETATM   39  O   UNK N   1      35.594  17.028  10.190  0.00  0.00    -0.388 OA
HETATM   40  H   UNK N   1      34.695  17.270   9.921  0.00  0.00     0.210 HD
ENDBRANCH  33  39
BRANCH  34  41
HETATM   41  O   UNK N   1      33.857  15.068  11.244  0.00  0.00    -0.390 OA
HETATM   42  H   UNK N   1      33.241  14.451  10.819  0.00  0.00     0.210 HD
ENDBRANCH  34  41
BRANCH  36  43
HETATM   43  C   UNK N   1      36.593  12.023  12.542  0.00  0.00     0.199 C 
BRANCH  43  44
HETATM   44  O   UNK N   1      37.981  12.127  12.682  0.00  0.00    -0.398 OA
HETATM   45  H   UNK N   1      38.371  12.258  13.560  0.00  0.00     0.209 HD
ENDBRANCH  43  44
ENDBRANCH  36  43
ENDBRANCH  31  32
ENDBRANCH  27  31
ENDBRANCH  26  27
ENDBRANCH   2  26
TORSDOF 17
ENDMDL
MODEL 7
REMARK VINA RESULT:      -7.4      3.911      9.884
REMARK  17 active torsions:
REMARK  status: ('A' for Active; 'I' for Inactive)
REMARK    1  A    between atoms: C_5  and  C_3 
REMARK    2  A    between atoms: O_20  and  C_3 
REMARK    3  A    between atoms: C_6  and  C_4 
REMARK    4  A    between atoms: O_31  and  C_4 
REMARK    5  A    between atoms: O_21  and  C_7 
REMARK    6  A    between atoms: C_9  and  O_22 
REMARK    7  A    between atoms: C_10  and  O_23 
REMARK    8  A    between atoms: C_11  and  O_24 
REMARK    9  A    between atoms: C_12  and  O_25 
REMARK   10  A    between atoms: C_13  and  N_19 
REMARK   11  A    between atoms: C_14  and  O_34 
REMARK   12  A    between atoms: P_36  and  O_27 
REMARK   13  A    between atoms: P_37  and  O_29 
REMARK   14  A    between atoms: P_36  and  O_31 
REMARK   15  A    between atoms: P_37  and  O_34 
REMARK   16  A    between atoms: P_36  and  O_35 
REMARK   17  A    between atoms: P_37  and  O_35 
ROOT
HETATM    1  O   UNK N   1      35.168  16.821  11.026  0.00  0.00    -0.631 OA
HETATM    2  P   UNK N   1      35.713  15.555  10.301  0.00  0.00     0.401 P 
ENDROOT
BRANCH   2   3
HETATM    3  O   UNK N   1      37.433  15.586  10.561  0.00  0.00    -0.307 OA
HETATM    4  H   UNK N   1      38.255  15.909  10.962  0.00  0.00     0.222 HD
ENDBRANCH   2   3
BRANCH   2   5
HETATM    5  O   UNK N   1      35.019  14.121  11.009  0.00  0.00    -0.294 OA
BRANCH   5   6
HETATM    6  C   UNK N   1      34.964  14.398  12.361  0.00  0.00     0.215 C 
BRANCH   6   7
HETATM    7  C   UNK N   1      36.294  14.146  13.050  0.00  0.00     0.180 C 
HETATM    8  C   UNK N   1      36.813  12.735  12.724  0.00  0.00     0.182 C 
HETATM    9  C   UNK N   1      36.824  12.077  14.089  0.00  0.00     0.198 C 
HETATM   10  C   UNK N   1      35.693  12.847  14.759  0.00  0.00     0.263 C 
HETATM   11  O   UNK N   1      36.008  14.178  14.426  0.00  0.00    -0.353 OA
BRANCH   8  12
HETATM   12  O   UNK N   1      38.087  12.749  12.151  0.00  0.00    -0.390 OA
HETATM   13  H   UNK N   1      38.832  13.360  12.032  0.00  0.00     0.210 HD
ENDBRANCH   8  12
BRANCH   9  14
HETATM   14  O   UNK N   1      36.609  10.700  13.994  0.00  0.00    -0.388 OA
HETATM   15  H   UNK N   1      36.742   9.967  14.616  0.00  0.00     0.210 HD
ENDBRANCH   9  14
BRANCH  10  16
HETATM   16  N   UNK N   1      35.517  12.751  16.222  0.00  0.00    -0.280 N 
HETATM   17  C   UNK N   1      35.574  13.937  16.901  0.00  0.00     0.103 A 
HETATM   18  C   UNK N   1      35.443  13.988  18.282  0.00  0.00     0.073 A 
HETATM   19  C   UNK N   1      35.230  12.808  18.973  0.00  0.00     0.144 A 
HETATM   20  N   UNK N   1      35.148  11.633  18.299  0.00  0.00    -0.289 N 
HETATM   21  C   UNK N   1      35.290  11.584  16.937  0.00  0.00     0.330 A 
ATOM     22  HN  UNK N   1      34.978  10.770  18.816  1.00  0.00     0.172 HD
HETATM   23  O   UNK N   1      35.191  10.509  16.375  0.00  0.00    -0.246 OA
BRANCH  19  24
HETATM   24  O   UNK N   1      35.101  12.828  20.309  0.00  0.00    -0.346 OA
HETATM   25  H   UNK N   1      34.493  13.415  20.713  0.00  0.00     0.219 HD
ENDBRANCH  19  24
ENDBRANCH  10  16
ENDBRANCH   6   7
ENDBRANCH   5   6
ENDBRANCH   2   5
BRANCH   2  26
HETATM   26  O   UNK N   1      35.237  15.737   8.584  0.00  0.00    -0.195 OA
BRANCH  26  27
HETATM   27  P   UNK N   1      34.126  17.098   8.244  0.00  0.00     0.404 P 
HETATM   28  O   UNK N   1      34.716  16.725   6.865  0.00  0.00    -0.631 OA
BRANCH  27  29
HETATM   29  O   UNK N   1      33.293  15.968   9.270  0.00  0.00    -0.307 OA
HETATM   30  H   UNK N   1      33.147  15.040   9.027  0.00  0.00     0.222 HD
ENDBRANCH  27  29
BRANCH  27  31
HETATM   31  O   UNK N   1      32.643  16.587   7.431  0.00  0.00    -0.263 OA
BRANCH  31  32
HETATM   32  C   UNK N   1      31.645  17.568   7.119  0.00  0.00     0.303 C 
HETATM   33  C   UNK N   1      30.890  17.463   5.768  0.00  0.00     0.205 C 
HETATM   34  C   UNK N   1      29.582  16.680   5.883  0.00  0.00     0.188 C 
HETATM   35  C   UNK N   1      28.763  17.271   7.046  0.00  0.00     0.232 C 
HETATM   36  C   UNK N   1      29.609  17.204   8.318  0.00  0.00     0.184 C 
HETATM   37  F   UNK N   1      28.420  18.588   6.785  0.00  0.00    -0.244 F 
HETATM   38  O   UNK N   1      30.815  17.959   8.208  0.00  0.00    -0.348 OA
BRANCH  33  39
HETATM   39  O   UNK N   1      31.711  16.958   4.757  0.00  0.00    -0.388 OA
HETATM   40  H   UNK N   1      31.752  16.080   4.348  0.00  0.00     0.210 HD
ENDBRANCH  33  39
BRANCH  34  41
HETATM   41  O   UNK N   1      29.840  15.325   6.100  0.00  0.00    -0.390 OA
HETATM   42  H   UNK N   1      30.243  14.454   5.962  0.00  0.00     0.210 HD
ENDBRANCH  34  41
BRANCH  36  43
HETATM   43  C   UNK N   1      28.850  17.704   9.536  0.00  0.00     0.199 C 
BRANCH  43  44
HETATM   44  O   UNK N   1      27.489  17.415   9.391  0.00  0.00    -0.398 OA
HETATM   45  H   UNK N   1      27.053  17.545   8.534  0.00  0.00     0.209 HD
ENDBRANCH  43  44
ENDBRANCH  36  43
ENDBRANCH  31  32
ENDBRANCH  27  31
ENDBRANCH  26  27
ENDBRANCH   2  26
TORSDOF 17
ENDMDL
MODEL 8
REMARK VINA RESULT:      -7.4      9.157     12.713
REMARK  17 active torsions:
REMARK  status: ('A' for Active; 'I' for Inactive)
REMARK    1  A    between atoms: C_5  and  C_3 
REMARK    2  A    between atoms: O_20  and  C_3 
REMARK    3  A    between atoms: C_6  and  C_4 
REMARK    4  A    between atoms: O_31  and  C_4 
REMARK    5  A    between atoms: O_21  and  C_7 
REMARK    6  A    between atoms: C_9  and  O_22 
REMARK    7  A    between atoms: C_10  and  O_23 
REMARK    8  A    between atoms: C_11  and  O_24 
REMARK    9  A    between atoms: C_12  and  O_25 
REMARK   10  A    between atoms: C_13  and  N_19 
REMARK   11  A    between atoms: C_14  and  O_34 
REMARK   12  A    between atoms: P_36  and  O_27 
REMARK   13  A    between atoms: P_37  and  O_29 
REMARK   14  A    between atoms: P_36  and  O_31 
REMARK   15  A    between atoms: P_37  and  O_34 
REMARK   16  A    between atoms: P_36  and  O_35 
REMARK   17  A    between atoms: P_37  and  O_35 
ROOT
HETATM    1  O   UNK N   1      24.840  13.494   3.907  0.00  0.00    -0.631 OA
HETATM    2  P   UNK N   1      25.594  14.797   3.507  0.00  0.00     0.401 P 
ENDROOT
BRANCH   2   3
HETATM    3  O   UNK N   1      25.396  14.928   1.784  0.00  0.00    -0.307 OA
HETATM    4  H   UNK N   1      25.655  15.195   0.888  0.00  0.00     0.222 HD
ENDBRANCH   2   3
BRANCH   2   5
HETATM    5  O   UNK N   1      24.873  16.169   4.306  0.00  0.00    -0.294 OA
BRANCH   5   6
HETATM    6  C   UNK N   1      23.895  15.621   5.111  0.00  0.00     0.215 C 
BRANCH   6   7
HETATM    7  C   UNK N   1      23.020  16.684   5.751  0.00  0.00     0.180 C 
HETATM    8  C   UNK N   1      21.632  16.112   6.091  0.00  0.00     0.182 C 
HETATM    9  C   UNK N   1      20.721  16.944   5.212  0.00  0.00     0.198 C 
HETATM   10  C   UNK N   1      21.676  17.257   4.067  0.00  0.00     0.263 C 
HETATM   11  O   UNK N   1      22.836  17.660   4.755  0.00  0.00    -0.353 OA
BRANCH   8  12
HETATM   12  O   UNK N   1      21.309  16.250   7.443  0.00  0.00    -0.390 OA
HETATM   13  H   UNK N   1      20.994  15.704   8.182  0.00  0.00     0.210 HD
ENDBRANCH   8  12
BRANCH   9  14
HETATM   14  O   UNK N   1      19.581  16.229   4.836  0.00  0.00    -0.388 OA
HETATM   15  H   UNK N   1      19.394  15.627   4.098  0.00  0.00     0.210 HD
ENDBRANCH   9  14
BRANCH  10  16
HETATM   16  N   UNK N   1      21.316  18.301   3.087  0.00  0.00    -0.280 N 
HETATM   17  C   UNK N   1      21.904  19.521   3.284  0.00  0.00     0.103 A 
HETATM   18  C   UNK N   1      21.639  20.596   2.448  0.00  0.00     0.073 A 
HETATM   19  C   UNK N   1      20.775  20.412   1.382  0.00  0.00     0.144 A 
HETATM   20  N   UNK N   1      20.210  19.197   1.170  0.00  0.00    -0.289 N 
HETATM   21  C   UNK N   1      20.464  18.139   2.004  0.00  0.00     0.330 A 
ATOM     22  HN  UNK N   1      19.585  19.068   0.375  1.00  0.00     0.172 HD
HETATM   23  O   UNK N   1      19.949  17.064   1.763  0.00  0.00    -0.246 OA
BRANCH  19  24
HETATM   24  O   UNK N   1      20.500  21.435   0.559  0.00  0.00    -0.346 OA
HETATM   25  H   UNK N   1      20.662  22.317   0.834  0.00  0.00     0.219 HD
ENDBRANCH  19  24
ENDBRANCH  10  16
ENDBRANCH   6   7
ENDBRANCH   5   6
ENDBRANCH   2   5
BRANCH   2  26
HETATM   26  O   UNK N   1      27.291  14.552   4.023  0.00  0.00    -0.195 OA
BRANCH  26  27
HETATM   27  P   UNK N   1      28.292  16.036   4.070  0.00  0.00     0.404 P 
HETATM   28  O   UNK N   1      27.725  15.994   2.632  0.00  0.00    -0.631 OA
BRANCH  27  29
HETATM   29  O   UNK N   1      27.297  16.014   5.495  0.00  0.00    -0.307 OA
HETATM   30  H   UNK N   1      26.361  15.759   5.484  0.00  0.00     0.222 HD
ENDBRANCH  27  29
BRANCH  27  31
HETATM   31  O   UNK N   1      27.326  17.514   4.104  0.00  0.00    -0.263 OA
BRANCH  31  32
HETATM   32  C   UNK N   1      27.925  18.727   4.579  0.00  0.00     0.303 C 
HETATM   33  C   UNK N   1      27.205  20.074   4.308  0.00  0.00     0.205 C 
HETATM   34  C   UNK N   1      26.285  20.493   5.455  0.00  0.00     0.188 C 
HETATM   35  C   UNK N   1      27.089  20.433   6.768  0.00  0.00     0.232 C 
HETATM   36  C   UNK N   1      27.641  19.017   6.936  0.00  0.00     0.184 C 
HETATM   37  F   UNK N   1      28.135  21.341   6.743  0.00  0.00    -0.244 F 
HETATM   38  O   UNK N   1      28.518  18.648   5.871  0.00  0.00    -0.348 OA
BRANCH  33  39
HETATM   39  O   UNK N   1      26.534  20.061   3.083  0.00  0.00    -0.388 OA
HETATM   40  H   UNK N   1      25.598  20.191   2.866  0.00  0.00     0.210 HD
ENDBRANCH  33  39
BRANCH  34  41
HETATM   41  O   UNK N   1      25.171  19.652   5.521  0.00  0.00    -0.390 OA
HETATM   42  H   UNK N   1      24.287  19.315   5.310  0.00  0.00     0.210 HD
ENDBRANCH  34  41
BRANCH  36  43
HETATM   43  C   UNK N   1      28.392  18.849   8.246  0.00  0.00     0.199 C 
BRANCH  43  44
HETATM   44  O   UNK N   1      27.531  18.325   9.216  0.00  0.00    -0.398 OA
HETATM   45  H   UNK N   1      26.596  18.585   9.227  0.00  0.00     0.209 HD
ENDBRANCH  43  44
ENDBRANCH  36  43
ENDBRANCH  31  32
ENDBRANCH  27  31
ENDBRANCH  26  27
ENDBRANCH   2  26
TORSDOF 17
ENDMDL
MODEL 9
REMARK VINA RESULT:      -7.3      2.744      3.823
REMARK  17 active torsions:
REMARK  status: ('A' for Active; 'I' for Inactive)
REMARK    1  A    between atoms: C_5  and  C_3 
REMARK    2  A    between atoms: O_20  and  C_3 
REMARK    3  A    between atoms: C_6  and  C_4 
REMARK    4  A    between atoms: O_31  and  C_4 
REMARK    5  A    between atoms: O_21  and  C_7 
REMARK    6  A    between atoms: C_9  and  O_22 
REMARK    7  A    between atoms: C_10  and  O_23 
REMARK    8  A    between atoms: C_11  and  O_24 
REMARK    9  A    between atoms: C_12  and  O_25 
REMARK   10  A    between atoms: C_13  and  N_19 
REMARK   11  A    between atoms: C_14  and  O_34 
REMARK   12  A    between atoms: P_36  and  O_27 
REMARK   13  A    between atoms: P_37  and  O_29 
REMARK   14  A    between atoms: P_36  and  O_31 
REMARK   15  A    between atoms: P_37  and  O_34 
REMARK   16  A    between atoms: P_36  and  O_35 
REMARK   17  A    between atoms: P_37  and  O_35 
ROOT
HETATM    1  O   UNK N   1      37.399  11.022  11.071  0.00  0.00    -0.631 OA
HETATM    2  P   UNK N   1      36.822  12.468  11.067  0.00  0.00     0.401 P 
ENDROOT
BRANCH   2   3
HETATM    3  O   UNK N   1      38.207  13.512  11.201  0.00  0.00    -0.307 OA
HETATM    4  H   UNK N   1      38.660  14.368  11.257  0.00  0.00     0.222 HD
ENDBRANCH   2   3
BRANCH   2   5
HETATM    5  O   UNK N   1      35.979  12.768   9.571  0.00  0.00    -0.294 OA
BRANCH   5   6
HETATM    6  C   UNK N   1      36.342  14.055   9.225  0.00  0.00     0.215 C 
BRANCH   6   7
HETATM    7  C   UNK N   1      35.298  15.075   9.645  0.00  0.00     0.180 C 
HETATM    8  C   UNK N   1      34.059  14.373  10.227  0.00  0.00     0.182 C 
HETATM    9  C   UNK N   1      32.977  14.768   9.244  0.00  0.00     0.198 C 
HETATM   10  C   UNK N   1      33.818  14.935   7.983  0.00  0.00     0.263 C 
HETATM   11  O   UNK N   1      34.898  15.705   8.453  0.00  0.00    -0.353 OA
BRANCH   8  12
HETATM   12  O   UNK N   1      33.757  14.801  11.523  0.00  0.00    -0.390 OA
HETATM   13  H   UNK N   1      32.983  15.065  12.047  0.00  0.00     0.210 HD
ENDBRANCH   8  12
BRANCH   9  14
HETATM   14  O   UNK N   1      31.986  13.787   9.152  0.00  0.00    -0.388 OA
HETATM   15  H   UNK N   1      31.548  13.361   8.399  0.00  0.00     0.210 HD
ENDBRANCH   9  14
BRANCH  10  16
HETATM   16  N   UNK N   1      33.232  15.603   6.804  0.00  0.00    -0.280 N 
HETATM   17  C   UNK N   1      33.816  16.789   6.450  0.00  0.00     0.103 A 
HETATM   18  C   UNK N   1      33.353  17.530   5.372  0.00  0.00     0.073 A 
HETATM   19  C   UNK N   1      32.289  17.039   4.635  0.00  0.00     0.144 A 
HETATM   20  N   UNK N   1      31.724  15.851   4.970  0.00  0.00    -0.289 N 
HETATM   21  C   UNK N   1      32.176  15.126   6.042  0.00  0.00     0.330 A 
ATOM     22  HN  UNK N   1      30.949  15.491   4.413  1.00  0.00     0.172 HD
HETATM   23  O   UNK N   1      31.649  14.059   6.293  0.00  0.00    -0.246 OA
BRANCH  19  24
HETATM   24  O   UNK N   1      31.820  17.736   3.590  0.00  0.00    -0.346 OA
HETATM   25  H   UNK N   1      31.761  17.334   2.745  0.00  0.00     0.219 HD
ENDBRANCH  19  24
ENDBRANCH  10  16
ENDBRANCH   6   7
ENDBRANCH   5   6
ENDBRANCH   2   5
BRANCH   2  26
HETATM   26  O   UNK N   1      35.715  12.552  12.473  0.00  0.00    -0.195 OA
BRANCH  26  27
HETATM   27  P   UNK N   1      36.280  13.582  13.824  0.00  0.00     0.404 P 
HETATM   28  O   UNK N   1      34.792  13.305  14.142  0.00  0.00    -0.631 OA
BRANCH  27  29
HETATM   29  O   UNK N   1      37.458  12.328  13.575  0.00  0.00    -0.307 OA
HETATM   30  H   UNK N   1      37.600  11.602  14.202  0.00  0.00     0.222 HD
ENDBRANCH  27  29
BRANCH  27  31
HETATM   31  O   UNK N   1      36.477  12.687  15.334  0.00  0.00    -0.263 OA
BRANCH  31  32
HETATM   32  C   UNK N   1      35.356  11.972  15.871  0.00  0.00     0.303 C 
HETATM   33  C   UNK N   1      35.151  10.488  15.469  0.00  0.00     0.205 C 
HETATM   34  C   UNK N   1      35.797   9.515  16.454  0.00  0.00     0.188 C 
HETATM   35  C   UNK N   1      35.326   9.878  17.874  0.00  0.00     0.232 C 
HETATM   36  C   UNK N   1      35.696  11.335  18.151  0.00  0.00     0.184 C 
HETATM   37  F   UNK N   1      33.955   9.715  17.992  0.00  0.00    -0.244 F 
HETATM   38  O   UNK N   1      35.066  12.237  17.240  0.00  0.00    -0.348 OA
BRANCH  33  39
HETATM   39  O   UNK N   1      35.565  10.250  14.156  0.00  0.00    -0.388 OA
HETATM   40  H   UNK N   1      35.365  10.717  13.329  0.00  0.00     0.210 HD
ENDBRANCH  33  39
BRANCH  34  41
HETATM   41  O   UNK N   1      37.190   9.581  16.365  0.00  0.00    -0.390 OA
HETATM   42  H   UNK N   1      38.108   9.630  16.673  0.00  0.00     0.210 HD
ENDBRANCH  34  41
BRANCH  36  43
HETATM   43  C   UNK N   1      35.328  11.760  19.563  0.00  0.00     0.199 C 
BRANCH  43  44
HETATM   44  O   UNK N   1      35.252  13.155  19.629  0.00  0.00    -0.398 OA
HETATM   45  H   UNK N   1      35.994  13.664  19.992  0.00  0.00     0.209 HD
ENDBRANCH  43  44
ENDBRANCH  36  43
ENDBRANCH  31  32
ENDBRANCH  27  31
ENDBRANCH  26  27
ENDBRANCH   2  26
TORSDOF 17
ENDMDL
