MODEL 1
REMARK VINA RESULT:      -7.8      0.000      0.000
REMARK  20 active torsions:
REMARK  status: ('A' for Active; 'I' for Inactive)
REMARK    1  A    between atoms: C_22  and  C_19 
REMARK    2  A    between atoms: O_48  and  C_19 
REMARK    3  A    between atoms: C_23  and  C_20 
REMARK    4  A    between atoms: O_49  and  C_20 
REMARK    5  A    between atoms: C_27  and  C_21 
REMARK    6  A    between atoms: C_26  and  O_42 
REMARK    7  A    between atoms: C_33  and  C_27 
REMARK    8  A    between atoms: C_27  and  N_38 
REMARK    9  A    between atoms: C_28  and  N_40 
REMARK   10  A    between atoms: C_30  and  C_29 
REMARK   11  A    between atoms: C_31  and  C_29 
REMARK   12  A    between atoms: C_29  and  O_43 
REMARK   13  A    between atoms: C_32  and  C_30 
REMARK   14  A    between atoms: C_30  and  O_44 
REMARK   15  A    between atoms: C_34  and  C_31 
REMARK   16  A    between atoms: C_31  and  O_48 
REMARK   17  A    between atoms: C_35  and  C_32 
REMARK   18  A    between atoms: C_32  and  O_49 
REMARK   19  A    between atoms: O_45  and  C_33 
REMARK   20  A    between atoms: C_35  and  O_47 
ROOT
HETATM    1  C   UNK N   1      35.628  12.006  10.752  0.00  0.00     0.144 C 
HETATM    2  N   UNK N   1      34.532  11.434  11.128  0.00  0.00    -0.360 N 
ATOM      3  HN  UNK N   1      33.817  12.023  11.555  1.00  0.00     0.162 HD
HETATM    4  O   UNK N   1      36.618  11.292  10.174  0.00  0.00    -0.348 OA
HETATM    5  H   UNK N   1      37.268  10.774   9.739  0.00  0.00     0.219 HD
ENDROOT
BRANCH   1   6
HETATM    6  C   UNK N   1      35.800  13.487  11.013  0.00  0.00     0.227 C 
BRANCH   6   7
HETATM    7  C   UNK N   1      35.935  14.430   9.778  0.00  0.00     0.186 C 
BRANCH   7   8
HETATM    8  C   UNK N   1      34.725  14.607   8.820  0.00  0.00     0.186 C 
BRANCH   8   9
HETATM    9  C   UNK N   1      34.115  16.064   8.931  0.00  0.00     0.227 C 
BRANCH   9  10
HETATM   10  C   UNK N   1      32.630  16.036   9.312  0.00  0.00     0.144 C 
HETATM   11  N   UNK N   1      31.792  16.728   8.590  0.00  0.00    -0.361 N 
ATOM     12  HN  UNK N   1      32.226  17.307   7.872  1.00  0.00     0.162 HD
BRANCH  11  13
HETATM   13  C   UNK N   1      30.335  16.810   8.641  0.00  0.00     0.146 C 
HETATM   14  C   UNK N   1      29.688  17.317   7.407  0.00  0.00    -0.027 A 
HETATM   15  C   UNK N   1      30.140  17.220   6.088  0.00  0.00     0.010 A 
HETATM   16  C   UNK N   1      28.459  17.852   7.699  0.00  0.00    -0.047 A 
HETATM   17  C   UNK N   1      29.315  17.707   5.061  0.00  0.00     0.001 A 
HETATM   18  C   UNK N   1      28.052  18.251   5.361  0.00  0.00     0.001 A 
HETATM   19  C   UNK N   1      27.614  18.323   6.694  0.00  0.00     0.008 A 
HETATM   20  C   UNK N   1      28.184  17.849   9.161  0.00  0.00     0.073 C 
HETATM   21  C   UNK N   1      29.618  17.670   9.709  0.00  0.00     0.149 C 
BRANCH  21  22
HETATM   22  O   UNK N   1      29.627  17.062  10.964  0.00  0.00    -0.393 OA
HETATM   23  H   UNK N   1      30.379  17.013  11.575  0.00  0.00     0.210 HD
ENDBRANCH  21  22
ENDBRANCH  11  13
BRANCH  10  24
HETATM   24  O   UNK N   1      32.207  15.303  10.358  0.00  0.00    -0.348 OA
HETATM   25  H   UNK N   1      31.508  15.280  10.980  0.00  0.00     0.219 HD
ENDBRANCH  10  24
ENDBRANCH   9  10
BRANCH   9  26
HETATM   26  O   UNK N   1      34.220  16.791   7.716  0.00  0.00    -0.370 OA
BRANCH  26  27
HETATM   27  C   UNK N   1      34.625  15.977   6.637  0.00  0.00     0.207 C 
BRANCH  27  28
HETATM   28  C   UNK N   1      33.860  16.217   5.374  0.00  0.00    -0.035 A 
HETATM   29  C   UNK N   1      33.465  17.521   5.056  0.00  0.00     0.009 A 
HETATM   30  C   UNK N   1      32.793  17.779   3.859  0.00  0.00     0.001 A 
HETATM   31  C   UNK N   1      32.510  16.732   2.977  0.00  0.00     0.000 A 
HETATM   32  C   UNK N   1      32.901  15.427   3.293  0.00  0.00     0.001 A 
HETATM   33  C   UNK N   1      33.582  15.169   4.488  0.00  0.00     0.009 A 
ENDBRANCH  27  28
ENDBRANCH  26  27
ENDBRANCH   9  26
ENDBRANCH   8   9
BRANCH   8  34
HETATM   34  O   UNK N   1      33.723  13.668   9.083  0.00  0.00    -0.390 OA
HETATM   35  H   UNK N   1      33.299  13.019   8.501  0.00  0.00     0.210 HD
ENDBRANCH   8  34
ENDBRANCH   7   8
BRANCH   7  36
HETATM   36  O   UNK N   1      37.036  13.982   9.039  0.00  0.00    -0.390 OA
HETATM   37  H   UNK N   1      37.077  13.639   8.133  0.00  0.00     0.210 HD
ENDBRANCH   7  36
ENDBRANCH   6   7
BRANCH   6  38
HETATM   38  O   UNK N   1      36.683  13.783  12.077  0.00  0.00    -0.370 OA
BRANCH  38  39
HETATM   39  C   UNK N   1      36.069  14.296  13.225  0.00  0.00     0.207 C 
BRANCH  39  40
HETATM   40  C   UNK N   1      36.229  13.244  14.276  0.00  0.00    -0.035 A 
HETATM   41  C   UNK N   1      37.142  12.195  14.090  0.00  0.00     0.009 A 
HETATM   42  C   UNK N   1      37.209  11.148  15.017  0.00  0.00     0.001 A 
HETATM   43  C   UNK N   1      36.351  11.137  16.121  0.00  0.00     0.000 A 
HETATM   44  C   UNK N   1      35.436  12.180  16.306  0.00  0.00     0.001 A 
HETATM   45  C   UNK N   1      35.374  13.230  15.383  0.00  0.00     0.009 A 
ENDBRANCH  39  40
ENDBRANCH  38  39
ENDBRANCH   6  38
ENDBRANCH   1   6
BRANCH   2  46
HETATM   46  C   UNK N   1      34.237  10.019  10.991  0.00  0.00     0.161 C 
BRANCH  46  47
HETATM   47  C   UNK N   1      34.167   9.411  12.408  0.00  0.00     0.008 C 
HETATM   48  C   UNK N   1      35.478   8.783  12.849  0.00  0.00     0.012 C 
HETATM   49  C   UNK N   1      33.781  10.461  13.439  0.00  0.00     0.012 C 
ENDBRANCH  46  47
BRANCH  46  50
HETATM   50  C   UNK N   1      32.925   9.869  10.248  0.00  0.00     0.134 C 
HETATM   51  N   UNK N   1      32.437   8.695  10.032  0.00  0.00    -0.377 N 
HETATM   52  C   UNK N   1      31.194   8.505   9.329  0.00  0.00     0.148 C 
ATOM     53  HN  UNK N   1      32.947   7.878  10.368  1.00  0.00     0.160 HD
BRANCH  50  54
HETATM   54  O   UNK N   1      32.275  10.967   9.801  0.00  0.00    -0.348 OA
HETATM   55  H   UNK N   1      31.401  11.295   9.884  0.00  0.00     0.219 HD
ENDBRANCH  50  54
ENDBRANCH  46  50
ENDBRANCH   2  46
TORSDOF 20
ENDMDL
MODEL 2
REMARK VINA RESULT:      -7.6      2.391      4.313
REMARK  20 active torsions:
REMARK  status: ('A' for Active; 'I' for Inactive)
REMARK    1  A    between atoms: C_22  and  C_19 
REMARK    2  A    between atoms: O_48  and  C_19 
REMARK    3  A    between atoms: C_23  and  C_20 
REMARK    4  A    between atoms: O_49  and  C_20 
REMARK    5  A    between atoms: C_27  and  C_21 
REMARK    6  A    between atoms: C_26  and  O_42 
REMARK    7  A    between atoms: C_33  and  C_27 
REMARK    8  A    between atoms: C_27  and  N_38 
REMARK    9  A    between atoms: C_28  and  N_40 
REMARK   10  A    between atoms: C_30  and  C_29 
REMARK   11  A    between atoms: C_31  and  C_29 
REMARK   12  A    between atoms: C_29  and  O_43 
REMARK   13  A    between atoms: C_32  and  C_30 
REMARK   14  A    between atoms: C_30  and  O_44 
REMARK   15  A    between atoms: C_34  and  C_31 
REMARK   16  A    between atoms: C_31  and  O_48 
REMARK   17  A    between atoms: C_35  and  C_32 
REMARK   18  A    between atoms: C_32  and  O_49 
REMARK   19  A    between atoms: O_45  and  C_33 
REMARK   20  A    between atoms: C_35  and  O_47 
ROOT
HETATM    1  C   UNK N   1      35.987  13.550  12.513  0.00  0.00     0.144 C 
HETATM    2  N   UNK N   1      36.783  13.009  13.375  0.00  0.00    -0.360 N 
ATOM      3  HN  UNK N   1      37.774  12.967  13.138  1.00  0.00     0.162 HD
HETATM    4  O   UNK N   1      34.663  13.646  12.758  0.00  0.00    -0.348 OA
HETATM    5  H   UNK N   1      33.756  13.734  12.977  0.00  0.00     0.219 HD
ENDROOT
BRANCH   1   6
HETATM    6  C   UNK N   1      36.564  14.035  11.199  0.00  0.00     0.227 C 
BRANCH   6   7
HETATM    7  C   UNK N   1      35.563  14.473  10.087  0.00  0.00     0.186 C 
BRANCH   7   8
HETATM    8  C   UNK N   1      34.919  15.885  10.156  0.00  0.00     0.186 C 
BRANCH   8   9
HETATM    9  C   UNK N   1      34.044  16.179   8.870  0.00  0.00     0.227 C 
BRANCH   9  10
HETATM   10  C   UNK N   1      32.542  16.164   9.183  0.00  0.00     0.144 C 
HETATM   11  N   UNK N   1      31.784  17.069   8.629  0.00  0.00    -0.361 N 
ATOM     12  HN  UNK N   1      32.287  17.775   8.091  1.00  0.00     0.162 HD
BRANCH  11  13
HETATM   13  C   UNK N   1      30.335  17.239   8.650  0.00  0.00     0.146 C 
HETATM   14  C   UNK N   1      29.661  17.087   7.339  0.00  0.00    -0.027 A 
HETATM   15  C   UNK N   1      30.060  16.316   6.243  0.00  0.00     0.010 A 
HETATM   16  C   UNK N   1      28.464  17.757   7.336  0.00  0.00    -0.047 A 
HETATM   17  C   UNK N   1      29.216  16.258   5.122  0.00  0.00     0.001 A 
HETATM   18  C   UNK N   1      27.986  16.943   5.123  0.00  0.00     0.001 A 
HETATM   19  C   UNK N   1      27.601  17.699   6.242  0.00  0.00     0.008 A 
HETATM   20  C   UNK N   1      28.244  18.506   8.603  0.00  0.00     0.073 C 
HETATM   21  C   UNK N   1      29.690  18.555   9.146  0.00  0.00     0.149 C 
BRANCH  21  22
HETATM   22  O   UNK N   1      29.723  18.664  10.537  0.00  0.00    -0.393 OA
HETATM   23  H   UNK N   1      30.412  18.320  11.126  0.00  0.00     0.210 HD
ENDBRANCH  21  22
ENDBRANCH  11  13
BRANCH  10  24
HETATM   24  O   UNK N   1      32.025  15.229  10.000  0.00  0.00    -0.348 OA
HETATM   25  H   UNK N   1      31.800  15.111  10.902  0.00  0.00     0.219 HD
ENDBRANCH  10  24
ENDBRANCH   9  10
BRANCH   9  26
HETATM   26  O   UNK N   1      34.263  15.234   7.834  0.00  0.00    -0.370 OA
BRANCH  26  27
HETATM   27  C   UNK N   1      34.950  15.793   6.735  0.00  0.00     0.207 C 
BRANCH  27  28
HETATM   28  C   UNK N   1      34.069  16.118   5.570  0.00  0.00    -0.035 A 
HETATM   29  C   UNK N   1      33.545  17.410   5.454  0.00  0.00     0.009 A 
HETATM   30  C   UNK N   1      32.761  17.753   4.350  0.00  0.00     0.001 A 
HETATM   31  C   UNK N   1      32.495  16.804   3.359  0.00  0.00     0.000 A 
HETATM   32  C   UNK N   1      33.015  15.510   3.473  0.00  0.00     0.001 A 
HETATM   33  C   UNK N   1      33.808  15.169   4.575  0.00  0.00     0.009 A 
ENDBRANCH  27  28
ENDBRANCH  26  27
ENDBRANCH   9  26
ENDBRANCH   8   9
BRANCH   8  34
HETATM   34  O   UNK N   1      35.890  16.883  10.290  0.00  0.00    -0.390 OA
HETATM   35  H   UNK N   1      36.856  16.821  10.337  0.00  0.00     0.210 HD
ENDBRANCH   8  34
ENDBRANCH   7   8
BRANCH   7  36
HETATM   36  O   UNK N   1      34.545  13.513  10.050  0.00  0.00    -0.390 OA
HETATM   37  H   UNK N   1      34.605  12.545  10.043  0.00  0.00     0.210 HD
ENDBRANCH   7  36
ENDBRANCH   6   7
BRANCH   6  38
HETATM   38  O   UNK N   1      37.658  13.268  10.735  0.00  0.00    -0.370 OA
BRANCH  38  39
HETATM   39  C   UNK N   1      37.813  13.247   9.345  0.00  0.00     0.207 C 
BRANCH  39  40
HETATM   40  C   UNK N   1      38.915  12.274   9.074  0.00  0.00    -0.035 A 
HETATM   41  C   UNK N   1      39.950  12.609   8.187  0.00  0.00     0.009 A 
HETATM   42  C   UNK N   1      40.918  11.658   7.843  0.00  0.00     0.001 A 
HETATM   43  C   UNK N   1      40.843  10.365   8.368  0.00  0.00     0.000 A 
HETATM   44  C   UNK N   1      39.810  10.026   9.249  0.00  0.00     0.001 A 
HETATM   45  C   UNK N   1      38.846  10.979   9.599  0.00  0.00     0.009 A 
ENDBRANCH  39  40
ENDBRANCH  38  39
ENDBRANCH   6  38
ENDBRANCH   1   6
BRANCH   2  46
HETATM   46  C   UNK N   1      36.378  12.456  14.655  0.00  0.00     0.161 C 
BRANCH  46  47
HETATM   47  C   UNK N   1      37.280  11.239  14.951  0.00  0.00     0.008 C 
HETATM   48  C   UNK N   1      36.540  10.108  15.644  0.00  0.00     0.012 C 
HETATM   49  C   UNK N   1      37.893  10.684  13.674  0.00  0.00     0.012 C 
ENDBRANCH  46  47
BRANCH  46  50
HETATM   50  C   UNK N   1      36.519  13.531  15.713  0.00  0.00     0.134 C 
HETATM   51  N   UNK N   1      35.688  13.580  16.697  0.00  0.00    -0.377 N 
HETATM   52  C   UNK N   1      35.783  14.586  17.724  0.00  0.00     0.148 C 
ATOM     53  HN  UNK N   1      34.942  12.887  16.750  1.00  0.00     0.160 HD
BRANCH  50  54
HETATM   54  O   UNK N   1      37.509  14.448  15.614  0.00  0.00    -0.348 OA
HETATM   55  H   UNK N   1      38.122  14.823  16.216  0.00  0.00     0.219 HD
ENDBRANCH  50  54
ENDBRANCH  46  50
ENDBRANCH   2  46
TORSDOF 20
ENDMDL
MODEL 3
REMARK VINA RESULT:      -7.6      2.143      3.302
REMARK  20 active torsions:
REMARK  status: ('A' for Active; 'I' for Inactive)
REMARK    1  A    between atoms: C_22  and  C_19 
REMARK    2  A    between atoms: O_48  and  C_19 
REMARK    3  A    between atoms: C_23  and  C_20 
REMARK    4  A    between atoms: O_49  and  C_20 
REMARK    5  A    between atoms: C_27  and  C_21 
REMARK    6  A    between atoms: C_26  and  O_42 
REMARK    7  A    between atoms: C_33  and  C_27 
REMARK    8  A    between atoms: C_27  and  N_38 
REMARK    9  A    between atoms: C_28  and  N_40 
REMARK   10  A    between atoms: C_30  and  C_29 
REMARK   11  A    between atoms: C_31  and  C_29 
REMARK   12  A    between atoms: C_29  and  O_43 
REMARK   13  A    between atoms: C_32  and  C_30 
REMARK   14  A    between atoms: C_30  and  O_44 
REMARK   15  A    between atoms: C_34  and  C_31 
REMARK   16  A    between atoms: C_31  and  O_48 
REMARK   17  A    between atoms: C_35  and  C_32 
REMARK   18  A    between atoms: C_32  and  O_49 
REMARK   19  A    between atoms: O_45  and  C_33 
REMARK   20  A    between atoms: C_35  and  O_47 
ROOT
HETATM    1  C   UNK N   1      36.600  13.167  11.408  0.00  0.00     0.144 C 
HETATM    2  N   UNK N   1      36.887  12.561  10.304  0.00  0.00    -0.360 N 
ATOM      3  HN  UNK N   1      36.124  12.384   9.652  1.00  0.00     0.162 HD
HETATM    4  O   UNK N   1      37.559  13.440  12.319  0.00  0.00    -0.348 OA
HETATM    5  H   UNK N   1      38.255  13.651  12.910  0.00  0.00     0.219 HD
ENDROOT
BRANCH   1   6
HETATM    6  C   UNK N   1      35.154  13.527  11.682  0.00  0.00     0.227 C 
BRANCH   6   7
HETATM    7  C   UNK N   1      34.608  14.852  11.068  0.00  0.00     0.186 C 
BRANCH   7   8
HETATM    8  C   UNK N   1      33.425  14.794  10.064  0.00  0.00     0.186 C 
BRANCH   8   9
HETATM    9  C   UNK N   1      33.652  15.789   8.853  0.00  0.00     0.227 C 
BRANCH   9  10
HETATM   10  C   UNK N   1      32.499  16.790   8.710  0.00  0.00     0.144 C 
HETATM   11  N   UNK N   1      31.337  16.345   8.318  0.00  0.00    -0.361 N 
ATOM     12  HN  UNK N   1      31.325  15.361   8.054  1.00  0.00     0.162 HD
BRANCH  11  13
HETATM   13  C   UNK N   1      30.050  17.024   8.195  0.00  0.00     0.146 C 
HETATM   14  C   UNK N   1      29.549  17.182   6.809  0.00  0.00    -0.027 A 
HETATM   15  C   UNK N   1      29.795  16.369   5.700  0.00  0.00     0.010 A 
HETATM   16  C   UNK N   1      28.676  18.238   6.735  0.00  0.00    -0.047 A 
HETATM   17  C   UNK N   1      29.145  16.669   4.492  0.00  0.00     0.001 A 
HETATM   18  C   UNK N   1      28.245  17.749   4.419  0.00  0.00     0.001 A 
HETATM   19  C   UNK N   1      28.003  18.543   5.552  0.00  0.00     0.008 A 
HETATM   20  C   UNK N   1      28.565  18.958   8.032  0.00  0.00     0.073 C 
HETATM   21  C   UNK N   1      29.848  18.460   8.733  0.00  0.00     0.149 C 
BRANCH  21  22
HETATM   22  O   UNK N   1      29.729  18.488  10.123  0.00  0.00    -0.393 OA
HETATM   23  H   UNK N   1      29.169  17.912  10.665  0.00  0.00     0.210 HD
ENDBRANCH  21  22
ENDBRANCH  11  13
BRANCH  10  24
HETATM   24  O   UNK N   1      32.685  18.091   8.996  0.00  0.00    -0.348 OA
HETATM   25  H   UNK N   1      33.107  18.631   9.635  0.00  0.00     0.219 HD
ENDBRANCH  10  24
ENDBRANCH   9  10
BRANCH   9  26
HETATM   26  O   UNK N   1      33.774  15.114   7.611  0.00  0.00    -0.370 OA
BRANCH  26  27
HETATM   27  C   UNK N   1      34.609  15.804   6.706  0.00  0.00     0.207 C 
BRANCH  27  28
HETATM   28  C   UNK N   1      33.934  16.188   5.427  0.00  0.00    -0.035 A 
HETATM   29  C   UNK N   1      33.829  15.241   4.403  0.00  0.00     0.009 A 
HETATM   30  C   UNK N   1      33.160  15.559   3.218  0.00  0.00     0.001 A 
HETATM   31  C   UNK N   1      32.597  16.828   3.052  0.00  0.00     0.000 A 
HETATM   32  C   UNK N   1      32.703  17.778   4.074  0.00  0.00     0.001 A 
HETATM   33  C   UNK N   1      33.366  17.457   5.264  0.00  0.00     0.009 A 
ENDBRANCH  27  28
ENDBRANCH  26  27
ENDBRANCH   9  26
ENDBRANCH   8   9
BRANCH   8  34
HETATM   34  O   UNK N   1      32.210  15.099  10.688  0.00  0.00    -0.390 OA
HETATM   35  H   UNK N   1      31.458  14.530  10.912  0.00  0.00     0.210 HD
ENDBRANCH   8  34
ENDBRANCH   7   8
BRANCH   7  36
HETATM   36  O   UNK N   1      35.690  15.496  10.456  0.00  0.00    -0.390 OA
HETATM   37  H   UNK N   1      35.905  15.591   9.515  0.00  0.00     0.210 HD
ENDBRANCH   7  36
ENDBRANCH   6   7
BRANCH   6  38
HETATM   38  O   UNK N   1      34.746  13.285  13.014  0.00  0.00    -0.370 OA
BRANCH  38  39
HETATM   39  C   UNK N   1      34.578  11.934  13.341  0.00  0.00     0.207 C 
BRANCH  39  40
HETATM   40  C   UNK N   1      34.731  11.853  14.826  0.00  0.00    -0.035 A 
HETATM   41  C   UNK N   1      35.011  13.009  15.570  0.00  0.00     0.009 A 
HETATM   42  C   UNK N   1      35.269  12.917  16.943  0.00  0.00     0.001 A 
HETATM   43  C   UNK N   1      35.268  11.668  17.571  0.00  0.00     0.000 A 
HETATM   44  C   UNK N   1      34.995  10.513  16.830  0.00  0.00     0.001 A 
HETATM   45  C   UNK N   1      34.729  10.605  15.459  0.00  0.00     0.009 A 
ENDBRANCH  39  40
ENDBRANCH  38  39
ENDBRANCH   6  38
ENDBRANCH   1   6
BRANCH   2  46
HETATM   46  C   UNK N   1      38.213  12.110   9.918  0.00  0.00     0.161 C 
BRANCH  46  47
HETATM   47  C   UNK N   1      38.141  10.590   9.665  0.00  0.00     0.008 C 
HETATM   48  C   UNK N   1      38.092   9.777  10.949  0.00  0.00     0.012 C 
HETATM   49  C   UNK N   1      36.919  10.226   8.835  0.00  0.00     0.012 C 
ENDBRANCH  46  47
BRANCH  46  50
HETATM   50  C   UNK N   1      38.639  12.867   8.678  0.00  0.00     0.134 C 
HETATM   51  N   UNK N   1      39.828  12.716   8.206  0.00  0.00    -0.377 N 
HETATM   52  C   UNK N   1      40.277  13.417   7.030  0.00  0.00     0.148 C 
ATOM     53  HN  UNK N   1      40.471  12.081   8.679  1.00  0.00     0.160 HD
BRANCH  50  54
HETATM   54  O   UNK N   1      37.772  13.714   8.074  0.00  0.00    -0.348 OA
HETATM   55  H   UNK N   1      36.959  13.611   7.619  0.00  0.00     0.219 HD
ENDBRANCH  50  54
ENDBRANCH  46  50
ENDBRANCH   2  46
TORSDOF 20
ENDMDL
MODEL 4
REMARK VINA RESULT:      -7.6      7.322     12.997
REMARK  20 active torsions:
REMARK  status: ('A' for Active; 'I' for Inactive)
REMARK    1  A    between atoms: C_22  and  C_19 
REMARK    2  A    between atoms: O_48  and  C_19 
REMARK    3  A    between atoms: C_23  and  C_20 
REMARK    4  A    between atoms: O_49  and  C_20 
REMARK    5  A    between atoms: C_27  and  C_21 
REMARK    6  A    between atoms: C_26  and  O_42 
REMARK    7  A    between atoms: C_33  and  C_27 
REMARK    8  A    between atoms: C_27  and  N_38 
REMARK    9  A    between atoms: C_28  and  N_40 
REMARK   10  A    between atoms: C_30  and  C_29 
REMARK   11  A    between atoms: C_31  and  C_29 
REMARK   12  A    between atoms: C_29  and  O_43 
REMARK   13  A    between atoms: C_32  and  C_30 
REMARK   14  A    between atoms: C_30  and  O_44 
REMARK   15  A    between atoms: C_34  and  C_31 
REMARK   16  A    between atoms: C_31  and  O_48 
REMARK   17  A    between atoms: C_35  and  C_32 
REMARK   18  A    between atoms: C_32  and  O_49 
REMARK   19  A    between atoms: O_45  and  C_33 
REMARK   20  A    between atoms: C_35  and  O_47 
ROOT
HETATM    1  C   UNK N   1      23.130  14.950   1.930  0.00  0.00     0.144 C 
HETATM    2  N   UNK N   1      21.923  15.347   2.160  0.00  0.00    -0.360 N 
ATOM      3  HN  UNK N   1      21.694  15.630   3.114  1.00  0.00     0.162 HD
HETATM    4  O   UNK N   1      23.508  14.565   0.692  0.00  0.00    -0.348 OA
HETATM    5  H   UNK N   1      23.747  14.344  -0.187  0.00  0.00     0.219 HD
ENDROOT
BRANCH   1   6
HETATM    6  C   UNK N   1      24.104  14.882   3.087  0.00  0.00     0.227 C 
BRANCH   6   7
HETATM    7  C   UNK N   1      23.760  13.923   4.268  0.00  0.00     0.186 C 
BRANCH   7   8
HETATM    8  C   UNK N   1      24.867  13.550   5.291  0.00  0.00     0.186 C 
BRANCH   8   9
HETATM    9  C   UNK N   1      24.684  14.344   6.649  0.00  0.00     0.227 C 
BRANCH   9  10
HETATM   10  C   UNK N   1      25.453  15.671   6.644  0.00  0.00     0.144 C 
HETATM   11  N   UNK N   1      26.647  15.697   7.168  0.00  0.00    -0.361 N 
ATOM     12  HN  UNK N   1      26.932  14.829   7.621  1.00  0.00     0.162 HD
BRANCH  11  13
HETATM   13  C   UNK N   1      27.643  16.764   7.213  0.00  0.00     0.146 C 
HETATM   14  C   UNK N   1      28.910  16.475   6.500  0.00  0.00    -0.027 A 
HETATM   15  C   UNK N   1      29.114  15.644   5.395  0.00  0.00     0.010 A 
HETATM   16  C   UNK N   1      29.931  17.234   7.014  0.00  0.00    -0.047 A 
HETATM   17  C   UNK N   1      30.399  15.583   4.831  0.00  0.00     0.001 A 
HETATM   18  C   UNK N   1      31.443  16.367   5.357  0.00  0.00     0.001 A 
HETATM   19  C   UNK N   1      31.209  17.206   6.459  0.00  0.00     0.008 A 
HETATM   20  C   UNK N   1      29.486  18.044   8.181  0.00  0.00     0.073 C 
HETATM   21  C   UNK N   1      28.191  17.291   8.560  0.00  0.00     0.149 C 
BRANCH  21  22
HETATM   22  O   UNK N   1      27.276  18.119   9.211  0.00  0.00    -0.393 OA
HETATM   23  H   UNK N   1      27.058  18.106  10.156  0.00  0.00     0.210 HD
ENDBRANCH  21  22
ENDBRANCH  11  13
BRANCH  10  24
HETATM   24  O   UNK N   1      24.907  16.773   6.101  0.00  0.00    -0.348 OA
HETATM   25  H   UNK N   1      24.900  17.703   6.220  0.00  0.00     0.219 HD
ENDBRANCH  10  24
ENDBRANCH   9  10
BRANCH   9  26
HETATM   26  O   UNK N   1      25.133  13.606   7.775  0.00  0.00    -0.370 OA
BRANCH  26  27
HETATM   27  C   UNK N   1      24.402  12.413   7.961  0.00  0.00     0.207 C 
BRANCH  27  28
HETATM   28  C   UNK N   1      23.726  12.315   9.292  0.00  0.00    -0.035 A 
HETATM   29  C   UNK N   1      22.333  12.430   9.357  0.00  0.00     0.009 A 
HETATM   30  C   UNK N   1      21.674  12.293  10.581  0.00  0.00     0.001 A 
HETATM   31  C   UNK N   1      22.406  12.045  11.746  0.00  0.00     0.000 A 
HETATM   32  C   UNK N   1      23.799  11.933  11.685  0.00  0.00     0.001 A 
HETATM   33  C   UNK N   1      24.459  12.062  10.457  0.00  0.00     0.009 A 
ENDBRANCH  27  28
ENDBRANCH  26  27
ENDBRANCH   9  26
ENDBRANCH   8   9
BRANCH   8  34
HETATM   34  O   UNK N   1      26.144  13.803   4.779  0.00  0.00    -0.390 OA
HETATM   35  H   UNK N   1      26.967  13.296   4.859  0.00  0.00     0.210 HD
ENDBRANCH   8  34
ENDBRANCH   7   8
BRANCH   7  36
HETATM   36  O   UNK N   1      23.248  12.748   3.705  0.00  0.00    -0.390 OA
HETATM   37  H   UNK N   1      23.372  11.825   3.976  0.00  0.00     0.210 HD
ENDBRANCH   7  36
ENDBRANCH   6   7
BRANCH   6  38
HETATM   38  O   UNK N   1      24.614  16.141   3.482  0.00  0.00    -0.370 OA
BRANCH  38  39
HETATM   39  C   UNK N   1      25.796  16.524   2.838  0.00  0.00     0.207 C 
BRANCH  39  40
HETATM   40  C   UNK N   1      26.129  17.879   3.374  0.00  0.00    -0.035 A 
HETATM   41  C   UNK N   1      25.170  18.903   3.350  0.00  0.00     0.009 A 
HETATM   42  C   UNK N   1      25.516  20.201   3.743  0.00  0.00     0.001 A 
HETATM   43  C   UNK N   1      26.826  20.484   4.141  0.00  0.00     0.000 A 
HETATM   44  C   UNK N   1      27.786  19.467   4.160  0.00  0.00     0.001 A 
HETATM   45  C   UNK N   1      27.439  18.167   3.775  0.00  0.00     0.009 A 
ENDBRANCH  39  40
ENDBRANCH  38  39
ENDBRANCH   6  38
ENDBRANCH   1   6
BRANCH   2  46
HETATM   46  C   UNK N   1      20.863  15.422   1.170  0.00  0.00     0.161 C 
BRANCH  46  47
HETATM   47  C   UNK N   1      19.808  14.354   1.524  0.00  0.00     0.008 C 
HETATM   48  C   UNK N   1      19.869  13.137   0.615  0.00  0.00     0.012 C 
HETATM   49  C   UNK N   1      19.968  13.874   2.958  0.00  0.00     0.012 C 
ENDBRANCH  46  47
BRANCH  46  50
HETATM   50  C   UNK N   1      20.278  16.820   1.194  0.00  0.00     0.134 C 
HETATM   51  N   UNK N   1      19.804  17.302   2.290  0.00  0.00    -0.377 N 
HETATM   52  C   UNK N   1      19.237  18.625   2.359  0.00  0.00     0.148 C 
ATOM     53  HN  UNK N   1      19.829  16.730   3.135  1.00  0.00     0.160 HD
BRANCH  50  54
HETATM   54  O   UNK N   1      20.243  17.555   0.058  0.00  0.00    -0.348 OA
HETATM   55  H   UNK N   1      20.372  17.369  -0.852  0.00  0.00     0.219 HD
ENDBRANCH  50  54
ENDBRANCH  46  50
ENDBRANCH   2  46
TORSDOF 20
ENDMDL
MODEL 5
REMARK VINA RESULT:      -7.5      2.812      9.414
REMARK  20 active torsions:
REMARK  status: ('A' for Active; 'I' for Inactive)
REMARK    1  A    between atoms: C_22  and  C_19 
REMARK    2  A    between atoms: O_48  and  C_19 
REMARK    3  A    between atoms: C_23  and  C_20 
REMARK    4  A    between atoms: O_49  and  C_20 
REMARK    5  A    between atoms: C_27  and  C_21 
REMARK    6  A    between atoms: C_26  and  O_42 
REMARK    7  A    between atoms: C_33  and  C_27 
REMARK    8  A    between atoms: C_27  and  N_38 
REMARK    9  A    between atoms: C_28  and  N_40 
REMARK   10  A    between atoms: C_30  and  C_29 
REMARK   11  A    between atoms: C_31  and  C_29 
REMARK   12  A    between atoms: C_29  and  O_43 
REMARK   13  A    between atoms: C_32  and  C_30 
REMARK   14  A    between atoms: C_30  and  O_44 
REMARK   15  A    between atoms: C_34  and  C_31 
REMARK   16  A    between atoms: C_31  and  O_48 
REMARK   17  A    between atoms: C_35  and  C_32 
REMARK   18  A    between atoms: C_32  and  O_49 
REMARK   19  A    between atoms: O_45  and  C_33 
REMARK   20  A    between atoms: C_35  and  O_47 
ROOT
HETATM    1  C   UNK N   1      34.151  16.618   8.094  0.00  0.00     0.144 C 
HETATM    2  N   UNK N   1      32.881  16.494   7.894  0.00  0.00    -0.360 N 
ATOM      3  HN  UNK N   1      32.423  15.667   8.276  1.00  0.00     0.162 HD
HETATM    4  O   UNK N   1      34.826  17.689   7.622  0.00  0.00    -0.348 OA
HETATM    5  H   UNK N   1      35.255  18.464   7.316  0.00  0.00     0.219 HD
ENDROOT
BRANCH   1   6
HETATM    6  C   UNK N   1      34.880  15.514   8.830  0.00  0.00     0.227 C 
BRANCH   6   7
HETATM    7  C   UNK N   1      35.450  15.840  10.245  0.00  0.00     0.186 C 
BRANCH   7   8
HETATM    8  C   UNK N   1      34.761  15.238  11.500  0.00  0.00     0.186 C 
BRANCH   8   9
HETATM    9  C   UNK N   1      35.548  13.973  12.034  0.00  0.00     0.227 C 
BRANCH   9  10
HETATM   10  C   UNK N   1      35.384  12.762  11.107  0.00  0.00     0.144 C 
HETATM   11  N   UNK N   1      36.360  12.470  10.291  0.00  0.00    -0.361 N 
ATOM     12  HN  UNK N   1      37.126  13.143  10.285  1.00  0.00     0.162 HD
BRANCH  11  13
HETATM   13  C   UNK N   1      36.535  11.339   9.385  0.00  0.00     0.146 C 
HETATM   14  C   UNK N   1      37.675  11.455   8.444  0.00  0.00    -0.027 A 
HETATM   15  C   UNK N   1      38.874  12.152   8.615  0.00  0.00     0.010 A 
HETATM   16  C   UNK N   1      37.461  10.674   7.336  0.00  0.00    -0.047 A 
HETATM   17  C   UNK N   1      39.854  12.055   7.613  0.00  0.00     0.001 A 
HETATM   18  C   UNK N   1      39.634  11.249   6.481  0.00  0.00     0.001 A 
HETATM   19  C   UNK N   1      38.427  10.546   6.338  0.00  0.00     0.008 A 
HETATM   20  C   UNK N   1      36.123  10.023   7.366  0.00  0.00     0.073 C 
HETATM   21  C   UNK N   1      35.411  10.908   8.414  0.00  0.00     0.149 C 
BRANCH  21  22
HETATM   22  O   UNK N   1      34.386  10.224   9.067  0.00  0.00    -0.393 OA
HETATM   23  H   UNK N   1      33.794  10.585   9.746  0.00  0.00     0.210 HD
ENDBRANCH  21  22
ENDBRANCH  11  13
BRANCH  10  24
HETATM   24  O   UNK N   1      34.266  12.017  11.148  0.00  0.00    -0.348 OA
HETATM   25  H   UNK N   1      33.348  12.092  10.976  0.00  0.00     0.219 HD
ENDBRANCH  10  24
ENDBRANCH   9  10
BRANCH   9  26
HETATM   26  O   UNK N   1      35.119  13.569  13.325  0.00  0.00    -0.370 OA
BRANCH  26  27
HETATM   27  C   UNK N   1      36.190  13.140  14.137  0.00  0.00     0.207 C 
BRANCH  27  28
HETATM   28  C   UNK N   1      36.285  13.856  15.448  0.00  0.00    -0.035 A 
HETATM   29  C   UNK N   1      37.154  14.947  15.566  0.00  0.00     0.009 A 
HETATM   30  C   UNK N   1      37.224  15.662  16.763  0.00  0.00     0.001 A 
HETATM   31  C   UNK N   1      36.427  15.288  17.849  0.00  0.00     0.000 A 
HETATM   32  C   UNK N   1      35.559  14.196  17.735  0.00  0.00     0.001 A 
HETATM   33  C   UNK N   1      35.483  13.484  16.533  0.00  0.00     0.009 A 
ENDBRANCH  27  28
ENDBRANCH  26  27
ENDBRANCH   9  26
ENDBRANCH   8   9
BRANCH   8  34
HETATM   34  O   UNK N   1      33.437  14.876  11.232  0.00  0.00    -0.390 OA
HETATM   35  H   UNK N   1      32.777  14.441  11.794  0.00  0.00     0.210 HD
ENDBRANCH   8  34
ENDBRANCH   7   8
BRANCH   7  36
HETATM   36  O   UNK N   1      35.473  17.234  10.365  0.00  0.00    -0.390 OA
HETATM   37  H   UNK N   1      35.423  17.918   9.679  0.00  0.00     0.210 HD
ENDBRANCH   7  36
ENDBRANCH   6   7
BRANCH   6  38
HETATM   38  O   UNK N   1      35.744  14.751   8.011  0.00  0.00    -0.370 OA
BRANCH  38  39
HETATM   39  C   UNK N   1      35.100  13.984   7.032  0.00  0.00     0.207 C 
BRANCH  39  40
HETATM   40  C   UNK N   1      36.079  13.852   5.911  0.00  0.00    -0.035 A 
HETATM   41  C   UNK N   1      35.800  13.006   4.827  0.00  0.00     0.009 A 
HETATM   42  C   UNK N   1      36.764  12.792   3.835  0.00  0.00     0.001 A 
HETATM   43  C   UNK N   1      38.016  13.406   3.934  0.00  0.00     0.000 A 
HETATM   44  C   UNK N   1      38.300  14.246   5.017  0.00  0.00     0.001 A 
HETATM   45  C   UNK N   1      37.333  14.466   6.005  0.00  0.00     0.009 A 
ENDBRANCH  39  40
ENDBRANCH  38  39
ENDBRANCH   6  38
ENDBRANCH   1   6
BRANCH   2  46
HETATM   46  C   UNK N   1      32.053  17.440   7.167  0.00  0.00     0.161 C 
BRANCH  46  47
HETATM   47  C   UNK N   1      31.785  16.854   5.765  0.00  0.00     0.008 C 
HETATM   48  C   UNK N   1      32.708  17.422   4.699  0.00  0.00     0.012 C 
HETATM   49  C   UNK N   1      31.941  15.341   5.760  0.00  0.00     0.012 C 
ENDBRANCH  46  47
BRANCH  46  50
HETATM   50  C   UNK N   1      30.769  17.654   7.942  0.00  0.00     0.134 C 
HETATM   51  N   UNK N   1      30.799  18.237   9.091  0.00  0.00    -0.377 N 
HETATM   52  C   UNK N   1      29.604  18.460   9.864  0.00  0.00     0.148 C 
ATOM     53  HN  UNK N   1      31.696  18.550   9.464  1.00  0.00     0.160 HD
BRANCH  50  54
HETATM   54  O   UNK N   1      29.593  17.218   7.433  0.00  0.00    -0.348 OA
HETATM   55  H   UNK N   1      29.161  16.388   7.390  0.00  0.00     0.219 HD
ENDBRANCH  50  54
ENDBRANCH  46  50
ENDBRANCH   2  46
TORSDOF 20
ENDMDL
MODEL 6
REMARK VINA RESULT:      -7.5      2.046      4.351
REMARK  20 active torsions:
REMARK  status: ('A' for Active; 'I' for Inactive)
REMARK    1  A    between atoms: C_22  and  C_19 
REMARK    2  A    between atoms: O_48  and  C_19 
REMARK    3  A    between atoms: C_23  and  C_20 
REMARK    4  A    between atoms: O_49  and  C_20 
REMARK    5  A    between atoms: C_27  and  C_21 
REMARK    6  A    between atoms: C_26  and  O_42 
REMARK    7  A    between atoms: C_33  and  C_27 
REMARK    8  A    between atoms: C_27  and  N_38 
REMARK    9  A    between atoms: C_28  and  N_40 
REMARK   10  A    between atoms: C_30  and  C_29 
REMARK   11  A    between atoms: C_31  and  C_29 
REMARK   12  A    between atoms: C_29  and  O_43 
REMARK   13  A    between atoms: C_32  and  C_30 
REMARK   14  A    between atoms: C_30  and  O_44 
REMARK   15  A    between atoms: C_34  and  C_31 
REMARK   16  A    between atoms: C_31  and  O_48 
REMARK   17  A    between atoms: C_35  and  C_32 
REMARK   18  A    between atoms: C_32  and  O_49 
REMARK   19  A    between atoms: O_45  and  C_33 
REMARK   20  A    between atoms: C_35  and  O_47 
ROOT
HETATM    1  C   UNK N   1      36.632  13.451  12.726  0.00  0.00     0.144 C 
HETATM    2  N   UNK N   1      36.484  12.195  12.991  0.00  0.00    -0.360 N 
ATOM      3  HN  UNK N   1      36.267  11.573  12.212  1.00  0.00     0.162 HD
HETATM    4  O   UNK N   1      36.925  14.335  13.704  0.00  0.00    -0.348 OA
HETATM    5  H   UNK N   1      37.168  14.915  14.400  0.00  0.00     0.219 HD
ENDROOT
BRANCH   1   6
HETATM    6  C   UNK N   1      36.427  13.920  11.301  0.00  0.00     0.227 C 
BRANCH   6   7
HETATM    7  C   UNK N   1      35.033  14.512  10.927  0.00  0.00     0.186 C 
BRANCH   7   8
HETATM    8  C   UNK N   1      34.906  16.031  10.632  0.00  0.00     0.186 C 
BRANCH   8   9
HETATM    9  C   UNK N   1      34.202  16.287   9.238  0.00  0.00     0.227 C 
BRANCH   9  10
HETATM   10  C   UNK N   1      32.672  16.251   9.353  0.00  0.00     0.144 C 
HETATM   11  N   UNK N   1      31.985  17.198   8.777  0.00  0.00    -0.361 N 
ATOM     12  HN  UNK N   1      32.547  17.942   8.365  1.00  0.00     0.162 HD
BRANCH  11  13
HETATM   13  C   UNK N   1      30.543  17.369   8.625  0.00  0.00     0.146 C 
HETATM   14  C   UNK N   1      30.069  17.521   7.228  0.00  0.00    -0.027 A 
HETATM   15  C   UNK N   1      30.641  17.014   6.058  0.00  0.00     0.010 A 
HETATM   16  C   UNK N   1      28.868  18.183   7.201  0.00  0.00    -0.047 A 
HETATM   17  C   UNK N   1      29.969  17.217   4.842  0.00  0.00     0.001 A 
HETATM   18  C   UNK N   1      28.734  17.892   4.817  0.00  0.00     0.001 A 
HETATM   19  C   UNK N   1      28.172  18.379   6.009  0.00  0.00     0.008 A 
HETATM   20  C   UNK N   1      28.449  18.628   8.559  0.00  0.00     0.073 C 
HETATM   21  C   UNK N   1      29.800  18.543   9.304  0.00  0.00     0.149 C 
BRANCH  21  22
HETATM   22  O   UNK N   1      29.630  18.335  10.673  0.00  0.00    -0.393 OA
HETATM   23  H   UNK N   1      30.309  18.429  11.359  0.00  0.00     0.210 HD
ENDBRANCH  21  22
ENDBRANCH  11  13
BRANCH  10  24
HETATM   24  O   UNK N   1      32.062  15.256  10.022  0.00  0.00    -0.348 OA
HETATM   25  H   UNK N   1      31.648  14.432   9.859  0.00  0.00     0.219 HD
ENDBRANCH  10  24
ENDBRANCH   9  10
BRANCH   9  26
HETATM   26  O   UNK N   1      34.569  15.328   8.258  0.00  0.00    -0.370 OA
BRANCH  26  27
HETATM   27  C   UNK N   1      34.683  15.894   6.970  0.00  0.00     0.207 C 
BRANCH  27  28
HETATM   28  C   UNK N   1      33.818  15.240   5.940  0.00  0.00    -0.035 A 
HETATM   29  C   UNK N   1      33.942  15.628   4.601  0.00  0.00     0.009 A 
HETATM   30  C   UNK N   1      33.181  14.998   3.614  0.00  0.00     0.001 A 
HETATM   31  C   UNK N   1      32.290  13.979   3.962  0.00  0.00     0.000 A 
HETATM   32  C   UNK N   1      32.161  13.590   5.299  0.00  0.00     0.001 A 
HETATM   33  C   UNK N   1      32.929  14.216   6.288  0.00  0.00     0.009 A 
ENDBRANCH  27  28
ENDBRANCH  26  27
ENDBRANCH   9  26
ENDBRANCH   8   9
BRANCH   8  34
HETATM   34  O   UNK N   1      36.156  16.660  10.638  0.00  0.00    -0.390 OA
HETATM   35  H   UNK N   1      36.416  17.542  10.944  0.00  0.00     0.210 HD
ENDBRANCH   8  34
ENDBRANCH   7   8
BRANCH   7  36
HETATM   36  O   UNK N   1      34.154  14.177  11.964  0.00  0.00    -0.390 OA
HETATM   37  H   UNK N   1      33.757  13.321  12.189  0.00  0.00     0.210 HD
ENDBRANCH   7  36
ENDBRANCH   6   7
BRANCH   6  38
HETATM   38  O   UNK N   1      36.978  13.055  10.328  0.00  0.00    -0.370 OA
BRANCH  38  39
HETATM   39  C   UNK N   1      37.701  13.695   9.315  0.00  0.00     0.207 C 
BRANCH  39  40
HETATM   40  C   UNK N   1      37.170  13.149   8.029  0.00  0.00    -0.035 A 
HETATM   41  C   UNK N   1      37.588  13.693   6.805  0.00  0.00     0.009 A 
HETATM   42  C   UNK N   1      37.005  13.262   5.608  0.00  0.00     0.001 A 
HETATM   43  C   UNK N   1      35.990  12.300   5.632  0.00  0.00     0.000 A 
HETATM   44  C   UNK N   1      35.568  11.759   6.851  0.00  0.00     0.001 A 
HETATM   45  C   UNK N   1      36.156  12.185   8.048  0.00  0.00     0.009 A 
ENDBRANCH  39  40
ENDBRANCH  38  39
ENDBRANCH   6  38
ENDBRANCH   1   6
BRANCH   2  46
HETATM   46  C   UNK N   1      36.600  11.599  14.310  0.00  0.00     0.161 C 
BRANCH  46  47
HETATM   47  C   UNK N   1      35.180  11.241  14.794  0.00  0.00     0.008 C 
HETATM   48  C   UNK N   1      34.498  12.383  15.530  0.00  0.00     0.012 C 
HETATM   49  C   UNK N   1      34.287  10.835  13.632  0.00  0.00     0.012 C 
ENDBRANCH  46  47
BRANCH  46  50
HETATM   50  C   UNK N   1      37.486  10.374  14.210  0.00  0.00     0.134 C 
HETATM   51  N   UNK N   1      37.859   9.759  15.279  0.00  0.00    -0.377 N 
HETATM   52  C   UNK N   1      38.703   8.592  15.232  0.00  0.00     0.148 C 
ATOM     53  HN  UNK N   1      37.548  10.109  16.186  1.00  0.00     0.160 HD
BRANCH  50  54
HETATM   54  O   UNK N   1      37.896   9.936  12.997  0.00  0.00    -0.348 OA
HETATM   55  H   UNK N   1      37.825  10.260  12.121  0.00  0.00     0.219 HD
ENDBRANCH  50  54
ENDBRANCH  46  50
ENDBRANCH   2  46
TORSDOF 20
ENDMDL
MODEL 7
REMARK VINA RESULT:      -7.5      1.715      3.647
REMARK  20 active torsions:
REMARK  status: ('A' for Active; 'I' for Inactive)
REMARK    1  A    between atoms: C_22  and  C_19 
REMARK    2  A    between atoms: O_48  and  C_19 
REMARK    3  A    between atoms: C_23  and  C_20 
REMARK    4  A    between atoms: O_49  and  C_20 
REMARK    5  A    between atoms: C_27  and  C_21 
REMARK    6  A    between atoms: C_26  and  O_42 
REMARK    7  A    between atoms: C_33  and  C_27 
REMARK    8  A    between atoms: C_27  and  N_38 
REMARK    9  A    between atoms: C_28  and  N_40 
REMARK   10  A    between atoms: C_30  and  C_29 
REMARK   11  A    between atoms: C_31  and  C_29 
REMARK   12  A    between atoms: C_29  and  O_43 
REMARK   13  A    between atoms: C_32  and  C_30 
REMARK   14  A    between atoms: C_30  and  O_44 
REMARK   15  A    between atoms: C_34  and  C_31 
REMARK   16  A    between atoms: C_31  and  O_48 
REMARK   17  A    between atoms: C_35  and  C_32 
REMARK   18  A    between atoms: C_32  and  O_49 
REMARK   19  A    between atoms: O_45  and  C_33 
REMARK   20  A    between atoms: C_35  and  O_47 
ROOT
HETATM    1  C   UNK N   1      35.363  12.777  11.689  0.00  0.00     0.144 C 
HETATM    2  N   UNK N   1      34.320  12.031  11.527  0.00  0.00    -0.360 N 
ATOM      3  HN  UNK N   1      33.409  12.451  11.710  1.00  0.00     0.162 HD
HETATM    4  O   UNK N   1      36.602  12.293  11.461  0.00  0.00    -0.348 OA
HETATM    5  H   UNK N   1      37.445  11.937  11.254  0.00  0.00     0.219 HD
ENDROOT
BRANCH   1   6
HETATM    6  C   UNK N   1      35.170  14.195  12.185  0.00  0.00     0.227 C 
BRANCH   6   7
HETATM    7  C   UNK N   1      35.801  15.348  11.347  0.00  0.00     0.186 C 
BRANCH   7   8
HETATM    8  C   UNK N   1      34.946  16.054  10.259  0.00  0.00     0.186 C 
BRANCH   8   9
HETATM    9  C   UNK N   1      35.088  15.328   8.859  0.00  0.00     0.227 C 
BRANCH   9  10
HETATM   10  C   UNK N   1      34.294  16.046   7.759  0.00  0.00     0.144 C 
HETATM   11  N   UNK N   1      33.025  16.271   7.958  0.00  0.00    -0.361 N 
ATOM     12  HN  UNK N   1      32.648  15.861   8.812  1.00  0.00     0.162 HD
BRANCH  11  13
HETATM   13  C   UNK N   1      32.054  17.012   7.158  0.00  0.00     0.146 C 
HETATM   14  C   UNK N   1      30.825  17.423   7.879  0.00  0.00    -0.027 A 
HETATM   15  C   UNK N   1      30.669  17.698   9.240  0.00  0.00     0.010 A 
HETATM   16  C   UNK N   1      29.794  17.613   6.994  0.00  0.00    -0.047 A 
HETATM   17  C   UNK N   1      29.419  18.153   9.692  0.00  0.00     0.001 A 
HETATM   18  C   UNK N   1      28.364  18.352   8.782  0.00  0.00     0.001 A 
HETATM   19  C   UNK N   1      28.551  18.083   7.416  0.00  0.00     0.008 A 
HETATM   20  C   UNK N   1      30.186  17.263   5.601  0.00  0.00     0.073 C 
HETATM   21  C   UNK N   1      31.438  16.401   5.878  0.00  0.00     0.149 C 
BRANCH  21  22
HETATM   22  O   UNK N   1      32.332  16.417   4.806  0.00  0.00    -0.393 OA
HETATM   23  H   UNK N   1      32.821  17.187   4.476  0.00  0.00     0.210 HD
ENDBRANCH  21  22
ENDBRANCH  11  13
BRANCH  10  24
HETATM   24  O   UNK N   1      34.903  16.442   6.628  0.00  0.00    -0.348 OA
HETATM   25  H   UNK N   1      35.758  16.476   6.248  0.00  0.00     0.219 HD
ENDBRANCH  10  24
ENDBRANCH   9  10
BRANCH   9  26
HETATM   26  O   UNK N   1      34.630  13.985   8.893  0.00  0.00    -0.370 OA
BRANCH  26  27
HETATM   27  C   UNK N   1      35.041  13.250   7.760  0.00  0.00     0.207 C 
BRANCH  27  28
HETATM   28  C   UNK N   1      36.317  12.494   7.956  0.00  0.00    -0.035 A 
HETATM   29  C   UNK N   1      36.260  11.122   8.222  0.00  0.00     0.009 A 
HETATM   30  C   UNK N   1      37.439  10.384   8.360  0.00  0.00     0.001 A 
HETATM   31  C   UNK N   1      38.679  11.017   8.235  0.00  0.00     0.000 A 
HETATM   32  C   UNK N   1      38.739  12.390   7.972  0.00  0.00     0.001 A 
HETATM   33  C   UNK N   1      37.559  13.128   7.826  0.00  0.00     0.009 A 
ENDBRANCH  27  28
ENDBRANCH  26  27
ENDBRANCH   9  26
ENDBRANCH   8   9
BRANCH   8  34
HETATM   34  O   UNK N   1      35.306  17.398  10.119  0.00  0.00    -0.390 OA
HETATM   35  H   UNK N   1      35.597  18.045  10.780  0.00  0.00     0.210 HD
ENDBRANCH   8  34
ENDBRANCH   7   8
BRANCH   7  36
HETATM   36  O   UNK N   1      36.959  14.834  10.750  0.00  0.00    -0.390 OA
HETATM   37  H   UNK N   1      37.506  14.076  11.008  0.00  0.00     0.210 HD
ENDBRANCH   7  36
ENDBRANCH   6   7
BRANCH   6  38
HETATM   38  O   UNK N   1      35.317  14.337  13.585  0.00  0.00    -0.370 OA
BRANCH  38  39
HETATM   39  C   UNK N   1      36.598  14.049  14.072  0.00  0.00     0.207 C 
BRANCH  39  40
HETATM   40  C   UNK N   1      36.406  13.005  15.124  0.00  0.00    -0.035 A 
HETATM   41  C   UNK N   1      36.999  11.741  14.979  0.00  0.00     0.009 A 
HETATM   42  C   UNK N   1      36.726  10.726  15.903  0.00  0.00     0.001 A 
HETATM   43  C   UNK N   1      35.845  10.964  16.962  0.00  0.00     0.000 A 
HETATM   44  C   UNK N   1      35.248  12.221  17.106  0.00  0.00     0.001 A 
HETATM   45  C   UNK N   1      35.526  13.239  16.187  0.00  0.00     0.009 A 
ENDBRANCH  39  40
ENDBRANCH  38  39
ENDBRANCH   6  38
ENDBRANCH   1   6
BRANCH   2  46
HETATM   46  C   UNK N   1      34.342  10.642  11.104  0.00  0.00     0.161 C 
BRANCH  46  47
HETATM   47  C   UNK N   1      34.221   9.762  12.365  0.00  0.00     0.008 C 
HETATM   48  C   UNK N   1      35.524   9.072  12.734  0.00  0.00     0.012 C 
HETATM   49  C   UNK N   1      33.769  10.579  13.566  0.00  0.00     0.012 C 
ENDBRANCH  46  47
BRANCH  46  50
HETATM   50  C   UNK N   1      33.194  10.411  10.144  0.00  0.00     0.134 C 
HETATM   51  N   UNK N   1      32.807   9.211   9.877  0.00  0.00    -0.377 N 
HETATM   52  C   UNK N   1      31.721   8.944   8.969  0.00  0.00     0.148 C 
ATOM     53  HN  UNK N   1      33.285   8.427  10.322  1.00  0.00     0.160 HD
BRANCH  50  54
HETATM   54  O   UNK N   1      32.584  11.467   9.556  0.00  0.00    -0.348 OA
HETATM   55  H   UNK N   1      32.319  12.318   9.843  0.00  0.00     0.219 HD
ENDBRANCH  50  54
ENDBRANCH  46  50
ENDBRANCH   2  46
TORSDOF 20
ENDMDL
MODEL 8
REMARK VINA RESULT:      -7.5      2.266      9.595
REMARK  20 active torsions:
REMARK  status: ('A' for Active; 'I' for Inactive)
REMARK    1  A    between atoms: C_22  and  C_19 
REMARK    2  A    between atoms: O_48  and  C_19 
REMARK    3  A    between atoms: C_23  and  C_20 
REMARK    4  A    between atoms: O_49  and  C_20 
REMARK    5  A    between atoms: C_27  and  C_21 
REMARK    6  A    between atoms: C_26  and  O_42 
REMARK    7  A    between atoms: C_33  and  C_27 
REMARK    8  A    between atoms: C_27  and  N_38 
REMARK    9  A    between atoms: C_28  and  N_40 
REMARK   10  A    between atoms: C_30  and  C_29 
REMARK   11  A    between atoms: C_31  and  C_29 
REMARK   12  A    between atoms: C_29  and  O_43 
REMARK   13  A    between atoms: C_32  and  C_30 
REMARK   14  A    between atoms: C_30  and  O_44 
REMARK   15  A    between atoms: C_34  and  C_31 
REMARK   16  A    between atoms: C_31  and  O_48 
REMARK   17  A    between atoms: C_35  and  C_32 
REMARK   18  A    between atoms: C_32  and  O_49 
REMARK   19  A    between atoms: O_45  and  C_33 
REMARK   20  A    between atoms: C_35  and  O_47 
ROOT
HETATM    1  C   UNK N   1      35.008  14.302   8.283  0.00  0.00     0.144 C 
HETATM    2  N   UNK N   1      35.455  14.397   7.075  0.00  0.00    -0.360 N 
ATOM      3  HN  UNK N   1      35.977  15.240   6.832  1.00  0.00     0.162 HD
HETATM    4  O   UNK N   1      34.313  13.214   8.681  0.00  0.00    -0.348 OA
HETATM    5  H   UNK N   1      33.871  12.427   8.934  0.00  0.00     0.219 HD
ENDROOT
BRANCH   1   6
HETATM    6  C   UNK N   1      35.239  15.457   9.235  0.00  0.00     0.227 C 
BRANCH   6   7
HETATM    7  C   UNK N   1      35.927  15.145  10.599  0.00  0.00     0.186 C 
BRANCH   7   8
HETATM    8  C   UNK N   1      35.055  14.727  11.814  0.00  0.00     0.186 C 
BRANCH   8   9
HETATM    9  C   UNK N   1      35.651  13.451  12.536  0.00  0.00     0.227 C 
BRANCH   9  10
HETATM   10  C   UNK N   1      35.282  12.154  11.804  0.00  0.00     0.144 C 
HETATM   11  N   UNK N   1      34.238  11.487  12.214  0.00  0.00    -0.361 N 
ATOM     12  HN  UNK N   1      33.803  11.855  13.060  1.00  0.00     0.162 HD
BRANCH  11  13
HETATM   13  C   UNK N   1      33.590  10.301  11.662  0.00  0.00     0.146 C 
HETATM   14  C   UNK N   1      34.296   9.022  11.911  0.00  0.00    -0.027 A 
HETATM   15  C   UNK N   1      35.131   8.686  12.980  0.00  0.00     0.010 A 
HETATM   16  C   UNK N   1      33.950   8.093  10.962  0.00  0.00    -0.047 A 
HETATM   17  C   UNK N   1      35.632   7.376  13.052  0.00  0.00     0.001 A 
HETATM   18  C   UNK N   1      35.271   6.423  12.081  0.00  0.00     0.001 A 
HETATM   19  C   UNK N   1      34.419   6.781  11.024  0.00  0.00     0.008 A 
HETATM   20  C   UNK N   1      33.052   8.668   9.925  0.00  0.00     0.073 C 
HETATM   21  C   UNK N   1      33.306  10.176  10.147  0.00  0.00     0.149 C 
BRANCH  21  22
HETATM   22  O   UNK N   1      32.218  10.954   9.750  0.00  0.00    -0.393 OA
HETATM   23  H   UNK N   1      31.667  10.817   8.964  0.00  0.00     0.210 HD
ENDBRANCH  21  22
ENDBRANCH  11  13
BRANCH  10  24
HETATM   24  O   UNK N   1      36.013  11.728  10.759  0.00  0.00    -0.348 OA
HETATM   25  H   UNK N   1      35.924  11.200   9.991  0.00  0.00     0.219 HD
ENDBRANCH  10  24
ENDBRANCH   9  10
BRANCH   9  26
HETATM   26  O   UNK N   1      35.195  13.319  13.873  0.00  0.00    -0.370 OA
BRANCH  26  27
HETATM   27  C   UNK N   1      36.257  13.302  14.803  0.00  0.00     0.207 C 
BRANCH  27  28
HETATM   28  C   UNK N   1      35.860  12.842  16.170  0.00  0.00    -0.035 A 
HETATM   29  C   UNK N   1      35.959  11.482  16.486  0.00  0.00     0.009 A 
HETATM   30  C   UNK N   1      35.642  11.035  17.770  0.00  0.00     0.001 A 
HETATM   31  C   UNK N   1      35.221  11.945  18.744  0.00  0.00     0.000 A 
HETATM   32  C   UNK N   1      35.118  13.305  18.431  0.00  0.00     0.001 A 
HETATM   33  C   UNK N   1      35.443  13.755  17.146  0.00  0.00     0.009 A 
ENDBRANCH  27  28
ENDBRANCH  26  27
ENDBRANCH   9  26
ENDBRANCH   8   9
BRANCH   8  34
HETATM   34  O   UNK N   1      33.736  14.464  11.430  0.00  0.00    -0.390 OA
HETATM   35  H   UNK N   1      32.965  14.205  11.959  0.00  0.00     0.210 HD
ENDBRANCH   8  34
ENDBRANCH   7   8
BRANCH   7  36
HETATM   36  O   UNK N   1      36.677  16.275  10.947  0.00  0.00    -0.390 OA
HETATM   37  H   UNK N   1      37.636  16.414  10.922  0.00  0.00     0.210 HD
ENDBRANCH   7  36
ENDBRANCH   6   7
BRANCH   6  38
HETATM   38  O   UNK N   1      34.151  16.357   9.319  0.00  0.00    -0.370 OA
BRANCH  38  39
HETATM   39  C   UNK N   1      34.324  17.554   8.615  0.00  0.00     0.207 C 
BRANCH  39  40
HETATM   40  C   UNK N   1      33.340  17.512   7.492  0.00  0.00    -0.035 A 
HETATM   41  C   UNK N   1      31.988  17.236   7.747  0.00  0.00     0.009 A 
HETATM   42  C   UNK N   1      31.088  17.080   6.686  0.00  0.00     0.001 A 
HETATM   43  C   UNK N   1      31.541  17.180   5.367  0.00  0.00     0.000 A 
HETATM   44  C   UNK N   1      32.889  17.449   5.109  0.00  0.00     0.001 A 
HETATM   45  C   UNK N   1      33.787  17.612   6.169  0.00  0.00     0.009 A 
ENDBRANCH  39  40
ENDBRANCH  38  39
ENDBRANCH   6  38
ENDBRANCH   1   6
BRANCH   2  46
HETATM   46  C   UNK N   1      35.275  13.400   6.035  0.00  0.00     0.161 C 
BRANCH  46  47
HETATM   47  C   UNK N   1      34.264  13.960   5.013  0.00  0.00     0.008 C 
HETATM   48  C   UNK N   1      34.455  13.390   3.617  0.00  0.00     0.012 C 
HETATM   49  C   UNK N   1      32.833  13.676   5.442  0.00  0.00     0.012 C 
ENDBRANCH  46  47
BRANCH  46  50
HETATM   50  C   UNK N   1      36.621  13.117   5.399  0.00  0.00     0.134 C 
HETATM   51  N   UNK N   1      36.999  11.901   5.203  0.00  0.00    -0.377 N 
HETATM   52  C   UNK N   1      38.270  11.585   4.603  0.00  0.00     0.148 C 
ATOM     53  HN  UNK N   1      36.380  11.140   5.481  1.00  0.00     0.160 HD
BRANCH  50  54
HETATM   54  O   UNK N   1      37.430  14.144   5.049  0.00  0.00    -0.348 OA
HETATM   55  H   UNK N   1      38.355  14.245   4.936  0.00  0.00     0.219 HD
ENDBRANCH  50  54
ENDBRANCH  46  50
ENDBRANCH   2  46
TORSDOF 20
ENDMDL
MODEL 9
REMARK VINA RESULT:      -7.5      2.342      3.933
REMARK  20 active torsions:
REMARK  status: ('A' for Active; 'I' for Inactive)
REMARK    1  A    between atoms: C_22  and  C_19 
REMARK    2  A    between atoms: O_48  and  C_19 
REMARK    3  A    between atoms: C_23  and  C_20 
REMARK    4  A    between atoms: O_49  and  C_20 
REMARK    5  A    between atoms: C_27  and  C_21 
REMARK    6  A    between atoms: C_26  and  O_42 
REMARK    7  A    between atoms: C_33  and  C_27 
REMARK    8  A    between atoms: C_27  and  N_38 
REMARK    9  A    between atoms: C_28  and  N_40 
REMARK   10  A    between atoms: C_30  and  C_29 
REMARK   11  A    between atoms: C_31  and  C_29 
REMARK   12  A    between atoms: C_29  and  O_43 
REMARK   13  A    between atoms: C_32  and  C_30 
REMARK   14  A    between atoms: C_30  and  O_44 
REMARK   15  A    between atoms: C_34  and  C_31 
REMARK   16  A    between atoms: C_31  and  O_48 
REMARK   17  A    between atoms: C_35  and  C_32 
REMARK   18  A    between atoms: C_32  and  O_49 
REMARK   19  A    between atoms: O_45  and  C_33 
REMARK   20  A    between atoms: C_35  and  O_47 
ROOT
HETATM    1  C   UNK N   1      36.598  13.457  12.736  0.00  0.00     0.144 C 
HETATM    2  N   UNK N   1      36.433  12.210  13.029  0.00  0.00    -0.360 N 
ATOM      3  HN  UNK N   1      36.228  11.570  12.262  1.00  0.00     0.162 HD
HETATM    4  O   UNK N   1      36.876  14.363  13.698  0.00  0.00    -0.348 OA
HETATM    5  H   UNK N   1      37.109  14.959  14.384  0.00  0.00     0.219 HD
ENDROOT
BRANCH   1   6
HETATM    6  C   UNK N   1      36.429  13.892  11.295  0.00  0.00     0.227 C 
BRANCH   6   7
HETATM    7  C   UNK N   1      35.020  14.390  10.850  0.00  0.00     0.186 C 
BRANCH   7   8
HETATM    8  C   UNK N   1      34.813  15.893  10.519  0.00  0.00     0.186 C 
BRANCH   8   9
HETATM    9  C   UNK N   1      34.019  16.077   9.162  0.00  0.00     0.227 C 
BRANCH   9  10
HETATM   10  C   UNK N   1      32.502  16.105   9.385  0.00  0.00     0.144 C 
HETATM   11  N   UNK N   1      31.804  17.030   8.786  0.00  0.00    -0.361 N 
ATOM     12  HN  UNK N   1      32.358  17.719   8.278  1.00  0.00     0.162 HD
BRANCH  11  13
HETATM   13  C   UNK N   1      30.361  17.241   8.721  0.00  0.00     0.146 C 
HETATM   14  C   UNK N   1      29.759  17.078   7.376  0.00  0.00    -0.027 A 
HETATM   15  C   UNK N   1      30.196  16.272   6.321  0.00  0.00     0.010 A 
HETATM   16  C   UNK N   1      28.584  17.781   7.290  0.00  0.00    -0.047 A 
HETATM   17  C   UNK N   1      29.417  16.213   5.155  0.00  0.00     0.001 A 
HETATM   18  C   UNK N   1      28.209  16.932   5.071  0.00  0.00     0.001 A 
HETATM   19  C   UNK N   1      27.783  17.723   6.150  0.00  0.00     0.008 A 
HETATM   20  C   UNK N   1      28.315  18.564   8.527  0.00  0.00     0.073 C 
HETATM   21  C   UNK N   1      29.728  18.585   9.152  0.00  0.00     0.149 C 
BRANCH  21  22
HETATM   22  O   UNK N   1      29.685  18.724  10.539  0.00  0.00    -0.393 OA
HETATM   23  H   UNK N   1      29.168  19.376  11.037  0.00  0.00     0.210 HD
ENDBRANCH  21  22
ENDBRANCH  11  13
BRANCH  10  24
HETATM   24  O   UNK N   1      31.911  15.187  10.171  0.00  0.00    -0.348 OA
HETATM   25  H   UNK N   1      31.783  14.997  11.079  0.00  0.00     0.219 HD
ENDBRANCH  10  24
ENDBRANCH   9  10
BRANCH   9  26
HETATM   26  O   UNK N   1      34.284  15.039   8.231  0.00  0.00    -0.370 OA
BRANCH  26  27
HETATM   27  C   UNK N   1      35.106  15.470   7.167  0.00  0.00     0.207 C 
BRANCH  27  28
HETATM   28  C   UNK N   1      34.348  15.954   5.971  0.00  0.00    -0.035 A 
HETATM   29  C   UNK N   1      34.102  15.067   4.918  0.00  0.00     0.009 A 
HETATM   30  C   UNK N   1      33.355  15.480   3.812  0.00  0.00     0.001 A 
HETATM   31  C   UNK N   1      32.853  16.783   3.754  0.00  0.00     0.000 A 
HETATM   32  C   UNK N   1      33.100  17.674   4.805  0.00  0.00     0.001 A 
HETATM   33  C   UNK N   1      33.842  17.258   5.916  0.00  0.00     0.009 A 
ENDBRANCH  27  28
ENDBRANCH  26  27
ENDBRANCH   9  26
ENDBRANCH   8   9
BRANCH   8  34
HETATM   34  O   UNK N   1      36.034  16.570  10.433  0.00  0.00    -0.390 OA
HETATM   35  H   UNK N   1      36.307  17.308   9.867  0.00  0.00     0.210 HD
ENDBRANCH   8  34
ENDBRANCH   7   8
BRANCH   7  36
HETATM   36  O   UNK N   1      34.118  14.019  11.854  0.00  0.00    -0.390 OA
HETATM   37  H   UNK N   1      33.322  13.467  11.801  0.00  0.00     0.210 HD
ENDBRANCH   7  36
ENDBRANCH   6   7
BRANCH   6  38
HETATM   38  O   UNK N   1      37.076  13.049  10.363  0.00  0.00    -0.370 OA
BRANCH  38  39
HETATM   39  C   UNK N   1      38.436  13.318  10.173  0.00  0.00     0.207 C 
BRANCH  39  40
HETATM   40  C   UNK N   1      39.027  12.059   9.625  0.00  0.00    -0.035 A 
HETATM   41  C   UNK N   1      38.471  10.815   9.959  0.00  0.00     0.009 A 
HETATM   42  C   UNK N   1      39.092   9.632   9.543  0.00  0.00     0.001 A 
HETATM   43  C   UNK N   1      40.281   9.688   8.809  0.00  0.00     0.000 A 
HETATM   44  C   UNK N   1      40.841  10.927   8.479  0.00  0.00     0.001 A 
HETATM   45  C   UNK N   1      40.217  12.110   8.889  0.00  0.00     0.009 A 
ENDBRANCH  39  40
ENDBRANCH  38  39
ENDBRANCH   6  38
ENDBRANCH   1   6
BRANCH   2  46
HETATM   46  C   UNK N   1      36.514  11.646  14.365  0.00  0.00     0.161 C 
BRANCH  46  47
HETATM   47  C   UNK N   1      35.077  11.360  14.846  0.00  0.00     0.008 C 
HETATM   48  C   UNK N   1      34.445  12.540  15.565  0.00  0.00     0.012 C 
HETATM   49  C   UNK N   1      34.171  10.982  13.684  0.00  0.00     0.012 C 
ENDBRANCH  46  47
BRANCH  46  50
HETATM   50  C   UNK N   1      37.351  10.385  14.307  0.00  0.00     0.134 C 
HETATM   51  N   UNK N   1      37.556   9.799  13.178  0.00  0.00    -0.377 N 
HETATM   52  C   UNK N   1      38.344   8.596  13.075  0.00  0.00     0.148 C 
ATOM     53  HN  UNK N   1      37.149  10.197  12.332  1.00  0.00     0.160 HD
BRANCH  50  54
HETATM   54  O   UNK N   1      37.870   9.867  15.444  0.00  0.00    -0.348 OA
HETATM   55  H   UNK N   1      37.691   9.109  15.965  0.00  0.00     0.219 HD
ENDBRANCH  50  54
ENDBRANCH  46  50
ENDBRANCH   2  46
TORSDOF 20
ENDMDL
