REMARK  24 active torsions:
REMARK  status: ('A' for Active; 'I' for Inactive)
REMARK    1  A    between atoms: C_18  and  C_3 
REMARK    2  A    between atoms: C_7  and  C_6 
REMARK    3  A    between atoms: C_17  and  C_6 
REMARK    4  A    between atoms: C_19  and  C_7 
REMARK    5  A    between atoms: N_35  and  C_17 
REMARK    6  A    between atoms: O_51  and  C_18 
REMARK    7  A    between atoms: O_50  and  C_19 
REMARK    8  A    between atoms: C_21  and  C_20 
REMARK    9  A    between atoms: C_24  and  C_20 
REMARK   10  A    between atoms: N_39  and  C_22 
REMARK   11  A    between atoms: C_31  and  C_23 
REMARK   12  A    between atoms: C_29  and  C_24 
REMARK   13  A    between atoms: C_24  and  N_37 
REMARK   14  A    between atoms: N_39  and  C_25 
REMARK   15  A    between atoms: O_40  and  C_26 
REMARK   16  A    between atoms: O_50  and  C_27 
REMARK   17  A    between atoms: C_33  and  C_28 
REMARK   18  A    between atoms: O_41  and  C_29 
REMARK   19  A    between atoms: C_32  and  C_30 
REMARK       I    between atoms: N_39  and  C_30 
REMARK   20  A    between atoms: O_44  and  C_31 
REMARK   21  A    between atoms: O_45  and  C_32 
REMARK   22  A    between atoms: O_49  and  C_33 
REMARK   23  A    between atoms: C_34  and  O_48 
REMARK   24  A    between atoms: O_51  and  C_34 
ROOT
HETATM    1  C   UNK N   1      -1.423   4.524  -0.083  0.00  0.00     0.164 C 
ENDROOT
BRANCH   1   2
HETATM    2  C   UNK N   1      -2.025   5.756  -0.790  0.00  0.00     0.072 C 
BRANCH   2   3
HETATM    3  C   UNK N   1      -0.961   6.780  -0.742  0.00  0.00    -0.056 A 
HETATM    4  C   UNK N   1       0.067   6.706  -1.676  0.00  0.00     0.009 A 
HETATM    5  C   UNK N   1       1.265   7.350  -1.422  0.00  0.00     0.030 A 
HETATM    6  C   UNK N   1       1.481   8.028  -0.209  0.00  0.00     0.043 A 
HETATM    7  C   UNK N   1       0.443   8.098   0.727  0.00  0.00     0.030 A 
HETATM    8  C   UNK N   1      -0.771   7.468   0.464  0.00  0.00     0.009 A 
BRANCH   6   9
HETATM    9  N   UNK N   1       2.748   8.655  -0.009  0.00  0.00    -0.273 N 
HETATM   10  C   UNK N   1       2.808  10.013  -0.279  0.00  0.00     0.326 C 
HETATM   11  O   UNK N   1       3.804  10.485  -0.789  0.00  0.00    -0.260 OA
BRANCH   9  12
HETATM   12  C   UNK N   1       3.939   7.790  -0.025  0.00  0.00     0.060 A 
HETATM   13  C   UNK N   1       3.744   6.411  -0.298  0.00  0.00     0.031 A 
HETATM   14  C   UNK N   1       4.795   5.503  -0.378  0.00  0.00     0.002 A 
HETATM   15  C   UNK N   1       6.096   5.940  -0.204  0.00  0.00     0.001 A 
HETATM   16  C   UNK N   1       6.338   7.270   0.114  0.00  0.00     0.020 A 
HETATM   17  C   UNK N   1       5.297   8.209   0.247  0.00  0.00     0.065 A 
BRANCH  17  18
HETATM   18  C   UNK N   1       5.729   9.542   0.759  0.00  0.00     0.178 C 
HETATM   19  O   UNK N   1       6.896   9.886   0.644  0.00  0.00    -0.646 OA
BRANCH  18  20
HETATM   20  O   UNK N   1       4.890  10.321   1.468  0.00  0.00    -0.773 OA
HETATM   21  H   UNK N   1       5.068  11.098   1.962  0.00  0.00     0.167 HD
ENDBRANCH  18  20
ENDBRANCH  17  18
ENDBRANCH   9  12
BRANCH  10  22
HETATM   22  C   UNK N   1       1.646  10.942  -0.075  0.00  0.00     0.237 C 
HETATM   23  O   UNK N   1       1.664  12.040  -0.609  0.00  0.00    -0.643 OA
BRANCH  22  24
HETATM   24  O   UNK N   1       0.665  10.674   0.802  0.00  0.00    -0.769 OA
HETATM   25  H   UNK N   1       0.160  11.173   1.414  0.00  0.00     0.168 HD
ENDBRANCH  22  24
ENDBRANCH  10  22
ENDBRANCH   6   9
ENDBRANCH   2   3
ENDBRANCH   1   2
BRANCH   1  26
HETATM   26  C   UNK N   1      -2.346   4.031   1.010  0.00  0.00     0.135 C 
HETATM   27  N   UNK N   1      -2.500   2.790   1.330  0.00  0.00    -0.373 N 
ATOM     28  HN  UNK N   1      -3.097   2.587   2.132  1.00  0.00     0.161 HD
BRANCH  27  29
HETATM   29  C   UNK N   1      -1.901   1.668   0.655  0.00  0.00     0.121 C 
BRANCH  29  30
HETATM   30  C   UNK N   1      -2.932   0.574   0.438  0.00  0.00     0.022 C 
BRANCH  30  31
HETATM   31  C   UNK N   1      -4.057   1.049  -0.462  0.00  0.00     0.028 C 
BRANCH  31  32
HETATM   32  C   UNK N   1      -4.943   2.016   0.296  0.00  0.00     0.175 C 
BRANCH  32  33
HETATM   33  O   UNK N   1      -5.007   3.217  -0.377  0.00  0.00    -0.350 OA
BRANCH  33  34
HETATM   34  C   UNK N   1      -6.089   4.031  -0.326  0.00  0.00     0.087 A 
HETATM   35  C   UNK N   1      -5.850   5.408  -0.245  0.00  0.00     0.038 A 
HETATM   36  C   UNK N   1      -6.900   6.309  -0.097  0.00  0.00     0.005 A 
HETATM   37  C   UNK N   1      -8.209   5.844  -0.019  0.00  0.00     0.038 A 
HETATM   38  C   UNK N   1      -8.484   4.479  -0.117  0.00  0.00     0.084 A 
HETATM   39  C   UNK N   1      -7.434   3.546  -0.292  0.00  0.00     0.105 A 
BRANCH  38  40
HETATM   40  O   UNK N   1      -9.766   4.075  -0.077  0.00  0.00    -0.360 OA
HETATM   41  H   UNK N   1     -10.456   4.708  -0.049  0.00  0.00     0.217 HD
ENDBRANCH  38  40
BRANCH  39  42
HETATM   42  C   UNK N   1      -7.763   2.095  -0.461  0.00  0.00     0.298 C 
HETATM   43  O   UNK N   1      -7.027   1.370  -1.116  0.00  0.00    -0.259 OA
BRANCH  42  44
HETATM   44  O   UNK N   1      -8.895   1.585   0.079  0.00  0.00    -0.322 OA
HETATM   45  C   UNK N   1      -9.159   0.234   0.068  0.00  0.00     0.213 C 
ENDBRANCH  42  44
ENDBRANCH  39  42
ENDBRANCH  33  34
ENDBRANCH  32  33
ENDBRANCH  31  32
ENDBRANCH  30  31
ENDBRANCH  29  30
ENDBRANCH  27  29
BRANCH  26  46
HETATM   46  O   UNK N   1      -2.939   4.961   1.784  0.00  0.00    -0.348 OA
HETATM   47  H   UNK N   1      -2.584   5.641   2.323  0.00  0.00     0.219 HD
ENDBRANCH  26  46
ENDBRANCH   1  26
BRANCH   1  48
HETATM   48  N   UNK N   1      -0.994   3.564  -1.089  0.00  0.00    -0.338 N 
HETATM   49  C   UNK N   1       0.176   3.010  -1.090  0.00  0.00     0.259 C 
ATOM     50  HN  UNK N   1      -1.648   3.315  -1.831  1.00  0.00     0.164 HD
BRANCH  49  51
HETATM   51  O   UNK N   1       0.515   2.185  -2.101  0.00  0.00    -0.327 OA
HETATM   52  H   UNK N   1       0.136   1.694  -2.804  0.00  0.00     0.221 HD
ENDBRANCH  49  51
BRANCH  49  53
HETATM   53  O   UNK N   1       1.037   3.215  -0.058  0.00  0.00    -0.313 OA
BRANCH  53  54
HETATM   54  C   UNK N   1       2.252   2.571   0.061  0.00  0.00     0.206 C 
BRANCH  54  55
HETATM   55  C   UNK N   1       2.130   1.115   0.441  0.00  0.00    -0.011 C 
HETATM   56  C   UNK N   1       0.962   0.489   0.587  0.00  0.00     0.009 C 
ENDBRANCH  54  55
ENDBRANCH  53  54
ENDBRANCH  49  53
ENDBRANCH   1  48
TORSDOF 24
