MODEL 1
REMARK VINA RESULT:      -8.7      0.000      0.000
REMARK  13 active torsions:
REMARK  status: ('A' for Active; 'I' for Inactive)
REMARK    1  A    between atoms: C_19  and  C_15 
REMARK    2  A    between atoms: C_24  and  C_15 
REMARK    3  A    between atoms: C_23  and  C_17 
REMARK    4  A    between atoms: N_29  and  C_17 
REMARK    5  A    between atoms: C_23  and  C_18 
REMARK    6  A    between atoms: N_31  and  C_18 
REMARK    7  A    between atoms: C_21  and  C_20 
REMARK    8  A    between atoms: C_24  and  C_22 
REMARK    9  A    between atoms: C_23  and  O_32 
REMARK   10  A    between atoms: C_24  and  C_26 
REMARK   11  A    between atoms: S_36  and  C_25 
REMARK   12  A    between atoms: O_33  and  C_26 
REMARK   13  A    between atoms: S_36  and  N_31 
ROOT
HETATM    1  C   UNK N   1      35.981  13.455  13.895  0.00  0.00     0.120 C 
HETATM    2  N   UNK N   1      36.615  13.982  12.910  0.00  0.00    -0.371 N 
ATOM      3  HN  UNK N   1      37.542  14.370  13.087  1.00  0.00     0.161 HD
ENDROOT
BRANCH   1   4
HETATM    4  C   UNK N   1      36.678  13.286  15.243  0.00  0.00     0.093 C 
BRANCH   4   5
HETATM    5  C   UNK N   1      36.033  14.201  16.298  0.00  0.00     0.021 C 
BRANCH   5   6
HETATM    6  C   UNK N   1      37.011  15.179  16.966  0.00  0.00    -0.022 C 
HETATM    7  C   UNK N   1      36.300  15.908  18.085  0.00  0.00     0.009 C 
HETATM    8  C   UNK N   1      37.598  16.207  16.014  0.00  0.00     0.009 C 
ENDBRANCH   5   6
ENDBRANCH   4   5
BRANCH   4   9
HETATM    9  C   UNK N   1      36.634  11.830  15.711  0.00  0.00    -0.045 A 
HETATM   10  C   UNK N   1      37.199  10.806  14.933  0.00  0.00     0.008 A 
HETATM   11  C   UNK N   1      37.107   9.470  15.350  0.00  0.00     0.001 A 
HETATM   12  C   UNK N   1      36.411   9.139  16.521  0.00  0.00     0.012 A 
HETATM   13  C   UNK N   1      35.820  10.146  17.296  0.00  0.00    -0.025 A 
HETATM   14  C   UNK N   1      35.956  11.473  16.886  0.00  0.00     0.020 A 
BRANCH  13  15
HETATM   15  C   UNK N   1      35.000   9.835  18.496  0.00  0.00    -0.026 A 
HETATM   16  C   UNK N   1      35.127  10.619  19.656  0.00  0.00     0.012 A 
HETATM   17  C   UNK N   1      34.340  10.368  20.780  0.00  0.00     0.001 A 
HETATM   18  C   UNK N   1      33.406   9.332  20.757  0.00  0.00     0.000 A 
HETATM   19  C   UNK N   1      33.264   8.547  19.608  0.00  0.00     0.001 A 
HETATM   20  C   UNK N   1      34.056   8.797  18.480  0.00  0.00     0.012 A 
ENDBRANCH  13  15
ENDBRANCH   4   9
ENDBRANCH   1   4
BRANCH   1  21
HETATM   21  O   UNK N   1      34.727  12.972  13.720  0.00  0.00    -0.349 OA
HETATM   22  H   UNK N   1      34.082  12.923  13.042  0.00  0.00     0.219 HD
ENDBRANCH   1  21
BRANCH   2  23
HETATM   23  C   UNK N   1      36.090  14.056  11.559  0.00  0.00     0.154 C 
BRANCH  23  24
HETATM   24  C   UNK N   1      35.078  15.206  11.389  0.00  0.00     0.154 C 
BRANCH  24  25
HETATM   25  C   UNK N   1      35.269  15.893  10.052  0.00  0.00     0.165 C 
BRANCH  25  26
HETATM   26  N   UNK N   1      34.771  17.258  10.088  0.00  0.00    -0.312 N 
HETATM   27  H   UNK N   1      34.748  17.867  10.906  0.00  0.00     0.172 HD
BRANCH  26  28
HETATM   28  S   UNK N   1      34.217  17.675   8.462  0.00  0.00     0.274 S 
HETATM   29  O   UNK N   1      35.064  16.798   7.527  0.00  0.00    -0.199 OA
HETATM   30  O   UNK N   1      34.797  19.072   8.202  0.00  0.00    -0.199 OA
BRANCH  28  31
HETATM   31  C   UNK N   1      32.466  17.595   8.080  0.00  0.00     0.148 A 
HETATM   32  C   UNK N   1      32.047  17.181   6.815  0.00  0.00     0.043 A 
HETATM   33  C   UNK N   1      30.682  17.134   6.527  0.00  0.00     0.004 A 
HETATM   34  C   UNK N   1      29.754  17.498   7.504  0.00  0.00     0.017 A 
HETATM   35  C   UNK N   1      30.209  17.909   8.757  0.00  0.00     0.089 A 
HETATM   36  N   UNK N   1      31.543  17.952   9.017  0.00  0.00    -0.355 N 
ATOM     37  HN  UNK N   1      31.861  18.261   9.935  1.00  0.00     0.166 HD
ENDBRANCH  28  31
ENDBRANCH  26  28
ENDBRANCH  25  26
ENDBRANCH  24  25
BRANCH  24  38
HETATM   38  O   UNK N   1      33.760  14.758  11.487  0.00  0.00    -0.392 OA
HETATM   39  H   UNK N   1      33.205  14.497  10.736  0.00  0.00     0.210 HD
ENDBRANCH  24  38
ENDBRANCH  23  24
ENDBRANCH   2  23
TORSDOF 13
ENDMDL
MODEL 2
REMARK VINA RESULT:      -8.3      2.139      3.839
REMARK  13 active torsions:
REMARK  status: ('A' for Active; 'I' for Inactive)
REMARK    1  A    between atoms: C_19  and  C_15 
REMARK    2  A    between atoms: C_24  and  C_15 
REMARK    3  A    between atoms: C_23  and  C_17 
REMARK    4  A    between atoms: N_29  and  C_17 
REMARK    5  A    between atoms: C_23  and  C_18 
REMARK    6  A    between atoms: N_31  and  C_18 
REMARK    7  A    between atoms: C_21  and  C_20 
REMARK    8  A    between atoms: C_24  and  C_22 
REMARK    9  A    between atoms: C_23  and  O_32 
REMARK   10  A    between atoms: C_24  and  C_26 
REMARK   11  A    between atoms: S_36  and  C_25 
REMARK   12  A    between atoms: O_33  and  C_26 
REMARK   13  A    between atoms: S_36  and  N_31 
ROOT
HETATM    1  C   UNK N   1      35.125  14.281  11.514  0.00  0.00     0.120 C 
HETATM    2  N   UNK N   1      35.808  15.331  11.228  0.00  0.00    -0.371 N 
ATOM      3  HN  UNK N   1      36.823  15.240  11.161  1.00  0.00     0.161 HD
ENDROOT
BRANCH   1   4
HETATM    4  C   UNK N   1      35.816  12.922  11.591  0.00  0.00     0.093 C 
BRANCH   4   5
HETATM    5  C   UNK N   1      37.322  13.102  11.845  0.00  0.00     0.021 C 
BRANCH   5   6
HETATM    6  C   UNK N   1      38.220  12.511  10.747  0.00  0.00    -0.022 C 
HETATM    7  C   UNK N   1      38.677  13.622   9.827  0.00  0.00     0.009 C 
HETATM    8  C   UNK N   1      37.544  11.438   9.912  0.00  0.00     0.009 C 
ENDBRANCH   5   6
ENDBRANCH   4   5
BRANCH   4   9
HETATM    9  C   UNK N   1      35.198  12.048  12.685  0.00  0.00    -0.045 A 
HETATM   10  C   UNK N   1      34.348  10.979  12.357  0.00  0.00     0.008 A 
HETATM   11  C   UNK N   1      33.749  10.218  13.371  0.00  0.00     0.001 A 
HETATM   12  C   UNK N   1      33.954  10.543  14.719  0.00  0.00     0.012 A 
HETATM   13  C   UNK N   1      34.780  11.622  15.063  0.00  0.00    -0.025 A 
HETATM   14  C   UNK N   1      35.399  12.345  14.041  0.00  0.00     0.020 A 
BRANCH  13  15
HETATM   15  C   UNK N   1      34.957  12.058  16.472  0.00  0.00    -0.026 A 
HETATM   16  C   UNK N   1      35.180  11.103  17.480  0.00  0.00     0.012 A 
HETATM   17  C   UNK N   1      35.387  11.493  18.804  0.00  0.00     0.001 A 
HETATM   18  C   UNK N   1      35.380  12.847  19.138  0.00  0.00     0.000 A 
HETATM   19  C   UNK N   1      35.165  13.810  18.146  0.00  0.00     0.001 A 
HETATM   20  C   UNK N   1      34.956  13.418  16.817  0.00  0.00     0.012 A 
ENDBRANCH  13  15
ENDBRANCH   4   9
ENDBRANCH   1   4
BRANCH   1  21
HETATM   21  O   UNK N   1      33.780  14.363  11.664  0.00  0.00    -0.349 OA
HETATM   22  H   UNK N   1      33.151  14.941  12.047  0.00  0.00     0.219 HD
ENDBRANCH   1  21
BRANCH   2  23
HETATM   23  C   UNK N   1      35.222  16.637  10.994  0.00  0.00     0.154 C 
BRANCH  23  24
HETATM   24  C   UNK N   1      35.136  16.977   9.493  0.00  0.00     0.154 C 
BRANCH  24  25
HETATM   25  C   UNK N   1      33.799  16.547   8.924  0.00  0.00     0.165 C 
BRANCH  25  26
HETATM   26  N   UNK N   1      33.973  15.754   7.718  0.00  0.00    -0.312 N 
HETATM   27  H   UNK N   1      34.323  14.797   7.674  0.00  0.00     0.172 HD
BRANCH  26  28
HETATM   28  S   UNK N   1      33.468  16.744   6.343  0.00  0.00     0.274 S 
HETATM   29  O   UNK N   1      34.112  16.069   5.122  0.00  0.00    -0.199 OA
HETATM   30  O   UNK N   1      34.295  18.031   6.468  0.00  0.00    -0.199 OA
BRANCH  28  31
HETATM   31  C   UNK N   1      31.724  17.089   6.098  0.00  0.00     0.148 A 
HETATM   32  C   UNK N   1      31.240  17.353   4.816  0.00  0.00     0.043 A 
HETATM   33  C   UNK N   1      29.884  17.631   4.641  0.00  0.00     0.004 A 
HETATM   34  C   UNK N   1      29.029  17.638   5.744  0.00  0.00     0.017 A 
HETATM   35  C   UNK N   1      29.549  17.372   7.011  0.00  0.00     0.089 A 
HETATM   36  N   UNK N   1      30.874  17.108   7.162  0.00  0.00    -0.355 N 
ATOM     37  HN  UNK N   1      31.241  16.921   8.095  1.00  0.00     0.166 HD
ENDBRANCH  28  31
ENDBRANCH  26  28
ENDBRANCH  25  26
ENDBRANCH  24  25
BRANCH  24  38
HETATM   38  O   UNK N   1      35.314  18.340   9.257  0.00  0.00    -0.392 OA
HETATM   39  H   UNK N   1      35.463  19.009   9.944  0.00  0.00     0.210 HD
ENDBRANCH  24  38
ENDBRANCH  23  24
ENDBRANCH   2  23
TORSDOF 13
ENDMDL
MODEL 3
REMARK VINA RESULT:      -8.3      2.509      4.295
REMARK  13 active torsions:
REMARK  status: ('A' for Active; 'I' for Inactive)
REMARK    1  A    between atoms: C_19  and  C_15 
REMARK    2  A    between atoms: C_24  and  C_15 
REMARK    3  A    between atoms: C_23  and  C_17 
REMARK    4  A    between atoms: N_29  and  C_17 
REMARK    5  A    between atoms: C_23  and  C_18 
REMARK    6  A    between atoms: N_31  and  C_18 
REMARK    7  A    between atoms: C_21  and  C_20 
REMARK    8  A    between atoms: C_24  and  C_22 
REMARK    9  A    between atoms: C_23  and  O_32 
REMARK   10  A    between atoms: C_24  and  C_26 
REMARK   11  A    between atoms: S_36  and  C_25 
REMARK   12  A    between atoms: O_33  and  C_26 
REMARK   13  A    between atoms: S_36  and  N_31 
ROOT
HETATM    1  C   UNK N   1      36.245  12.145  10.785  0.00  0.00     0.120 C 
HETATM    2  N   UNK N   1      35.125  12.717  10.523  0.00  0.00    -0.371 N 
ATOM      3  HN  UNK N   1      34.268  12.261  10.837  1.00  0.00     0.161 HD
ENDROOT
BRANCH   1   4
HETATM    4  C   UNK N   1      36.276  10.907  11.677  0.00  0.00     0.093 C 
BRANCH   4   5
HETATM    5  C   UNK N   1      37.728  10.498  11.976  0.00  0.00     0.021 C 
BRANCH   5   6
HETATM    6  C   UNK N   1      37.885   9.052  12.473  0.00  0.00    -0.022 C 
HETATM    7  C   UNK N   1      38.373   9.068  13.904  0.00  0.00     0.009 C 
HETATM    8  C   UNK N   1      38.846   8.219  11.643  0.00  0.00     0.009 C 
ENDBRANCH   5   6
ENDBRANCH   4   5
BRANCH   4   9
HETATM    9  C   UNK N   1      35.516  11.146  12.984  0.00  0.00    -0.045 A 
HETATM   10  C   UNK N   1      34.309  10.479  13.247  0.00  0.00     0.008 A 
HETATM   11  C   UNK N   1      33.598  10.747  14.426  0.00  0.00     0.001 A 
HETATM   12  C   UNK N   1      34.059  11.714  15.330  0.00  0.00     0.012 A 
HETATM   13  C   UNK N   1      35.250  12.406  15.070  0.00  0.00    -0.025 A 
HETATM   14  C   UNK N   1      35.964  12.099  13.911  0.00  0.00     0.020 A 
BRANCH  13  15
HETATM   15  C   UNK N   1      35.731  13.500  15.953  0.00  0.00    -0.026 A 
HETATM   16  C   UNK N   1      35.172  13.668  17.233  0.00  0.00     0.012 A 
HETATM   17  C   UNK N   1      35.635  14.664  18.093  0.00  0.00     0.001 A 
HETATM   18  C   UNK N   1      36.673  15.503  17.687  0.00  0.00     0.000 A 
HETATM   19  C   UNK N   1      37.243  15.346  16.420  0.00  0.00     0.001 A 
HETATM   20  C   UNK N   1      36.777  14.347  15.556  0.00  0.00     0.012 A 
ENDBRANCH  13  15
ENDBRANCH   4   9
ENDBRANCH   1   4
BRANCH   1  21
HETATM   21  O   UNK N   1      37.407  12.686  10.343  0.00  0.00    -0.349 OA
HETATM   22  H   UNK N   1      38.302  12.435  10.235  0.00  0.00     0.219 HD
ENDBRANCH   1  21
BRANCH   2  23
HETATM   23  C   UNK N   1      35.007  13.972   9.805  0.00  0.00     0.154 C 
BRANCH  23  24
HETATM   24  C   UNK N   1      34.475  15.108  10.702  0.00  0.00     0.154 C 
BRANCH  24  25
HETATM   25  C   UNK N   1      34.711  16.456  10.052  0.00  0.00     0.165 C 
BRANCH  25  26
HETATM   26  N   UNK N   1      34.954  16.314   8.625  0.00  0.00    -0.312 N 
HETATM   27  H   UNK N   1      35.538  15.604   8.183  0.00  0.00     0.172 HD
BRANCH  26  28
HETATM   28  S   UNK N   1      34.056  17.591   7.794  0.00  0.00     0.274 S 
HETATM   29  O   UNK N   1      34.572  17.549   6.348  0.00  0.00    -0.199 OA
HETATM   30  O   UNK N   1      34.670  18.898   8.315  0.00  0.00    -0.199 OA
BRANCH  28  31
HETATM   31  C   UNK N   1      32.264  17.610   7.885  0.00  0.00     0.148 A 
HETATM   32  C   UNK N   1      31.509  17.071   6.842  0.00  0.00     0.043 A 
HETATM   33  C   UNK N   1      30.115  17.102   6.920  0.00  0.00     0.004 A 
HETATM   34  C   UNK N   1      29.496  17.667   8.036  0.00  0.00     0.017 A 
HETATM   35  C   UNK N   1      30.283  18.197   9.058  0.00  0.00     0.089 A 
HETATM   36  N   UNK N   1      31.639  18.162   8.961  0.00  0.00    -0.355 N 
ATOM     37  HN  UNK N   1      32.201  18.559   9.713  1.00  0.00     0.166 HD
ENDBRANCH  28  31
ENDBRANCH  26  28
ENDBRANCH  25  26
ENDBRANCH  24  25
BRANCH  24  38
HETATM   38  O   UNK N   1      33.114  14.964  10.970  0.00  0.00    -0.392 OA
HETATM   39  H   UNK N   1      32.687  15.180  11.814  0.00  0.00     0.210 HD
ENDBRANCH  24  38
ENDBRANCH  23  24
ENDBRANCH   2  23
TORSDOF 13
ENDMDL
MODEL 4
REMARK VINA RESULT:      -8.2      2.481      3.908
REMARK  13 active torsions:
REMARK  status: ('A' for Active; 'I' for Inactive)
REMARK    1  A    between atoms: C_19  and  C_15 
REMARK    2  A    between atoms: C_24  and  C_15 
REMARK    3  A    between atoms: C_23  and  C_17 
REMARK    4  A    between atoms: N_29  and  C_17 
REMARK    5  A    between atoms: C_23  and  C_18 
REMARK    6  A    between atoms: N_31  and  C_18 
REMARK    7  A    between atoms: C_21  and  C_20 
REMARK    8  A    between atoms: C_24  and  C_22 
REMARK    9  A    between atoms: C_23  and  O_32 
REMARK   10  A    between atoms: C_24  and  C_26 
REMARK   11  A    between atoms: S_36  and  C_25 
REMARK   12  A    between atoms: O_33  and  C_26 
REMARK   13  A    between atoms: S_36  and  N_31 
ROOT
HETATM    1  C   UNK N   1      35.167  11.426  11.891  0.00  0.00     0.120 C 
HETATM    2  N   UNK N   1      34.736  12.608  11.631  0.00  0.00    -0.371 N 
ATOM      3  HN  UNK N   1      33.748  12.807  11.795  1.00  0.00     0.161 HD
ENDROOT
BRANCH   1   4
HETATM    4  C   UNK N   1      34.247  10.415  12.572  0.00  0.00     0.093 C 
BRANCH   4   5
HETATM    5  C   UNK N   1      33.949   9.241  11.625  0.00  0.00     0.021 C 
BRANCH   5   6
HETATM    6  C   UNK N   1      33.133   9.626  10.382  0.00  0.00    -0.022 C 
HETATM    7  C   UNK N   1      32.077   8.571  10.132  0.00  0.00     0.009 C 
HETATM    8  C   UNK N   1      33.968   9.783   9.122  0.00  0.00     0.009 C 
ENDBRANCH   5   6
ENDBRANCH   4   5
BRANCH   4   9
HETATM    9  C   UNK N   1      34.860   9.898  13.875  0.00  0.00    -0.045 A 
HETATM   10  C   UNK N   1      35.289   8.566  13.990  0.00  0.00     0.008 A 
HETATM   11  C   UNK N   1      35.802   8.093  15.207  0.00  0.00     0.001 A 
HETATM   12  C   UNK N   1      35.850   8.929  16.331  0.00  0.00     0.012 A 
HETATM   13  C   UNK N   1      35.403  10.254  16.239  0.00  0.00    -0.025 A 
HETATM   14  C   UNK N   1      34.932  10.719  15.010  0.00  0.00     0.020 A 
BRANCH  13  15
HETATM   15  C   UNK N   1      35.352  11.150  17.424  0.00  0.00    -0.026 A 
HETATM   16  C   UNK N   1      35.238  12.541  17.249  0.00  0.00     0.012 A 
HETATM   17  C   UNK N   1      35.151  13.397  18.348  0.00  0.00     0.001 A 
HETATM   18  C   UNK N   1      35.168  12.872  19.640  0.00  0.00     0.000 A 
HETATM   19  C   UNK N   1      35.276  11.490  19.830  0.00  0.00     0.001 A 
HETATM   20  C   UNK N   1      35.366  10.631  18.728  0.00  0.00     0.012 A 
ENDBRANCH  13  15
ENDBRANCH   4   9
ENDBRANCH   1   4
BRANCH   1  21
HETATM   21  O   UNK N   1      36.458  11.101  11.641  0.00  0.00    -0.349 OA
HETATM   22  H   UNK N   1      37.073  11.160  10.937  0.00  0.00     0.219 HD
ENDBRANCH   1  21
BRANCH   2  23
HETATM   23  C   UNK N   1      35.571  13.678  11.117  0.00  0.00     0.154 C 
BRANCH  23  24
HETATM   24  C   UNK N   1      34.870  15.048  11.185  0.00  0.00     0.154 C 
BRANCH  24  25
HETATM   25  C   UNK N   1      35.292  15.922  10.021  0.00  0.00     0.165 C 
BRANCH  25  26
HETATM   26  N   UNK N   1      34.659  17.229  10.091  0.00  0.00    -0.312 N 
HETATM   27  H   UNK N   1      34.547  17.798  10.931  0.00  0.00     0.172 HD
BRANCH  26  28
HETATM   28  S   UNK N   1      34.123  17.659   8.462  0.00  0.00     0.274 S 
HETATM   29  O   UNK N   1      35.009  16.820   7.528  0.00  0.00    -0.199 OA
HETATM   30  O   UNK N   1      34.671  19.074   8.235  0.00  0.00    -0.199 OA
BRANCH  28  31
HETATM   31  C   UNK N   1      32.381  17.540   8.047  0.00  0.00     0.148 A 
HETATM   32  C   UNK N   1      31.995  17.261   6.735  0.00  0.00     0.043 A 
HETATM   33  C   UNK N   1      30.637  17.183   6.424  0.00  0.00     0.004 A 
HETATM   34  C   UNK N   1      29.684  17.380   7.424  0.00  0.00     0.017 A 
HETATM   35  C   UNK N   1      30.106  17.659   8.723  0.00  0.00     0.089 A 
HETATM   36  N   UNK N   1      31.434  17.736   9.006  0.00  0.00    -0.355 N 
ATOM     37  HN  UNK N   1      31.728  17.947   9.959  1.00  0.00     0.166 HD
ENDBRANCH  28  31
ENDBRANCH  26  28
ENDBRANCH  25  26
ENDBRANCH  24  25
BRANCH  24  38
HETATM   38  O   UNK N   1      33.480  14.923  11.179  0.00  0.00    -0.392 OA
HETATM   39  H   UNK N   1      32.932  14.777  11.966  0.00  0.00     0.210 HD
ENDBRANCH  24  38
ENDBRANCH  23  24
ENDBRANCH   2  23
TORSDOF 13
ENDMDL
MODEL 5
REMARK VINA RESULT:      -8.1      3.172     11.596
REMARK  13 active torsions:
REMARK  status: ('A' for Active; 'I' for Inactive)
REMARK    1  A    between atoms: C_19  and  C_15 
REMARK    2  A    between atoms: C_24  and  C_15 
REMARK    3  A    between atoms: C_23  and  C_17 
REMARK    4  A    between atoms: N_29  and  C_17 
REMARK    5  A    between atoms: C_23  and  C_18 
REMARK    6  A    between atoms: N_31  and  C_18 
REMARK    7  A    between atoms: C_21  and  C_20 
REMARK    8  A    between atoms: C_24  and  C_22 
REMARK    9  A    between atoms: C_23  and  O_32 
REMARK   10  A    between atoms: C_24  and  C_26 
REMARK   11  A    between atoms: S_36  and  C_25 
REMARK   12  A    between atoms: O_33  and  C_26 
REMARK   13  A    between atoms: S_36  and  N_31 
ROOT
HETATM    1  C   UNK N   1      33.268  17.235   8.609  0.00  0.00     0.120 C 
HETATM    2  N   UNK N   1      33.932  16.635   9.531  0.00  0.00    -0.371 N 
ATOM      3  HN  UNK N   1      33.605  15.719   9.839  1.00  0.00     0.161 HD
ENDROOT
BRANCH   1   4
HETATM    4  C   UNK N   1      32.124  16.512   7.903  0.00  0.00     0.093 C 
BRANCH   4   5
HETATM    5  C   UNK N   1      32.125  15.019   8.274  0.00  0.00     0.021 C 
BRANCH   5   6
HETATM    6  C   UNK N   1      32.365  14.076   7.085  0.00  0.00    -0.022 C 
HETATM    7  C   UNK N   1      33.831  14.105   6.714  0.00  0.00     0.009 C 
HETATM    8  C   UNK N   1      31.547  14.421   5.852  0.00  0.00     0.009 C 
ENDBRANCH   5   6
ENDBRANCH   4   5
BRANCH   4   9
HETATM    9  C   UNK N   1      30.773  17.140   8.252  0.00  0.00    -0.045 A 
HETATM   10  C   UNK N   1      30.174  16.912   9.501  0.00  0.00     0.008 A 
HETATM   11  C   UNK N   1      28.912  17.453   9.788  0.00  0.00     0.001 A 
HETATM   12  C   UNK N   1      28.217  18.187   8.817  0.00  0.00     0.012 A 
HETATM   13  C   UNK N   1      28.790  18.403   7.556  0.00  0.00    -0.025 A 
HETATM   14  C   UNK N   1      30.063  17.890   7.302  0.00  0.00     0.020 A 
BRANCH  13  15
HETATM   15  C   UNK N   1      28.055  19.098   6.467  0.00  0.00    -0.026 A 
HETATM   16  C   UNK N   1      27.358  20.289   6.740  0.00  0.00     0.012 A 
HETATM   17  C   UNK N   1      26.693  20.978   5.725  0.00  0.00     0.001 A 
HETATM   18  C   UNK N   1      26.723  20.489   4.419  0.00  0.00     0.000 A 
HETATM   19  C   UNK N   1      27.416  19.309   4.131  0.00  0.00     0.001 A 
HETATM   20  C   UNK N   1      28.082  18.616   5.150  0.00  0.00     0.012 A 
ENDBRANCH  13  15
ENDBRANCH   4   9
ENDBRANCH   1   4
BRANCH   1  21
HETATM   21  O   UNK N   1      33.634  18.476   8.203  0.00  0.00    -0.349 OA
HETATM   22  H   UNK N   1      33.266  19.335   8.153  0.00  0.00     0.219 HD
ENDBRANCH   1  21
BRANCH   2  23
HETATM   23  C   UNK N   1      35.119  17.183  10.159  0.00  0.00     0.154 C 
BRANCH  23  24
HETATM   24  C   UNK N   1      35.761  16.196  11.154  0.00  0.00     0.154 C 
BRANCH  24  25
HETATM   25  C   UNK N   1      34.955  14.915  11.230  0.00  0.00     0.165 C 
BRANCH  25  26
HETATM   26  N   UNK N   1      35.596  13.848  10.478  0.00  0.00    -0.312 N 
HETATM   27  H   UNK N   1      35.579  13.733   9.465  0.00  0.00     0.172 HD
BRANCH  26  28
HETATM   28  S   UNK N   1      36.412  12.788  11.635  0.00  0.00     0.274 S 
HETATM   29  O   UNK N   1      37.904  12.912  11.290  0.00  0.00    -0.199 OA
HETATM   30  O   UNK N   1      36.090  11.367  11.150  0.00  0.00    -0.199 OA
BRANCH  28  31
HETATM   31  C   UNK N   1      36.092  12.985  13.389  0.00  0.00     0.148 A 
HETATM   32  C   UNK N   1      34.983  12.367  13.969  0.00  0.00     0.043 A 
HETATM   33  C   UNK N   1      34.740  12.538  15.333  0.00  0.00     0.004 A 
HETATM   34  C   UNK N   1      35.606  13.320  16.099  0.00  0.00     0.017 A 
HETATM   35  C   UNK N   1      36.703  13.924  15.486  0.00  0.00     0.089 A 
HETATM   36  N   UNK N   1      36.921  13.749  14.155  0.00  0.00    -0.355 N 
ATOM     37  HN  UNK N   1      37.723  14.202  13.718  1.00  0.00     0.166 HD
ENDBRANCH  28  31
ENDBRANCH  26  28
ENDBRANCH  25  26
ENDBRANCH  24  25
BRANCH  24  38
HETATM   38  O   UNK N   1      37.076  15.887  10.805  0.00  0.00    -0.392 OA
HETATM   39  H   UNK N   1      37.811  15.795  11.432  0.00  0.00     0.210 HD
ENDBRANCH  24  38
ENDBRANCH  23  24
ENDBRANCH   2  23
TORSDOF 13
ENDMDL
MODEL 6
REMARK VINA RESULT:      -8.1      2.703     12.020
REMARK  13 active torsions:
REMARK  status: ('A' for Active; 'I' for Inactive)
REMARK    1  A    between atoms: C_19  and  C_15 
REMARK    2  A    between atoms: C_24  and  C_15 
REMARK    3  A    between atoms: C_23  and  C_17 
REMARK    4  A    between atoms: N_29  and  C_17 
REMARK    5  A    between atoms: C_23  and  C_18 
REMARK    6  A    between atoms: N_31  and  C_18 
REMARK    7  A    between atoms: C_21  and  C_20 
REMARK    8  A    between atoms: C_24  and  C_22 
REMARK    9  A    between atoms: C_23  and  O_32 
REMARK   10  A    between atoms: C_24  and  C_26 
REMARK   11  A    between atoms: S_36  and  C_25 
REMARK   12  A    between atoms: O_33  and  C_26 
REMARK   13  A    between atoms: S_36  and  N_31 
ROOT
HETATM    1  C   UNK N   1      32.692  15.522   8.997  0.00  0.00     0.120 C 
HETATM    2  N   UNK N   1      33.600  15.917   9.814  0.00  0.00    -0.371 N 
ATOM      3  HN  UNK N   1      34.042  16.821   9.642  1.00  0.00     0.161 HD
ENDROOT
BRANCH   1   4
HETATM    4  C   UNK N   1      32.195  16.462   7.901  0.00  0.00     0.093 C 
BRANCH   4   5
HETATM    5  C   UNK N   1      32.068  15.709   6.567  0.00  0.00     0.021 C 
BRANCH   5   6
HETATM    6  C   UNK N   1      32.847  16.347   5.407  0.00  0.00    -0.022 C 
HETATM    7  C   UNK N   1      33.766  17.418   5.953  0.00  0.00     0.009 C 
HETATM    8  C   UNK N   1      31.961  16.969   4.340  0.00  0.00     0.009 C 
ENDBRANCH   5   6
ENDBRANCH   4   5
BRANCH   4   9
HETATM    9  C   UNK N   1      30.853  17.093   8.280  0.00  0.00    -0.045 A 
HETATM   10  C   UNK N   1      30.260  16.831   9.526  0.00  0.00     0.008 A 
HETATM   11  C   UNK N   1      29.006  17.376   9.839  0.00  0.00     0.001 A 
HETATM   12  C   UNK N   1      28.312  18.148   8.896  0.00  0.00     0.012 A 
HETATM   13  C   UNK N   1      28.879  18.398   7.639  0.00  0.00    -0.025 A 
HETATM   14  C   UNK N   1      30.145  17.880   7.359  0.00  0.00     0.020 A 
BRANCH  13  15
HETATM   15  C   UNK N   1      28.144  19.136   6.578  0.00  0.00    -0.026 A 
HETATM   16  C   UNK N   1      28.179  18.674   5.250  0.00  0.00     0.012 A 
HETATM   17  C   UNK N   1      27.465  19.329   4.246  0.00  0.00     0.001 A 
HETATM   18  C   UNK N   1      26.699  20.452   4.558  0.00  0.00     0.000 A 
HETATM   19  C   UNK N   1      26.650  20.920   5.875  0.00  0.00     0.001 A 
HETATM   20  C   UNK N   1      27.368  20.264   6.883  0.00  0.00     0.012 A 
ENDBRANCH  13  15
ENDBRANCH   4   9
ENDBRANCH   1   4
BRANCH   1  21
HETATM   21  O   UNK N   1      32.114  14.306   9.156  0.00  0.00    -0.349 OA
HETATM   22  H   UNK N   1      31.264  13.918   9.086  0.00  0.00     0.219 HD
ENDBRANCH   1  21
BRANCH   2  23
HETATM   23  C   UNK N   1      34.036  15.153  10.969  0.00  0.00     0.154 C 
BRANCH  23  24
HETATM   24  C   UNK N   1      35.323  15.725  11.594  0.00  0.00     0.154 C 
BRANCH  24  25
HETATM   25  C   UNK N   1      36.232  14.607  12.063  0.00  0.00     0.165 C 
BRANCH  25  26
HETATM   26  N   UNK N   1      36.350  14.601  13.512  0.00  0.00    -0.312 N 
HETATM   27  H   UNK N   1      36.655  15.382  14.093  0.00  0.00     0.172 HD
BRANCH  26  28
HETATM   28  S   UNK N   1      35.869  13.000  14.088  0.00  0.00     0.274 S 
HETATM   29  O   UNK N   1      36.898  12.041  13.470  0.00  0.00    -0.199 OA
HETATM   30  O   UNK N   1      34.602  12.666  13.288  0.00  0.00    -0.199 OA
BRANCH  28  31
HETATM   31  C   UNK N   1      35.643  12.727  15.847  0.00  0.00     0.148 A 
HETATM   32  C   UNK N   1      35.400  13.809  16.694  0.00  0.00     0.043 A 
HETATM   33  C   UNK N   1      35.237  13.584  18.062  0.00  0.00     0.004 A 
HETATM   34  C   UNK N   1      35.316  12.285  18.565  0.00  0.00     0.017 A 
HETATM   35  C   UNK N   1      35.562  11.227  17.689  0.00  0.00     0.089 A 
HETATM   36  N   UNK N   1      35.723  11.468  16.360  0.00  0.00    -0.355 N 
ATOM     37  HN  UNK N   1      35.908  10.686  15.732  1.00  0.00     0.166 HD
ENDBRANCH  28  31
ENDBRANCH  26  28
ENDBRANCH  25  26
ENDBRANCH  24  25
BRANCH  24  38
HETATM   38  O   UNK N   1      36.022  16.534  10.698  0.00  0.00    -0.392 OA
HETATM   39  H   UNK N   1      35.789  17.449  10.476  0.00  0.00     0.210 HD
ENDBRANCH  24  38
ENDBRANCH  23  24
ENDBRANCH   2  23
TORSDOF 13
ENDMDL
MODEL 7
REMARK VINA RESULT:      -7.9     18.982     23.245
REMARK  13 active torsions:
REMARK  status: ('A' for Active; 'I' for Inactive)
REMARK    1  A    between atoms: C_19  and  C_15 
REMARK    2  A    between atoms: C_24  and  C_15 
REMARK    3  A    between atoms: C_23  and  C_17 
REMARK    4  A    between atoms: N_29  and  C_17 
REMARK    5  A    between atoms: C_23  and  C_18 
REMARK    6  A    between atoms: N_31  and  C_18 
REMARK    7  A    between atoms: C_21  and  C_20 
REMARK    8  A    between atoms: C_24  and  C_22 
REMARK    9  A    between atoms: C_23  and  O_32 
REMARK   10  A    between atoms: C_24  and  C_26 
REMARK   11  A    between atoms: S_36  and  C_25 
REMARK   12  A    between atoms: O_33  and  C_26 
REMARK   13  A    between atoms: S_36  and  N_31 
ROOT
HETATM    1  C   UNK N   1      27.103  24.193  -4.342  0.00  0.00     0.120 C 
HETATM    2  N   UNK N   1      28.374  24.313  -4.199  0.00  0.00    -0.371 N 
ATOM      3  HN  UNK N   1      28.939  24.477  -5.033  1.00  0.00     0.161 HD
ENDROOT
BRANCH   1   4
HETATM    4  C   UNK N   1      26.466  24.447  -5.706  0.00  0.00     0.093 C 
BRANCH   4   5
HETATM    5  C   UNK N   1      27.250  25.525  -6.472  0.00  0.00     0.021 C 
BRANCH   5   6
HETATM    6  C   UNK N   1      26.368  26.595  -7.134  0.00  0.00    -0.022 C 
HETATM    7  C   UNK N   1      25.187  26.892  -6.236  0.00  0.00     0.009 C 
HETATM    8  C   UNK N   1      25.846  26.199  -8.504  0.00  0.00     0.009 C 
ENDBRANCH   5   6
ENDBRANCH   4   5
BRANCH   4   9
HETATM    9  C   UNK N   1      26.394  23.161  -6.532  0.00  0.00    -0.045 A 
HETATM   10  C   UNK N   1      25.160  22.553  -6.813  0.00  0.00     0.008 A 
HETATM   11  C   UNK N   1      25.114  21.347  -7.529  0.00  0.00     0.001 A 
HETATM   12  C   UNK N   1      26.298  20.714  -7.929  0.00  0.00     0.012 A 
HETATM   13  C   UNK N   1      27.539  21.294  -7.636  0.00  0.00    -0.025 A 
HETATM   14  C   UNK N   1      27.565  22.514  -6.957  0.00  0.00     0.020 A 
BRANCH  13  15
HETATM   15  C   UNK N   1      28.821  20.617  -7.962  0.00  0.00    -0.026 A 
HETATM   16  C   UNK N   1      29.766  20.376  -6.949  0.00  0.00     0.012 A 
HETATM   17  C   UNK N   1      30.959  19.708  -7.227  0.00  0.00     0.001 A 
HETATM   18  C   UNK N   1      31.221  19.262  -8.523  0.00  0.00     0.000 A 
HETATM   19  C   UNK N   1      30.288  19.490  -9.540  0.00  0.00     0.001 A 
HETATM   20  C   UNK N   1      29.091  20.162  -9.262  0.00  0.00     0.012 A 
ENDBRANCH  13  15
ENDBRANCH   4   9
ENDBRANCH   1   4
BRANCH   1  21
HETATM   21  O   UNK N   1      26.319  23.924  -3.270  0.00  0.00    -0.349 OA
HETATM   22  H   UNK N   1      25.494  24.194  -2.919  0.00  0.00     0.219 HD
ENDBRANCH   1  21
BRANCH   2  23
HETATM   23  C   UNK N   1      29.054  24.231  -2.919  0.00  0.00     0.154 C 
BRANCH  23  24
HETATM   24  C   UNK N   1      29.574  22.810  -2.626  0.00  0.00     0.154 C 
BRANCH  24  25
HETATM   25  C   UNK N   1      30.279  22.239  -3.839  0.00  0.00     0.165 C 
BRANCH  25  26
HETATM   26  N   UNK N   1      30.838  20.927  -3.550  0.00  0.00    -0.312 N 
HETATM   27  H   UNK N   1      30.307  20.075  -3.374  0.00  0.00     0.172 HD
BRANCH  26  28
HETATM   28  S   UNK N   1      32.599  21.075  -3.564  0.00  0.00     0.274 S 
HETATM   29  O   UNK N   1      32.981  21.301  -2.093  0.00  0.00    -0.199 OA
HETATM   30  O   UNK N   1      32.868  22.456  -4.178  0.00  0.00    -0.199 OA
BRANCH  28  31
HETATM   31  C   UNK N   1      33.586  19.793  -4.341  0.00  0.00     0.148 A 
HETATM   32  C   UNK N   1      34.127  20.005  -5.610  0.00  0.00     0.043 A 
HETATM   33  C   UNK N   1      34.882  18.995  -6.208  0.00  0.00     0.004 A 
HETATM   34  C   UNK N   1      35.091  17.792  -5.533  0.00  0.00     0.017 A 
HETATM   35  C   UNK N   1      34.533  17.615  -4.267  0.00  0.00     0.089 A 
HETATM   36  N   UNK N   1      33.796  18.608  -3.703  0.00  0.00    -0.355 N 
ATOM     37  HN  UNK N   1      33.389  18.463  -2.779  1.00  0.00     0.166 HD
ENDBRANCH  28  31
ENDBRANCH  26  28
ENDBRANCH  25  26
ENDBRANCH  24  25
BRANCH  24  38
HETATM   38  O   UNK N   1      30.449  22.791  -1.539  0.00  0.00    -0.392 OA
HETATM   39  H   UNK N   1      31.092  22.088  -1.355  0.00  0.00     0.210 HD
ENDBRANCH  24  38
ENDBRANCH  23  24
ENDBRANCH   2  23
TORSDOF 13
ENDMDL
MODEL 8
REMARK VINA RESULT:      -7.8      1.650      3.008
REMARK  13 active torsions:
REMARK  status: ('A' for Active; 'I' for Inactive)
REMARK    1  A    between atoms: C_19  and  C_15 
REMARK    2  A    between atoms: C_24  and  C_15 
REMARK    3  A    between atoms: C_23  and  C_17 
REMARK    4  A    between atoms: N_29  and  C_17 
REMARK    5  A    between atoms: C_23  and  C_18 
REMARK    6  A    between atoms: N_31  and  C_18 
REMARK    7  A    between atoms: C_21  and  C_20 
REMARK    8  A    between atoms: C_24  and  C_22 
REMARK    9  A    between atoms: C_23  and  O_32 
REMARK   10  A    between atoms: C_24  and  C_26 
REMARK   11  A    between atoms: S_36  and  C_25 
REMARK   12  A    between atoms: O_33  and  C_26 
REMARK   13  A    between atoms: S_36  and  N_31 
ROOT
HETATM    1  C   UNK N   1      36.122  13.551  14.251  0.00  0.00     0.120 C 
HETATM    2  N   UNK N   1      35.535  14.055  13.226  0.00  0.00    -0.371 N 
ATOM      3  HN  UNK N   1      34.772  13.527  12.801  1.00  0.00     0.161 HD
ENDROOT
BRANCH   1   4
HETATM    4  C   UNK N   1      35.576  12.276  14.889  0.00  0.00     0.093 C 
BRANCH   4   5
HETATM    5  C   UNK N   1      36.496  11.084  14.576  0.00  0.00     0.021 C 
BRANCH   5   6
HETATM    6  C   UNK N   1      35.777   9.884  13.941  0.00  0.00    -0.022 C 
HETATM    7  C   UNK N   1      34.371  10.292  13.558  0.00  0.00     0.009 C 
HETATM    8  C   UNK N   1      35.698   8.666  14.845  0.00  0.00     0.009 C 
ENDBRANCH   5   6
ENDBRANCH   4   5
BRANCH   4   9
HETATM    9  C   UNK N   1      35.419  12.438  16.403  0.00  0.00    -0.045 A 
HETATM   10  C   UNK N   1      35.286  13.710  16.981  0.00  0.00     0.008 A 
HETATM   11  C   UNK N   1      35.194  13.846  18.374  0.00  0.00     0.001 A 
HETATM   12  C   UNK N   1      35.281  12.720  19.205  0.00  0.00     0.012 A 
HETATM   13  C   UNK N   1      35.439  11.445  18.645  0.00  0.00    -0.025 A 
HETATM   14  C   UNK N   1      35.489  11.325  17.255  0.00  0.00     0.020 A 
BRANCH  13  15
HETATM   15  C   UNK N   1      35.624  10.235  19.487  0.00  0.00    -0.026 A 
HETATM   16  C   UNK N   1      36.503  10.270  20.584  0.00  0.00     0.012 A 
HETATM   17  C   UNK N   1      36.663   9.157  21.410  0.00  0.00     0.001 A 
HETATM   18  C   UNK N   1      35.937   7.993  21.155  0.00  0.00     0.000 A 
HETATM   19  C   UNK N   1      35.055   7.944  20.071  0.00  0.00     0.001 A 
HETATM   20  C   UNK N   1      34.896   9.061  19.240  0.00  0.00     0.012 A 
ENDBRANCH  13  15
ENDBRANCH   4   9
ENDBRANCH   1   4
BRANCH   1  21
HETATM   21  O   UNK N   1      37.173  14.192  14.818  0.00  0.00    -0.349 OA
HETATM   22  H   UNK N   1      37.706  14.945  14.658  0.00  0.00     0.219 HD
ENDBRANCH   1  21
BRANCH   2  23
HETATM   23  C   UNK N   1      35.892  15.333  12.638  0.00  0.00     0.154 C 
BRANCH  23  24
HETATM   24  C   UNK N   1      36.023  15.251  11.104  0.00  0.00     0.154 C 
BRANCH  24  25
HETATM   25  C   UNK N   1      34.845  15.928  10.431  0.00  0.00     0.165 C 
BRANCH  25  26
HETATM   26  N   UNK N   1      34.789  15.595   9.017  0.00  0.00    -0.312 N 
HETATM   27  H   UNK N   1      35.064  14.707   8.597  0.00  0.00     0.172 HD
BRANCH  26  28
HETATM   28  S   UNK N   1      34.154  17.003   8.155  0.00  0.00     0.274 S 
HETATM   29  O   UNK N   1      34.860  16.973   6.791  0.00  0.00    -0.199 OA
HETATM   30  O   UNK N   1      34.824  18.206   8.834  0.00  0.00    -0.199 OA
BRANCH  28  31
HETATM   31  C   UNK N   1      32.379  17.220   8.008  0.00  0.00     0.148 A 
HETATM   32  C   UNK N   1      31.717  16.778   6.861  0.00  0.00     0.043 A 
HETATM   33  C   UNK N   1      30.338  16.963   6.754  0.00  0.00     0.004 A 
HETATM   34  C   UNK N   1      29.638  17.583   7.791  0.00  0.00     0.017 A 
HETATM   35  C   UNK N   1      30.333  18.013   8.921  0.00  0.00     0.089 A 
HETATM   36  N   UNK N   1      31.678  17.828   9.004  0.00  0.00    -0.355 N 
ATOM     37  HN  UNK N   1      32.174  18.154   9.834  1.00  0.00     0.166 HD
ENDBRANCH  28  31
ENDBRANCH  26  28
ENDBRANCH  25  26
ENDBRANCH  24  25
BRANCH  24  38
HETATM   38  O   UNK N   1      37.204  15.838  10.651  0.00  0.00    -0.392 OA
HETATM   39  H   UNK N   1      37.778  16.414  11.181  0.00  0.00     0.210 HD
ENDBRANCH  24  38
ENDBRANCH  23  24
ENDBRANCH   2  23
TORSDOF 13
ENDMDL
MODEL 9
REMARK VINA RESULT:      -7.8      9.074     13.774
REMARK  13 active torsions:
REMARK  status: ('A' for Active; 'I' for Inactive)
REMARK    1  A    between atoms: C_19  and  C_15 
REMARK    2  A    between atoms: C_24  and  C_15 
REMARK    3  A    between atoms: C_23  and  C_17 
REMARK    4  A    between atoms: N_29  and  C_17 
REMARK    5  A    between atoms: C_23  and  C_18 
REMARK    6  A    between atoms: N_31  and  C_18 
REMARK    7  A    between atoms: C_21  and  C_20 
REMARK    8  A    between atoms: C_24  and  C_22 
REMARK    9  A    between atoms: C_23  and  O_32 
REMARK   10  A    between atoms: C_24  and  C_26 
REMARK   11  A    between atoms: S_36  and  C_25 
REMARK   12  A    between atoms: O_33  and  C_26 
REMARK   13  A    between atoms: S_36  and  N_31 
ROOT
HETATM    1  C   UNK N   1      27.534  18.758   4.801  0.00  0.00     0.120 C 
HETATM    2  N   UNK N   1      26.265  18.943   4.884  0.00  0.00    -0.371 N 
ATOM      3  HN  UNK N   1      25.689  18.177   5.233  1.00  0.00     0.161 HD
ENDROOT
BRANCH   1   4
HETATM    4  C   UNK N   1      28.153  17.480   5.360  0.00  0.00     0.093 C 
BRANCH   4   5
HETATM    5  C   UNK N   1      29.210  16.928   4.390  0.00  0.00     0.021 C 
BRANCH   5   6
HETATM    6  C   UNK N   1      28.939  15.494   3.912  0.00  0.00    -0.022 C 
HETATM    7  C   UNK N   1      29.943  14.558   4.548  0.00  0.00     0.009 C 
HETATM    8  C   UNK N   1      29.009  15.325   2.404  0.00  0.00     0.009 C 
ENDBRANCH   5   6
ENDBRANCH   4   5
BRANCH   4   9
HETATM    9  C   UNK N   1      28.776  17.722   6.737  0.00  0.00    -0.045 A 
HETATM   10  C   UNK N   1      28.069  18.410   7.736  0.00  0.00     0.008 A 
HETATM   11  C   UNK N   1      28.671  18.669   8.976  0.00  0.00     0.001 A 
HETATM   12  C   UNK N   1      29.999  18.286   9.214  0.00  0.00     0.012 A 
HETATM   13  C   UNK N   1      30.727  17.620   8.218  0.00  0.00    -0.025 A 
HETATM   14  C   UNK N   1      30.098  17.336   7.005  0.00  0.00     0.020 A 
BRANCH  13  15
HETATM   15  C   UNK N   1      32.161  17.274   8.393  0.00  0.00    -0.026 A 
HETATM   16  C   UNK N   1      32.527  15.971   8.776  0.00  0.00     0.012 A 
HETATM   17  C   UNK N   1      33.870  15.614   8.909  0.00  0.00     0.001 A 
HETATM   18  C   UNK N   1      34.867  16.554   8.652  0.00  0.00     0.000 A 
HETATM   19  C   UNK N   1      34.519  17.853   8.265  0.00  0.00     0.001 A 
HETATM   20  C   UNK N   1      33.172  18.212   8.134  0.00  0.00     0.012 A 
ENDBRANCH  13  15
ENDBRANCH   4   9
ENDBRANCH   1   4
BRANCH   1  21
HETATM   21  O   UNK N   1      28.333  19.729   4.296  0.00  0.00    -0.349 OA
HETATM   22  H   UNK N   1      28.273  20.632   4.053  0.00  0.00     0.219 HD
ENDBRANCH   1  21
BRANCH   2  23
HETATM   23  C   UNK N   1      25.603  20.180   4.511  0.00  0.00     0.154 C 
BRANCH  23  24
HETATM   24  C   UNK N   1      25.208  20.203   3.022  0.00  0.00     0.154 C 
BRANCH  24  25
HETATM   25  C   UNK N   1      23.757  20.610   2.861  0.00  0.00     0.165 C 
BRANCH  25  26
HETATM   26  N   UNK N   1      22.877  19.707   3.584  0.00  0.00    -0.312 N 
HETATM   27  H   UNK N   1      23.120  19.171   4.417  0.00  0.00     0.172 HD
BRANCH  26  28
HETATM   28  S   UNK N   1      21.310  19.706   2.764  0.00  0.00     0.274 S 
HETATM   29  O   UNK N   1      21.423  20.820   1.712  0.00  0.00    -0.199 OA
HETATM   30  O   UNK N   1      20.340  20.324   3.780  0.00  0.00    -0.199 OA
BRANCH  28  31
HETATM   31  C   UNK N   1      20.676  18.174   2.078  0.00  0.00     0.148 A 
HETATM   32  C   UNK N   1      20.676  17.012   2.852  0.00  0.00     0.043 A 
HETATM   33  C   UNK N   1      20.190  15.825   2.302  0.00  0.00     0.004 A 
HETATM   34  C   UNK N   1      19.708  15.812   0.993  0.00  0.00     0.017 A 
HETATM   35  C   UNK N   1      19.724  16.992   0.249  0.00  0.00     0.089 A 
HETATM   36  N   UNK N   1      20.206  18.138   0.800  0.00  0.00    -0.355 N 
ATOM     37  HN  UNK N   1      20.218  18.991   0.242  1.00  0.00     0.166 HD
ENDBRANCH  28  31
ENDBRANCH  26  28
ENDBRANCH  25  26
ENDBRANCH  24  25
BRANCH  24  38
HETATM   38  O   UNK N   1      26.009  21.075   2.284  0.00  0.00    -0.392 OA
HETATM   39  H   UNK N   1      25.749  21.500   1.452  0.00  0.00     0.210 HD
ENDBRANCH  24  38
ENDBRANCH  23  24
ENDBRANCH   2  23
TORSDOF 13
ENDMDL
