MODEL 1
REMARK VINA RESULT:      -5.1      0.000      0.000
REMARK  10 active torsions:
REMARK  status: ('A' for Active; 'I' for Inactive)
REMARK    1  A    between atoms: C_2  and  O_3 
REMARK    2  A    between atoms: O_3  and  P_4 
REMARK    3  A    between atoms: P_4  and  O_6 
REMARK    4  A    between atoms: P_4  and  C_9 
REMARK    5  A    between atoms: O_6  and  C_7 
REMARK    6  A    between atoms: C_9  and  N_11 
REMARK       I    between atoms: N_11  and  C_12 
REMARK       I    between atoms: C_12  and  N_14 
REMARK    7  A    between atoms: N_14  and  C_15 
REMARK    8  A    between atoms: N_14  and  N_18 
REMARK    9  A    between atoms: C_15  and  C_16 
REMARK   10  A    between atoms: N_18  and  O_20 
ROOT
HETATM    1  N   UNK N   1      35.332  16.419   8.972  0.00  0.00    -0.326 N 
HETATM    2  C   UNK N   1      35.553  15.916  10.226  0.00  0.00     0.339 C 
HETATM    3  O   UNK N   1      36.595  16.217  10.788  0.00  0.00    -0.245 OA
HETATM    4  N   UNK N   1      34.673  15.065  10.855  0.00  0.00    -0.222 N 
HETATM    5  H   UNK N   1      35.957  17.100   8.633  0.00  0.00     0.165 HD
ENDROOT
BRANCH   1   6
HETATM    6  C   UNK N   1      34.245  16.016   8.113  0.00  0.00     0.200 C 
HETATM    7  C   UNK N   1      34.760  15.026   7.089  0.00  0.00     0.045 C 
BRANCH   6   8
HETATM    8  P   UNK N   1      33.420  17.436   7.222  0.00  0.00     0.350 P 
HETATM    9  O   UNK N   1      33.835  18.684   8.054  0.00  0.00    -0.257 OA
BRANCH   8  10
HETATM   10  O   UNK N   1      33.940  17.811   5.590  0.00  0.00    -0.313 OA
BRANCH  10  11
HETATM   11  C   UNK N   1      32.864  17.534   4.735  0.00  0.00     0.174 C 
HETATM   12  C   UNK N   1      33.207  16.383   3.812  0.00  0.00     0.034 C 
ENDBRANCH  10  11
ENDBRANCH   8  10
BRANCH   8  13
HETATM   13  O   UNK N   1      31.684  17.514   7.316  0.00  0.00    -0.313 OA
BRANCH  13  14
HETATM   14  C   UNK N   1      31.381  17.844   8.634  0.00  0.00     0.174 C 
HETATM   15  C   UNK N   1      29.936  18.296   8.708  0.00  0.00     0.034 C 
ENDBRANCH  13  14
ENDBRANCH   8  13
ENDBRANCH   6   8
ENDBRANCH   1   6
BRANCH   4  16
HETATM   16  C   UNK N   1      35.035  14.490  12.138  0.00  0.00     0.171 C 
BRANCH  16  17
HETATM   17  C   UNK N   1      35.216  12.986  11.997  0.00  0.00     0.136 C 
HETATM   18 Cl   UNK N   1      34.650  12.180  13.480  0.00  0.00    -0.129 Cl
ENDBRANCH  16  17
ENDBRANCH   4  16
BRANCH   4  19
HETATM   19  N   UNK N   1      33.438  14.775  10.311  0.00  0.00    -0.204 N 
ATOM     20  HN  UNK N   1      33.388  14.288   9.416  1.00  0.00     0.216 HD
BRANCH  19  21
HETATM   21  O   UNK N   1      32.429  15.085  10.869  0.00  0.00    -0.274 OA
ATOM     22  HO  UNK N   1      32.198  14.710  11.712  1.00  0.00     0.246 HD
ENDBRANCH  19  21
ENDBRANCH   4  19
TORSDOF 10
ENDMDL
MODEL 2
REMARK VINA RESULT:      -5.1      3.992      6.384
REMARK  10 active torsions:
REMARK  status: ('A' for Active; 'I' for Inactive)
REMARK    1  A    between atoms: C_2  and  O_3 
REMARK    2  A    between atoms: O_3  and  P_4 
REMARK    3  A    between atoms: P_4  and  O_6 
REMARK    4  A    between atoms: P_4  and  C_9 
REMARK    5  A    between atoms: O_6  and  C_7 
REMARK    6  A    between atoms: C_9  and  N_11 
REMARK       I    between atoms: N_11  and  C_12 
REMARK       I    between atoms: C_12  and  N_14 
REMARK    7  A    between atoms: N_14  and  C_15 
REMARK    8  A    between atoms: N_14  and  N_18 
REMARK    9  A    between atoms: C_15  and  C_16 
REMARK   10  A    between atoms: N_18  and  O_20 
ROOT
HETATM    1  N   UNK N   1      31.453  17.751   9.004  0.00  0.00    -0.326 N 
HETATM    2  C   UNK N   1      30.173  18.164   8.746  0.00  0.00     0.339 C 
HETATM    3  O   UNK N   1      29.606  18.838   9.594  0.00  0.00    -0.245 OA
HETATM    4  N   UNK N   1      29.496  17.822   7.597  0.00  0.00    -0.222 N 
HETATM    5  H   UNK N   1      31.904  18.120   9.798  0.00  0.00     0.165 HD
ENDROOT
BRANCH   1   6
HETATM    6  C   UNK N   1      32.184  16.809   8.192  0.00  0.00     0.200 C 
HETATM    7  C   UNK N   1      32.097  15.435   8.823  0.00  0.00     0.045 C 
BRANCH   6   8
HETATM    8  P   UNK N   1      33.983  17.254   7.955  0.00  0.00     0.350 P 
HETATM    9  O   UNK N   1      34.081  18.704   8.512  0.00  0.00    -0.257 OA
BRANCH   8  10
HETATM   10  O   UNK N   1      35.190  16.360   8.859  0.00  0.00    -0.313 OA
BRANCH  10  11
HETATM   11  C   UNK N   1      35.217  16.889  10.157  0.00  0.00     0.174 C 
HETATM   12  C   UNK N   1      35.159  15.775  11.182  0.00  0.00     0.034 C 
ENDBRANCH  10  11
ENDBRANCH   8  10
BRANCH   8  13
HETATM   13  O   UNK N   1      34.523  17.472   6.314  0.00  0.00    -0.313 OA
BRANCH  13  14
HETATM   14  C   UNK N   1      33.683  16.693   5.523  0.00  0.00     0.174 C 
HETATM   15  C   UNK N   1      33.014  17.583   4.494  0.00  0.00     0.034 C 
ENDBRANCH  13  14
ENDBRANCH   8  13
ENDBRANCH   6   8
ENDBRANCH   1   6
BRANCH   4  16
HETATM   16  C   UNK N   1      28.104  18.209   7.452  0.00  0.00     0.171 C 
BRANCH  16  17
HETATM   17  C   UNK N   1      27.950  19.137   6.257  0.00  0.00     0.136 C 
HETATM   18 Cl   UNK N   1      27.267  20.690   6.799  0.00  0.00    -0.129 Cl
ENDBRANCH  16  17
ENDBRANCH   4  16
BRANCH   4  19
HETATM   19  N   UNK N   1      30.121  17.152   6.566  0.00  0.00    -0.204 N 
ATOM     20  HN  UNK N   1      31.010  17.502   6.207  1.00  0.00     0.216 HD
BRANCH  19  21
HETATM   21  O   UNK N   1      29.640  16.170   6.085  0.00  0.00    -0.274 OA
ATOM     22  HO  UNK N   1      28.963  16.229   5.420  1.00  0.00     0.246 HD
ENDBRANCH  19  21
ENDBRANCH   4  19
TORSDOF 10
ENDMDL
MODEL 3
REMARK VINA RESULT:      -5.0      3.876      6.822
REMARK  10 active torsions:
REMARK  status: ('A' for Active; 'I' for Inactive)
REMARK    1  A    between atoms: C_2  and  O_3 
REMARK    2  A    between atoms: O_3  and  P_4 
REMARK    3  A    between atoms: P_4  and  O_6 
REMARK    4  A    between atoms: P_4  and  C_9 
REMARK    5  A    between atoms: O_6  and  C_7 
REMARK    6  A    between atoms: C_9  and  N_11 
REMARK       I    between atoms: N_11  and  C_12 
REMARK       I    between atoms: C_12  and  N_14 
REMARK    7  A    between atoms: N_14  and  C_15 
REMARK    8  A    between atoms: N_14  and  N_18 
REMARK    9  A    between atoms: C_15  and  C_16 
REMARK   10  A    between atoms: N_18  and  O_20 
ROOT
HETATM    1  N   UNK N   1      36.333  14.689  11.982  0.00  0.00    -0.326 N 
HETATM    2  C   UNK N   1      35.964  15.631  11.060  0.00  0.00     0.339 C 
HETATM    3  O   UNK N   1      36.804  16.444  10.703  0.00  0.00    -0.245 OA
HETATM    4  N   UNK N   1      34.687  15.719  10.553  0.00  0.00    -0.222 N 
HETATM    5  H   UNK N   1      37.287  14.627  12.219  0.00  0.00     0.165 HD
ENDROOT
BRANCH   1   6
HETATM    6  C   UNK N   1      35.418  13.782  12.631  0.00  0.00     0.200 C 
HETATM    7  C   UNK N   1      35.689  13.783  14.122  0.00  0.00     0.045 C 
BRANCH   6   8
HETATM    8  P   UNK N   1      35.517  12.027  11.998  0.00  0.00     0.350 P 
HETATM    9  O   UNK N   1      36.990  11.892  11.516  0.00  0.00    -0.257 OA
BRANCH   8  10
HETATM   10  O   UNK N   1      35.313  10.715  13.143  0.00  0.00    -0.313 OA
BRANCH  10  11
HETATM   11  C   UNK N   1      33.936  10.552  13.352  0.00  0.00     0.174 C 
HETATM   12  C   UNK N   1      33.602  10.726  14.819  0.00  0.00     0.034 C 
ENDBRANCH  10  11
ENDBRANCH   8  10
BRANCH   8  13
HETATM   13  O   UNK N   1      34.637  11.673  10.539  0.00  0.00    -0.313 OA
BRANCH  13  14
HETATM   14  C   UNK N   1      35.579  11.645   9.514  0.00  0.00     0.174 C 
HETATM   15  C   UNK N   1      35.128  12.577   8.407  0.00  0.00     0.034 C 
ENDBRANCH  13  14
ENDBRANCH   8  13
ENDBRANCH   6   8
ENDBRANCH   1   6
BRANCH   4  16
HETATM   16  C   UNK N   1      34.350  16.815   9.663  0.00  0.00     0.171 C 
BRANCH  16  17
HETATM   17  C   UNK N   1      34.335  16.324   8.223  0.00  0.00     0.136 C 
HETATM   18 Cl   UNK N   1      34.100  17.709   7.129  0.00  0.00    -0.129 Cl
ENDBRANCH  16  17
ENDBRANCH   4  16
BRANCH   4  19
HETATM   19  N   UNK N   1      33.731  14.767  10.842  0.00  0.00    -0.204 N 
ATOM     20  HN  UNK N   1      34.013  13.795  10.968  1.00  0.00     0.216 HD
BRANCH  19  21
HETATM   21  O   UNK N   1      32.578  15.061  10.947  0.00  0.00    -0.274 OA
ATOM     22  HO  UNK N   1      32.314  15.882  11.349  1.00  0.00     0.246 HD
ENDBRANCH  19  21
ENDBRANCH   4  19
TORSDOF 10
ENDMDL
MODEL 4
REMARK VINA RESULT:      -5.0      2.164      3.600
REMARK  10 active torsions:
REMARK  status: ('A' for Active; 'I' for Inactive)
REMARK    1  A    between atoms: C_2  and  O_3 
REMARK    2  A    between atoms: O_3  and  P_4 
REMARK    3  A    between atoms: P_4  and  O_6 
REMARK    4  A    between atoms: P_4  and  C_9 
REMARK    5  A    between atoms: O_6  and  C_7 
REMARK    6  A    between atoms: C_9  and  N_11 
REMARK       I    between atoms: N_11  and  C_12 
REMARK       I    between atoms: C_12  and  N_14 
REMARK    7  A    between atoms: N_14  and  C_15 
REMARK    8  A    between atoms: N_14  and  N_18 
REMARK    9  A    between atoms: C_15  and  C_16 
REMARK   10  A    between atoms: N_18  and  O_20 
ROOT
HETATM    1  N   UNK N   1      33.947  18.146   7.337  0.00  0.00    -0.326 N 
HETATM    2  C   UNK N   1      34.630  18.063   8.522  0.00  0.00     0.339 C 
HETATM    3  O   UNK N   1      35.344  19.002   8.838  0.00  0.00    -0.245 OA
HETATM    4  N   UNK N   1      34.568  16.959   9.342  0.00  0.00    -0.222 N 
HETATM    5  H   UNK N   1      33.961  19.006   6.858  0.00  0.00     0.165 HD
ENDROOT
BRANCH   1   6
HETATM    6  C   UNK N   1      33.212  17.057   6.743  0.00  0.00     0.200 C 
HETATM    7  C   UNK N   1      33.311  17.153   5.234  0.00  0.00     0.045 C 
BRANCH   6   8
HETATM    8  P   UNK N   1      31.409  17.008   7.230  0.00  0.00     0.350 P 
HETATM    9  O   UNK N   1      31.086  15.488   7.301  0.00  0.00    -0.257 OA
BRANCH   8  10
HETATM   10  O   UNK N   1      30.955  17.622   8.809  0.00  0.00    -0.313 OA
BRANCH  10  11
HETATM   11  C   UNK N   1      29.832  18.443   8.631  0.00  0.00     0.174 C 
HETATM   12  C   UNK N   1      28.631  17.855   9.345  0.00  0.00     0.034 C 
ENDBRANCH  10  11
ENDBRANCH   8  10
BRANCH   8  13
HETATM   13  O   UNK N   1      30.263  17.554   6.039  0.00  0.00    -0.313 OA
BRANCH  13  14
HETATM   14  C   UNK N   1      29.679  16.407   5.509  0.00  0.00     0.174 C 
HETATM   15  C   UNK N   1      29.790  16.453   3.997  0.00  0.00     0.034 C 
ENDBRANCH  13  14
ENDBRANCH   8  13
ENDBRANCH   6   8
ENDBRANCH   1   6
BRANCH   4  16
HETATM   16  C   UNK N   1      35.408  16.907  10.525  0.00  0.00     0.171 C 
BRANCH  16  17
HETATM   17  C   UNK N   1      36.196  15.606  10.541  0.00  0.00     0.136 C 
HETATM   18 Cl   UNK N   1      35.751  14.662  11.984  0.00  0.00    -0.129 Cl
ENDBRANCH  16  17
ENDBRANCH   4  16
BRANCH   4  19
HETATM   19  N   UNK N   1      33.701  15.918   9.085  0.00  0.00    -0.204 N 
ATOM     20  HN  UNK N   1      33.738  15.446   8.181  1.00  0.00     0.216 HD
BRANCH  19  21
HETATM   21  O   UNK N   1      32.906  15.559   9.901  0.00  0.00    -0.274 OA
ATOM     22  HO  UNK N   1      32.096  15.132   9.644  1.00  0.00     0.246 HD
ENDBRANCH  19  21
ENDBRANCH   4  19
TORSDOF 10
ENDMDL
MODEL 5
REMARK VINA RESULT:      -5.0     14.169     16.382
REMARK  10 active torsions:
REMARK  status: ('A' for Active; 'I' for Inactive)
REMARK    1  A    between atoms: C_2  and  O_3 
REMARK    2  A    between atoms: O_3  and  P_4 
REMARK    3  A    between atoms: P_4  and  O_6 
REMARK    4  A    between atoms: P_4  and  C_9 
REMARK    5  A    between atoms: O_6  and  C_7 
REMARK    6  A    between atoms: C_9  and  N_11 
REMARK       I    between atoms: N_11  and  C_12 
REMARK       I    between atoms: C_12  and  N_14 
REMARK    7  A    between atoms: N_14  and  C_15 
REMARK    8  A    between atoms: N_14  and  N_18 
REMARK    9  A    between atoms: C_15  and  C_16 
REMARK   10  A    between atoms: N_18  and  O_20 
ROOT
HETATM    1  N   UNK N   1      29.314  24.237  -2.833  0.00  0.00    -0.326 N 
HETATM    2  C   UNK N   1      30.067  23.096  -2.739  0.00  0.00     0.339 C 
HETATM    3  O   UNK N   1      30.647  22.878  -1.686  0.00  0.00    -0.245 OA
HETATM    4  N   UNK N   1      30.221  22.216  -3.786  0.00  0.00    -0.222 N 
HETATM    5  H   UNK N   1      29.169  24.761  -2.012  0.00  0.00     0.165 HD
ENDROOT
BRANCH   1   6
HETATM    6  C   UNK N   1      28.720  24.722  -4.055  0.00  0.00     0.200 C 
HETATM    7  C   UNK N   1      29.440  25.980  -4.493  0.00  0.00     0.045 C 
BRANCH   6   8
HETATM    8  P   UNK N   1      26.893  25.086  -3.914  0.00  0.00     0.350 P 
HETATM    9  O   UNK N   1      26.362  23.955  -2.986  0.00  0.00    -0.257 OA
BRANCH   8  10
HETATM   10  O   UNK N   1      26.397  26.568  -3.119  0.00  0.00    -0.313 OA
BRANCH  10  11
HETATM   11  C   UNK N   1      25.758  27.364  -4.080  0.00  0.00     0.174 C 
HETATM   12  C   UNK N   1      26.058  28.829  -3.836  0.00  0.00     0.034 C 
ENDBRANCH  10  11
ENDBRANCH   8  10
BRANCH   8  13
HETATM   13  O   UNK N   1      25.935  24.842  -5.347  0.00  0.00    -0.313 OA
BRANCH  13  14
HETATM   14  C   UNK N   1      26.745  24.144  -6.240  0.00  0.00     0.174 C 
HETATM   15  C   UNK N   1      26.037  22.868  -6.650  0.00  0.00     0.034 C 
ENDBRANCH  13  14
ENDBRANCH   8  13
ENDBRANCH   6   8
ENDBRANCH   1   6
BRANCH   4  16
HETATM   16  C   UNK N   1      31.125  21.089  -3.638  0.00  0.00     0.171 C 
BRANCH  16  17
HETATM   17  C   UNK N   1      32.525  21.490  -4.078  0.00  0.00     0.136 C 
HETATM   18 Cl   UNK N   1      33.711  20.897  -2.890  0.00  0.00    -0.129 Cl
ENDBRANCH  16  17
ENDBRANCH   4  16
BRANCH   4  19
HETATM   19  N   UNK N   1      29.509  22.359  -4.959  0.00  0.00    -0.204 N 
ATOM     20  HN  UNK N   1      28.954  23.202  -5.108  1.00  0.00     0.216 HD
BRANCH  19  21
HETATM   21  O   UNK N   1      29.529  21.514  -5.802  0.00  0.00    -0.274 OA
ATOM     22  HO  UNK N   1      30.152  21.550  -6.520  1.00  0.00     0.246 HD
ENDBRANCH  19  21
ENDBRANCH   4  19
TORSDOF 10
ENDMDL
MODEL 6
REMARK VINA RESULT:      -4.9      4.044      7.703
REMARK  10 active torsions:
REMARK  status: ('A' for Active; 'I' for Inactive)
REMARK    1  A    between atoms: C_2  and  O_3 
REMARK    2  A    between atoms: O_3  and  P_4 
REMARK    3  A    between atoms: P_4  and  O_6 
REMARK    4  A    between atoms: P_4  and  C_9 
REMARK    5  A    between atoms: O_6  and  C_7 
REMARK    6  A    between atoms: C_9  and  N_11 
REMARK       I    between atoms: N_11  and  C_12 
REMARK       I    between atoms: C_12  and  N_14 
REMARK    7  A    between atoms: N_14  and  C_15 
REMARK    8  A    between atoms: N_14  and  N_18 
REMARK    9  A    between atoms: C_15  and  C_16 
REMARK   10  A    between atoms: N_18  and  O_20 
ROOT
HETATM    1  N   UNK N   1      34.712  13.163  11.116  0.00  0.00    -0.326 N 
HETATM    2  C   UNK N   1      34.417  14.096  10.157  0.00  0.00     0.339 C 
HETATM    3  O   UNK N   1      33.305  14.064   9.652  0.00  0.00    -0.245 OA
HETATM    4  N   UNK N   1      35.327  15.033   9.723  0.00  0.00    -0.222 N 
HETATM    5  H   UNK N   1      33.979  12.595  11.446  0.00  0.00     0.165 HD
ENDROOT
BRANCH   1   6
HETATM    6  C   UNK N   1      36.027  12.957  11.674  0.00  0.00     0.200 C 
HETATM    7  C   UNK N   1      36.505  11.564  11.319  0.00  0.00     0.045 C 
BRANCH   6   8
HETATM    8  P   UNK N   1      36.102  13.171  13.528  0.00  0.00     0.350 P 
HETATM    9  O   UNK N   1      34.610  13.130  13.966  0.00  0.00    -0.257 OA
BRANCH   8  10
HETATM   10  O   UNK N   1      36.869  11.916  14.482  0.00  0.00    -0.313 OA
BRANCH  10  11
HETATM   11  C   UNK N   1      35.853  11.077  14.963  0.00  0.00     0.174 C 
HETATM   12  C   UNK N   1      35.922  10.977  16.473  0.00  0.00     0.034 C 
ENDBRANCH  10  11
ENDBRANCH   8  10
BRANCH   8  13
HETATM   13  O   UNK N   1      36.596  14.734  14.114  0.00  0.00    -0.313 OA
BRANCH  13  14
HETATM   14  C   UNK N   1      37.004  14.543  15.432  0.00  0.00     0.174 C 
HETATM   15  C   UNK N   1      37.479  15.868  15.995  0.00  0.00     0.034 C 
ENDBRANCH  13  14
ENDBRANCH   8  13
ENDBRANCH   6   8
ENDBRANCH   1   6
BRANCH   4  16
HETATM   16  C   UNK N   1      34.969  15.913   8.625  0.00  0.00     0.171 C 
BRANCH  16  17
HETATM   17  C   UNK N   1      34.337  17.186   9.170  0.00  0.00     0.136 C 
HETATM   18 Cl   UNK N   1      34.041  18.320   7.830  0.00  0.00    -0.129 Cl
ENDBRANCH  16  17
ENDBRANCH   4  16
BRANCH   4  19
HETATM   19  N   UNK N   1      36.557  15.178  10.330  0.00  0.00    -0.204 N 
ATOM     20  HN  UNK N   1      37.206  14.391  10.341  1.00  0.00     0.216 HD
BRANCH  19  21
HETATM   21  O   UNK N   1      36.875  16.209  10.842  0.00  0.00    -0.274 OA
ATOM     22  HO  UNK N   1      36.479  16.495  11.659  1.00  0.00     0.246 HD
ENDBRANCH  19  21
ENDBRANCH   4  19
TORSDOF 10
ENDMDL
MODEL 7
REMARK VINA RESULT:      -4.7      3.031      4.146
REMARK  10 active torsions:
REMARK  status: ('A' for Active; 'I' for Inactive)
REMARK    1  A    between atoms: C_2  and  O_3 
REMARK    2  A    between atoms: O_3  and  P_4 
REMARK    3  A    between atoms: P_4  and  O_6 
REMARK    4  A    between atoms: P_4  and  C_9 
REMARK    5  A    between atoms: O_6  and  C_7 
REMARK    6  A    between atoms: C_9  and  N_11 
REMARK       I    between atoms: N_11  and  C_12 
REMARK       I    between atoms: C_12  and  N_14 
REMARK    7  A    between atoms: N_14  and  C_15 
REMARK    8  A    between atoms: N_14  and  N_18 
REMARK    9  A    between atoms: C_15  and  C_16 
REMARK   10  A    between atoms: N_18  and  O_20 
ROOT
HETATM    1  N   UNK N   1      36.434  15.235  12.280  0.00  0.00    -0.326 N 
HETATM    2  C   UNK N   1      36.391  14.619  13.503  0.00  0.00     0.339 C 
HETATM    3  O   UNK N   1      36.785  15.247  14.474  0.00  0.00    -0.245 OA
HETATM    4  N   UNK N   1      35.958  13.323  13.670  0.00  0.00    -0.222 N 
HETATM    5  H   UNK N   1      36.658  16.194  12.256  0.00  0.00     0.165 HD
ENDROOT
BRANCH   1   6
HETATM    6  C   UNK N   1      36.176  14.572  11.025  0.00  0.00     0.200 C 
HETATM    7  C   UNK N   1      37.466  14.483  10.235  0.00  0.00     0.045 C 
BRANCH   6   8
HETATM    8  P   UNK N   1      34.880  15.417   9.977  0.00  0.00     0.350 P 
HETATM    9  O   UNK N   1      33.537  14.977  10.626  0.00  0.00    -0.257 OA
BRANCH   8  10
HETATM   10  O   UNK N   1      34.813  17.169   9.986  0.00  0.00    -0.313 OA
BRANCH  10  11
HETATM   11  C   UNK N   1      34.610  17.587   8.663  0.00  0.00     0.174 C 
HETATM   12  C   UNK N   1      33.153  17.935   8.437  0.00  0.00     0.034 C 
ENDBRANCH  10  11
ENDBRANCH   8  10
BRANCH   8  13
HETATM   13  O   UNK N   1      34.691  14.833   8.348  0.00  0.00    -0.313 OA
BRANCH  13  14
HETATM   14  C   UNK N   1      33.953  13.656   8.442  0.00  0.00     0.174 C 
HETATM   15  C   UNK N   1      32.954  13.610   7.302  0.00  0.00     0.034 C 
ENDBRANCH  13  14
ENDBRANCH   8  13
ENDBRANCH   6   8
ENDBRANCH   1   6
BRANCH   4  16
HETATM   16  C   UNK N   1      36.048  12.710  14.983  0.00  0.00     0.171 C 
BRANCH  16  17
HETATM   17  C   UNK N   1      34.744  12.918  15.739  0.00  0.00     0.136 C 
HETATM   18 Cl   UNK N   1      35.100  13.511  17.380  0.00  0.00    -0.129 Cl
ENDBRANCH  16  17
ENDBRANCH   4  16
BRANCH   4  19
HETATM   19  N   UNK N   1      35.408  12.607  12.628  0.00  0.00    -0.204 N 
ATOM     20  HN  UNK N   1      36.015  12.046  12.030  1.00  0.00     0.216 HD
BRANCH  19  21
HETATM   21  O   UNK N   1      34.234  12.633  12.412  0.00  0.00    -0.274 OA
ATOM     22  HO  UNK N   1      33.720  11.833  12.392  1.00  0.00     0.246 HD
ENDBRANCH  19  21
ENDBRANCH   4  19
TORSDOF 10
ENDMDL
MODEL 8
REMARK VINA RESULT:      -4.6     13.280     15.084
REMARK  10 active torsions:
REMARK  status: ('A' for Active; 'I' for Inactive)
REMARK    1  A    between atoms: C_2  and  O_3 
REMARK    2  A    between atoms: O_3  and  P_4 
REMARK    3  A    between atoms: P_4  and  O_6 
REMARK    4  A    between atoms: P_4  and  C_9 
REMARK    5  A    between atoms: O_6  and  C_7 
REMARK    6  A    between atoms: C_9  and  N_11 
REMARK       I    between atoms: N_11  and  C_12 
REMARK       I    between atoms: C_12  and  N_14 
REMARK    7  A    between atoms: N_14  and  C_15 
REMARK    8  A    between atoms: N_14  and  N_18 
REMARK    9  A    between atoms: C_15  and  C_16 
REMARK   10  A    between atoms: N_18  and  O_20 
ROOT
HETATM    1  N   UNK N   1      22.026  16.347   4.861  0.00  0.00    -0.326 N 
HETATM    2  C   UNK N   1      21.983  15.967   3.545  0.00  0.00     0.339 C 
HETATM    3  O   UNK N   1      23.038  15.688   2.995  0.00  0.00    -0.245 OA
HETATM    4  N   UNK N   1      20.814  15.924   2.819  0.00  0.00    -0.222 N 
HETATM    5  H   UNK N   1      22.882  16.254   5.338  0.00  0.00     0.165 HD
ENDROOT
BRANCH   1   6
HETATM    6  C   UNK N   1      20.901  16.875   5.593  0.00  0.00     0.200 C 
HETATM    7  C   UNK N   1      21.285  18.208   6.202  0.00  0.00     0.045 C 
BRANCH   6   8
HETATM    8  P   UNK N   1      20.283  15.745   6.947  0.00  0.00     0.350 P 
HETATM    9  O   UNK N   1      19.895  14.441   6.191  0.00  0.00    -0.257 OA
BRANCH   8  10
HETATM   10  O   UNK N   1      21.419  15.213   8.172  0.00  0.00    -0.313 OA
BRANCH  10  11
HETATM   11  C   UNK N   1      21.103  13.884   8.486  0.00  0.00     0.174 C 
HETATM   12  C   UNK N   1      20.582  13.786   9.906  0.00  0.00     0.034 C 
ENDBRANCH  10  11
ENDBRANCH   8  10
BRANCH   8  13
HETATM   13  O   UNK N   1      18.773  16.178   7.696  0.00  0.00    -0.313 OA
BRANCH  13  14
HETATM   14  C   UNK N   1      19.097  16.997   8.775  0.00  0.00     0.174 C 
HETATM   15  C   UNK N   1      17.822  17.379   9.501  0.00  0.00     0.034 C 
ENDBRANCH  13  14
ENDBRANCH   8  13
ENDBRANCH   6   8
ENDBRANCH   1   6
BRANCH   4  16
HETATM   16  C   UNK N   1      20.871  15.617   1.401  0.00  0.00     0.171 C 
BRANCH  16  17
HETATM   17  C   UNK N   1      20.170  16.710   0.609  0.00  0.00     0.136 C 
HETATM   18 Cl   UNK N   1      18.759  16.020  -0.229  0.00  0.00    -0.129 Cl
ENDBRANCH  16  17
ENDBRANCH   4  16
BRANCH   4  19
HETATM   19  N   UNK N   1      19.588  16.128   3.416  0.00  0.00    -0.204 N 
ATOM     20  HN  UNK N   1      19.331  17.067   3.724  1.00  0.00     0.216 HD
BRANCH  19  21
HETATM   21  O   UNK N   1      18.822  15.227   3.579  0.00  0.00    -0.274 OA
ATOM     22  HO  UNK N   1      18.406  15.081   4.422  1.00  0.00     0.246 HD
ENDBRANCH  19  21
ENDBRANCH   4  19
TORSDOF 10
ENDMDL
MODEL 9
REMARK VINA RESULT:      -4.6      2.024      3.035
REMARK  10 active torsions:
REMARK  status: ('A' for Active; 'I' for Inactive)
REMARK    1  A    between atoms: C_2  and  O_3 
REMARK    2  A    between atoms: O_3  and  P_4 
REMARK    3  A    between atoms: P_4  and  O_6 
REMARK    4  A    between atoms: P_4  and  C_9 
REMARK    5  A    between atoms: O_6  and  C_7 
REMARK    6  A    between atoms: C_9  and  N_11 
REMARK       I    between atoms: N_11  and  C_12 
REMARK       I    between atoms: C_12  and  N_14 
REMARK    7  A    between atoms: N_14  and  C_15 
REMARK    8  A    between atoms: N_14  and  N_18 
REMARK    9  A    between atoms: C_15  and  C_16 
REMARK   10  A    between atoms: N_18  and  O_20 
ROOT
HETATM    1  N   UNK N   1      35.809  14.039   8.692  0.00  0.00    -0.326 N 
HETATM    2  C   UNK N   1      36.227  14.359   9.957  0.00  0.00     0.339 C 
HETATM    3  O   UNK N   1      37.413  14.602  10.124  0.00  0.00    -0.245 OA
HETATM    4  N   UNK N   1      35.378  14.382  11.040  0.00  0.00    -0.222 N 
HETATM    5  H   UNK N   1      36.454  14.145   7.955  0.00  0.00     0.165 HD
ENDROOT
BRANCH   1   6
HETATM    6  C   UNK N   1      34.489  13.556   8.369  0.00  0.00     0.200 C 
HETATM    7  C   UNK N   1      34.608  12.374   7.430  0.00  0.00     0.045 C 
BRANCH   6   8
HETATM    8  P   UNK N   1      33.385  14.844   7.586  0.00  0.00     0.350 P 
HETATM    9  O   UNK N   1      32.057  14.078   7.319  0.00  0.00    -0.257 OA
BRANCH   8  10
HETATM   10  O   UNK N   1      32.902  16.226   8.550  0.00  0.00    -0.313 OA
BRANCH  10  11
HETATM   11  C   UNK N   1      34.006  17.088   8.626  0.00  0.00     0.174 C 
HETATM   12  C   UNK N   1      33.670  18.431   8.010  0.00  0.00     0.034 C 
ENDBRANCH  10  11
ENDBRANCH   8  10
BRANCH   8  13
HETATM   13  O   UNK N   1      33.814  15.369   5.983  0.00  0.00    -0.313 OA
BRANCH  13  14
HETATM   14  C   UNK N   1      32.621  15.725   5.359  0.00  0.00     0.174 C 
HETATM   15  C   UNK N   1      32.792  17.085   4.711  0.00  0.00     0.034 C 
ENDBRANCH  13  14
ENDBRANCH   8  13
ENDBRANCH   6   8
ENDBRANCH   1   6
BRANCH   4  16
HETATM   16  C   UNK N   1      35.922  14.623  12.364  0.00  0.00     0.171 C 
BRANCH  16  17
HETATM   17  C   UNK N   1      35.644  13.427  13.262  0.00  0.00     0.136 C 
HETATM   18 Cl   UNK N   1      36.514  13.628  14.802  0.00  0.00    -0.129 Cl
ENDBRANCH  16  17
ENDBRANCH   4  16
BRANCH   4  19
HETATM   19  N   UNK N   1      34.016  14.217  10.891  0.00  0.00    -0.204 N 
ATOM     20  HN  UNK N   1      33.659  13.357  10.474  1.00  0.00     0.216 HD
BRANCH  19  21
HETATM   21  O   UNK N   1      33.249  15.062  11.241  0.00  0.00    -0.274 OA
ATOM     22  HO  UNK N   1      32.416  14.836  11.640  1.00  0.00     0.246 HD
ENDBRANCH  19  21
ENDBRANCH   4  19
TORSDOF 10
ENDMDL
