MODEL 1
REMARK VINA RESULT:      -5.6      0.000      0.000
REMARK  6 active torsions:
REMARK  status: ('A' for Active; 'I' for Inactive)
REMARK    1  A    between atoms: C_2  and  O_8 
REMARK    2  A    between atoms: C_3  and  O_9 
REMARK    3  A    between atoms: C_4  and  O_13 
REMARK    4  A    between atoms: C_5  and  C_6 
REMARK    5  A    between atoms: O_11  and  C_6 
REMARK    6  A    between atoms: C_7  and  O_12 
ROOT
HETATM    1  C   UNK N   1      33.240  14.991   9.764  0.00  0.00     0.183 C 
HETATM    2  C   UNK N   1      34.494  14.718  10.599  0.00  0.00     0.204 C 
HETATM    3  C   UNK N   1      33.584  15.952   8.602  0.00  0.00     0.191 C 
HETATM    4  C   UNK N   1      34.268  17.213   9.203  0.00  0.00     0.253 C 
HETATM    5  C   UNK N   1      35.081  16.056  11.063  0.00  0.00     0.289 C 
HETATM    6  O   UNK N   1      35.427  16.847   9.941  0.00  0.00    -0.340 OA
ENDROOT
BRANCH   4   7
HETATM    7  C   UNK N   1      34.670  18.187   8.119  0.00  0.00     0.172 C 
HETATM    8  O   UNK N   1      35.145  19.275   8.412  0.00  0.00    -0.648 OA
BRANCH   7   9
HETATM    9  O   UNK N   1      34.484  17.875   6.824  0.00  0.00    -0.774 OA
HETATM   10  H   UNK N   1      34.788  18.390   6.102  0.00  0.00     0.167 HD
ENDBRANCH   7   9
ENDBRANCH   4   7
BRANCH   3  11
HETATM   11  O   UNK N   1      32.406  16.348   7.925  0.00  0.00    -0.385 OA
HETATM   12  C   UNK N   1      31.488  16.859   8.854  0.00  0.00     0.202 C 
ENDBRANCH   3  11
BRANCH   1  13
HETATM   13  O   UNK N   1      32.731  13.783   9.280  0.00  0.00    -0.390 OA
HETATM   14  H   UNK N   1      32.740  12.956   9.787  0.00  0.00     0.210 HD
ENDBRANCH   1  13
BRANCH   5  15
HETATM   15  O   UNK N   1      36.235  15.816  11.812  0.00  0.00    -0.368 OA
HETATM   16  H   UNK N   1      36.501  14.958  12.176  0.00  0.00     0.212 HD
ENDBRANCH   5  15
BRANCH   2  17
HETATM   17  O   UNK N   1      34.166  13.927  11.704  0.00  0.00    -0.388 OA
HETATM   18  H   UNK N   1      33.257  13.656  11.909  0.00  0.00     0.210 HD
ENDBRANCH   2  17
TORSDOF 6
ENDMDL
MODEL 2
REMARK VINA RESULT:      -5.5     13.034     15.123
REMARK  6 active torsions:
REMARK  status: ('A' for Active; 'I' for Inactive)
REMARK    1  A    between atoms: C_2  and  O_8 
REMARK    2  A    between atoms: C_3  and  O_9 
REMARK    3  A    between atoms: C_4  and  O_13 
REMARK    4  A    between atoms: C_5  and  C_6 
REMARK    5  A    between atoms: O_11  and  C_6 
REMARK    6  A    between atoms: C_7  and  O_12 
ROOT
HETATM    1  C   UNK N   1      20.348  18.116   2.208  0.00  0.00     0.183 C 
HETATM    2  C   UNK N   1      20.479  19.634   2.054  0.00  0.00     0.204 C 
HETATM    3  C   UNK N   1      20.298  17.744   3.709  0.00  0.00     0.191 C 
HETATM    4  C   UNK N   1      21.535  18.378   4.406  0.00  0.00     0.253 C 
HETATM    5  C   UNK N   1      21.703  20.108   2.845  0.00  0.00     0.289 C 
HETATM    6  O   UNK N   1      21.548  19.786   4.215  0.00  0.00    -0.340 OA
ENDROOT
BRANCH   4   7
HETATM    7  C   UNK N   1      21.535  18.089   5.890  0.00  0.00     0.172 C 
HETATM    8  O   UNK N   1      21.062  18.898   6.677  0.00  0.00    -0.648 OA
BRANCH   7   9
HETATM    9  O   UNK N   1      22.078  16.951   6.360  0.00  0.00    -0.774 OA
HETATM   10  H   UNK N   1      21.708  16.423   7.039  0.00  0.00     0.167 HD
ENDBRANCH   7   9
ENDBRANCH   4   7
BRANCH   3  11
HETATM   11  O   UNK N   1      20.348  16.339   3.870  0.00  0.00    -0.385 OA
HETATM   12  C   UNK N   1      19.192  15.909   4.539  0.00  0.00     0.202 C 
ENDBRANCH   3  11
BRANCH   1  13
HETATM   13  O   UNK N   1      19.199  17.679   1.545  0.00  0.00    -0.390 OA
HETATM   14  H   UNK N   1      18.866  16.769   1.593  0.00  0.00     0.210 HD
ENDBRANCH   1  13
BRANCH   5  15
HETATM   15  O   UNK N   1      21.820  21.494   2.724  0.00  0.00    -0.368 OA
HETATM   16  H   UNK N   1      22.243  22.082   3.370  0.00  0.00     0.212 HD
ENDBRANCH   5  15
BRANCH   2  17
HETATM   17  O   UNK N   1      20.620  19.964   0.703  0.00  0.00    -0.388 OA
HETATM   18  H   UNK N   1      20.041  20.598   0.250  0.00  0.00     0.210 HD
ENDBRANCH   2  17
TORSDOF 6
ENDMDL
MODEL 3
REMARK VINA RESULT:      -5.3     14.359     16.145
REMARK  6 active torsions:
REMARK  status: ('A' for Active; 'I' for Inactive)
REMARK    1  A    between atoms: C_2  and  O_8 
REMARK    2  A    between atoms: C_3  and  O_9 
REMARK    3  A    between atoms: C_4  and  O_13 
REMARK    4  A    between atoms: C_5  and  C_6 
REMARK    5  A    between atoms: O_11  and  C_6 
REMARK    6  A    between atoms: C_7  and  O_12 
ROOT
HETATM    1  C   UNK N   1      20.734  19.430   3.262  0.00  0.00     0.183 C 
HETATM    2  C   UNK N   1      21.388  20.348   2.226  0.00  0.00     0.204 C 
HETATM    3  C   UNK N   1      20.661  17.987   2.712  0.00  0.00     0.191 C 
HETATM    4  C   UNK N   1      19.955  18.031   1.327  0.00  0.00     0.253 C 
HETATM    5  C   UNK N   1      20.616  20.232   0.906  0.00  0.00     0.289 C 
HETATM    6  O   UNK N   1      20.652  18.896   0.440  0.00  0.00    -0.340 OA
ENDROOT
BRANCH   4   7
HETATM    7  C   UNK N   1      19.880  16.656   0.706  0.00  0.00     0.172 C 
HETATM    8  O   UNK N   1      20.890  15.975   0.590  0.00  0.00    -0.648 OA
BRANCH   7   9
HETATM    9  O   UNK N   1      18.708  16.179   0.252  0.00  0.00    -0.774 OA
HETATM   10  H   UNK N   1      18.488  15.270   0.190  0.00  0.00     0.167 HD
ENDBRANCH   7   9
ENDBRANCH   4   7
BRANCH   3  11
HETATM   11  O   UNK N   1      19.909  17.164   3.584  0.00  0.00    -0.385 OA
HETATM   12  C   UNK N   1      20.754  16.197   4.149  0.00  0.00     0.202 C 
ENDBRANCH   3  11
BRANCH   1  13
HETATM   13  O   UNK N   1      21.466  19.477   4.451  0.00  0.00    -0.390 OA
HETATM   14  H   UNK N   1      22.432  19.407   4.489  0.00  0.00     0.210 HD
ENDBRANCH   1  13
BRANCH   5  15
HETATM   15  O   UNK N   1      21.216  21.054  -0.050  0.00  0.00    -0.368 OA
HETATM   16  H   UNK N   1      21.853  20.764  -0.721  0.00  0.00     0.212 HD
ENDBRANCH   5  15
BRANCH   2  17
HETATM   17  O   UNK N   1      21.368  21.670   2.681  0.00  0.00    -0.388 OA
HETATM   18  H   UNK N   1      22.158  22.127   3.010  0.00  0.00     0.210 HD
ENDBRANCH   2  17
TORSDOF 6
ENDMDL
MODEL 4
REMARK VINA RESULT:      -5.1      1.931      3.176
REMARK  6 active torsions:
REMARK  status: ('A' for Active; 'I' for Inactive)
REMARK    1  A    between atoms: C_2  and  O_8 
REMARK    2  A    between atoms: C_3  and  O_9 
REMARK    3  A    between atoms: C_4  and  O_13 
REMARK    4  A    between atoms: C_5  and  C_6 
REMARK    5  A    between atoms: O_11  and  C_6 
REMARK    6  A    between atoms: C_7  and  O_12 
ROOT
HETATM    1  C   UNK N   1      33.655  15.954   8.652  0.00  0.00     0.183 C 
HETATM    2  C   UNK N   1      34.712  17.007   8.997  0.00  0.00     0.204 C 
HETATM    3  C   UNK N   1      33.601  15.748   7.120  0.00  0.00     0.191 C 
HETATM    4  C   UNK N   1      33.397  17.136   6.451  0.00  0.00     0.253 C 
HETATM    5  C   UNK N   1      34.407  18.289   8.215  0.00  0.00     0.289 C 
HETATM    6  O   UNK N   1      34.440  18.028   6.824  0.00  0.00    -0.340 OA
ENDROOT
BRANCH   4   7
HETATM    7  C   UNK N   1      33.373  17.020   4.945  0.00  0.00     0.172 C 
HETATM    8  O   UNK N   1      32.879  17.909   4.264  0.00  0.00    -0.648 OA
BRANCH   7   9
HETATM    9  O   UNK N   1      33.871  15.926   4.340  0.00  0.00    -0.774 OA
HETATM   10  H   UNK N   1      33.837  15.763   3.418  0.00  0.00     0.167 HD
ENDBRANCH   7   9
ENDBRANCH   4   7
BRANCH   3  11
HETATM   11  O   UNK N   1      32.517  14.907   6.774  0.00  0.00    -0.385 OA
HETATM   12  C   UNK N   1      31.317  15.509   7.181  0.00  0.00     0.202 C 
ENDBRANCH   3  11
BRANCH   1  13
HETATM   13  O   UNK N   1      33.958  14.759   9.308  0.00  0.00    -0.390 OA
HETATM   14  H   UNK N   1      34.845  14.534   9.630  0.00  0.00     0.210 HD
ENDBRANCH   1  13
BRANCH   5  15
HETATM   15  O   UNK N   1      35.376  19.250   8.510  0.00  0.00    -0.368 OA
HETATM   16  H   UNK N   1      36.206  19.084   8.983  0.00  0.00     0.212 HD
ENDBRANCH   5  15
BRANCH   2  17
HETATM   17  O   UNK N   1      34.696  17.265  10.371  0.00  0.00    -0.388 OA
HETATM   18  H   UNK N   1      34.394  18.107  10.747  0.00  0.00     0.210 HD
ENDBRANCH   2  17
TORSDOF 6
ENDMDL
MODEL 5
REMARK VINA RESULT:      -4.7      3.916      5.901
REMARK  6 active torsions:
REMARK  status: ('A' for Active; 'I' for Inactive)
REMARK    1  A    between atoms: C_2  and  O_8 
REMARK    2  A    between atoms: C_3  and  O_9 
REMARK    3  A    between atoms: C_4  and  O_13 
REMARK    4  A    between atoms: C_5  and  C_6 
REMARK    5  A    between atoms: O_11  and  C_6 
REMARK    6  A    between atoms: C_7  and  O_12 
ROOT
HETATM    1  C   UNK N   1      28.479  18.417   8.508  0.00  0.00     0.183 C 
HETATM    2  C   UNK N   1      29.640  17.841   9.324  0.00  0.00     0.204 C 
HETATM    3  C   UNK N   1      28.349  17.654   7.170  0.00  0.00     0.191 C 
HETATM    4  C   UNK N   1      29.733  17.679   6.462  0.00  0.00     0.253 C 
HETATM    5  C   UNK N   1      30.912  17.880   8.469  0.00  0.00     0.289 C 
HETATM    6  O   UNK N   1      30.731  17.107   7.297  0.00  0.00    -0.340 OA
ENDROOT
BRANCH   4   7
HETATM    7  C   UNK N   1      29.695  16.915   5.158  0.00  0.00     0.172 C 
HETATM    8  O   UNK N   1      29.981  15.726   5.130  0.00  0.00    -0.648 OA
BRANCH   7   9
HETATM    9  O   UNK N   1      29.373  17.544   4.013  0.00  0.00    -0.774 OA
HETATM   10  H   UNK N   1      29.488  18.460   3.856  0.00  0.00     0.167 HD
ENDBRANCH   7   9
ENDBRANCH   4   7
BRANCH   3  11
HETATM   11  O   UNK N   1      27.395  18.282   6.335  0.00  0.00    -0.385 OA
HETATM   12  C   UNK N   1      27.664  19.657   6.279  0.00  0.00     0.202 C 
ENDBRANCH   3  11
BRANCH   1  13
HETATM   13  O   UNK N   1      27.300  18.329   9.252  0.00  0.00    -0.390 OA
HETATM   14  H   UNK N   1      27.230  18.599  10.181  0.00  0.00     0.210 HD
ENDBRANCH   1  13
BRANCH   5  15
HETATM   15  O   UNK N   1      31.973  17.340   9.200  0.00  0.00    -0.368 OA
HETATM   16  H   UNK N   1      32.901  17.611   9.126  0.00  0.00     0.212 HD
ENDBRANCH   5  15
BRANCH   2  17
HETATM   17  O   UNK N   1      29.820  18.591  10.490  0.00  0.00    -0.388 OA
HETATM   18  H   UNK N   1      30.676  18.966  10.751  0.00  0.00     0.210 HD
ENDBRANCH   2  17
TORSDOF 6
ENDMDL
MODEL 6
REMARK VINA RESULT:      -4.6     10.843     12.516
REMARK  6 active torsions:
REMARK  status: ('A' for Active; 'I' for Inactive)
REMARK    1  A    between atoms: C_2  and  O_8 
REMARK    2  A    between atoms: C_3  and  O_9 
REMARK    3  A    between atoms: C_4  and  O_13 
REMARK    4  A    between atoms: C_5  and  C_6 
REMARK    5  A    between atoms: O_11  and  C_6 
REMARK    6  A    between atoms: C_7  and  O_12 
ROOT
HETATM    1  C   UNK N   1      44.126  20.613   3.508  0.00  0.00     0.183 C 
HETATM    2  C   UNK N   1      44.708  22.016   3.314  0.00  0.00     0.204 C 
HETATM    3  C   UNK N   1      42.867  20.441   2.626  0.00  0.00     0.191 C 
HETATM    4  C   UNK N   1      41.893  21.612   2.939  0.00  0.00     0.253 C 
HETATM    5  C   UNK N   1      43.613  23.050   3.599  0.00  0.00     0.289 C 
HETATM    6  O   UNK N   1      42.527  22.863   2.709  0.00  0.00    -0.340 OA
ENDROOT
BRANCH   4   7
HETATM    7  C   UNK N   1      40.650  21.534   2.084  0.00  0.00     0.172 C 
HETATM    8  O   UNK N   1      40.593  22.134   1.019  0.00  0.00    -0.648 OA
BRANCH   7   9
HETATM    9  O   UNK N   1      39.584  20.825   2.498  0.00  0.00    -0.774 OA
HETATM   10  H   UNK N   1      39.243  20.069   2.061  0.00  0.00     0.167 HD
ENDBRANCH   7   9
ENDBRANCH   4   7
BRANCH   3  11
HETATM   11  O   UNK N   1      42.222  19.216   2.920  0.00  0.00    -0.385 OA
HETATM   12  C   UNK N   1      42.290  18.378   1.797  0.00  0.00     0.202 C 
ENDBRANCH   3  11
BRANCH   1  13
HETATM   13  O   UNK N   1      45.095  19.659   3.188  0.00  0.00    -0.390 OA
HETATM   14  H   UNK N   1      44.931  18.904   2.602  0.00  0.00     0.210 HD
ENDBRANCH   1  13
BRANCH   5  15
HETATM   15  O   UNK N   1      44.130  24.332   3.408  0.00  0.00    -0.368 OA
HETATM   16  H   UNK N   1      43.880  24.939   2.694  0.00  0.00     0.212 HD
ENDBRANCH   5  15
BRANCH   2  17
HETATM   17  O   UNK N   1      45.788  22.207   4.180  0.00  0.00    -0.388 OA
HETATM   18  H   UNK N   1      46.505  21.560   4.281  0.00  0.00     0.210 HD
ENDBRANCH   2  17
TORSDOF 6
ENDMDL
MODEL 7
REMARK VINA RESULT:      -4.6     10.601     13.080
REMARK  6 active torsions:
REMARK  status: ('A' for Active; 'I' for Inactive)
REMARK    1  A    between atoms: C_2  and  O_8 
REMARK    2  A    between atoms: C_3  and  O_9 
REMARK    3  A    between atoms: C_4  and  O_13 
REMARK    4  A    between atoms: C_5  and  C_6 
REMARK    5  A    between atoms: O_11  and  C_6 
REMARK    6  A    between atoms: C_7  and  O_12 
ROOT
HETATM    1  C   UNK N   1      43.376  23.375   1.629  0.00  0.00     0.183 C 
HETATM    2  C   UNK N   1      44.236  23.465   2.893  0.00  0.00     0.204 C 
HETATM    3  C   UNK N   1      42.006  22.745   1.971  0.00  0.00     0.191 C 
HETATM    4  C   UNK N   1      42.261  21.394   2.697  0.00  0.00     0.253 C 
HETATM    5  C   UNK N   1      44.341  22.070   3.520  0.00  0.00     0.289 C 
HETATM    6  O   UNK N   1      43.052  21.595   3.861  0.00  0.00    -0.340 OA
ENDROOT
BRANCH   4   7
HETATM    7  C   UNK N   1      40.963  20.734   3.099  0.00  0.00     0.172 C 
HETATM    8  O   UNK N   1      40.971  19.670   3.703  0.00  0.00    -0.648 OA
BRANCH   7   9
HETATM    9  O   UNK N   1      39.785  21.298   2.773  0.00  0.00    -0.774 OA
HETATM   10  H   UNK N   1      39.495  21.459   1.897  0.00  0.00     0.167 HD
ENDBRANCH   7   9
ENDBRANCH   4   7
BRANCH   3  11
HETATM   11  O   UNK N   1      41.267  22.500   0.790  0.00  0.00    -0.385 OA
HETATM   12  C   UNK N   1      42.052  21.750  -0.099  0.00  0.00     0.202 C 
ENDBRANCH   3  11
BRANCH   1  13
HETATM   13  O   UNK N   1      43.218  24.651   1.082  0.00  0.00    -0.390 OA
HETATM   14  H   UNK N   1      42.355  25.044   0.879  0.00  0.00     0.210 HD
ENDBRANCH   1  13
BRANCH   5  15
HETATM   15  O   UNK N   1      45.110  22.146   4.683  0.00  0.00    -0.368 OA
HETATM   16  H   UNK N   1      46.020  22.478   4.735  0.00  0.00     0.212 HD
ENDBRANCH   5  15
BRANCH   2  17
HETATM   17  O   UNK N   1      45.509  23.945   2.569  0.00  0.00    -0.388 OA
HETATM   18  H   UNK N   1      45.915  23.818   1.697  0.00  0.00     0.210 HD
ENDBRANCH   2  17
TORSDOF 6
ENDMDL
MODEL 8
REMARK VINA RESULT:      -4.6     11.452     13.820
REMARK  6 active torsions:
REMARK  status: ('A' for Active; 'I' for Inactive)
REMARK    1  A    between atoms: C_2  and  O_8 
REMARK    2  A    between atoms: C_3  and  O_9 
REMARK    3  A    between atoms: C_4  and  O_13 
REMARK    4  A    between atoms: C_5  and  C_6 
REMARK    5  A    between atoms: O_11  and  C_6 
REMARK    6  A    between atoms: C_7  and  O_12 
ROOT
HETATM    1  C   UNK N   1      23.134  18.931   4.377  0.00  0.00     0.183 C 
HETATM    2  C   UNK N   1      24.473  19.269   3.715  0.00  0.00     0.204 C 
HETATM    3  C   UNK N   1      22.006  18.952   3.319  0.00  0.00     0.191 C 
HETATM    4  C   UNK N   1      22.055  20.322   2.586  0.00  0.00     0.253 C 
HETATM    5  C   UNK N   1      24.339  20.611   2.987  0.00  0.00     0.289 C 
HETATM    6  O   UNK N   1      23.332  20.526   1.995  0.00  0.00    -0.340 OA
ENDROOT
BRANCH   4   7
HETATM    7  C   UNK N   1      21.002  20.404   1.505  0.00  0.00     0.172 C 
HETATM    8  O   UNK N   1      21.311  20.720   0.364  0.00  0.00    -0.648 OA
BRANCH   7   9
HETATM    9  O   UNK N   1      19.712  20.155   1.795  0.00  0.00    -0.774 OA
HETATM   10  H   UNK N   1      19.037  20.804   1.826  0.00  0.00     0.167 HD
ENDBRANCH   7   9
ENDBRANCH   4   7
BRANCH   3  11
HETATM   11  O   UNK N   1      20.743  18.809   3.942  0.00  0.00    -0.385 OA
HETATM   12  C   UNK N   1      20.261  17.511   3.717  0.00  0.00     0.202 C 
ENDBRANCH   3  11
BRANCH   1  13
HETATM   13  O   UNK N   1      23.222  17.678   4.990  0.00  0.00    -0.390 OA
HETATM   14  H   UNK N   1      24.062  17.240   5.197  0.00  0.00     0.210 HD
ENDBRANCH   1  13
BRANCH   5  15
HETATM   15  O   UNK N   1      25.551  20.920   2.366  0.00  0.00    -0.368 OA
HETATM   16  H   UNK N   1      25.706  20.929   1.409  0.00  0.00     0.212 HD
ENDBRANCH   5  15
BRANCH   2  17
HETATM   17  O   UNK N   1      25.477  19.344   4.685  0.00  0.00    -0.388 OA
HETATM   18  H   UNK N   1      26.169  18.671   4.782  0.00  0.00     0.210 HD
ENDBRANCH   2  17
TORSDOF 6
ENDMDL
MODEL 9
REMARK VINA RESULT:      -4.6     10.561     12.182
REMARK  6 active torsions:
REMARK  status: ('A' for Active; 'I' for Inactive)
REMARK    1  A    between atoms: C_2  and  O_8 
REMARK    2  A    between atoms: C_3  and  O_9 
REMARK    3  A    between atoms: C_4  and  O_13 
REMARK    4  A    between atoms: C_5  and  C_6 
REMARK    5  A    between atoms: O_11  and  C_6 
REMARK    6  A    between atoms: C_7  and  O_12 
ROOT
HETATM    1  C   UNK N   1      21.743  12.523  11.049  0.00  0.00     0.183 C 
HETATM    2  C   UNK N   1      23.032  11.895  11.586  0.00  0.00     0.204 C 
HETATM    3  C   UNK N   1      21.669  12.338   9.515  0.00  0.00     0.191 C 
HETATM    4  C   UNK N   1      22.984  12.891   8.896  0.00  0.00     0.253 C 
HETATM    5  C   UNK N   1      24.225  12.498  10.836  0.00  0.00     0.289 C 
HETATM    6  O   UNK N   1      24.113  12.229   9.451  0.00  0.00    -0.340 OA
ENDROOT
BRANCH   4   7
HETATM    7  C   UNK N   1      23.002  12.709   7.396  0.00  0.00     0.172 C 
HETATM    8  O   UNK N   1      23.616  11.777   6.894  0.00  0.00    -0.648 OA
BRANCH   7   9
HETATM    9  O   UNK N   1      22.364  13.584   6.598  0.00  0.00    -0.774 OA
HETATM   10  H   UNK N   1      22.647  13.828   5.739  0.00  0.00     0.167 HD
ENDBRANCH   7   9
ENDBRANCH   4   7
BRANCH   3  11
HETATM   11  O   UNK N   1      20.572  13.058   8.984  0.00  0.00    -0.385 OA
HETATM   12  C   UNK N   1      20.583  14.363   9.499  0.00  0.00     0.202 C 
ENDBRANCH   3  11
BRANCH   1  13
HETATM   13  O   UNK N   1      20.642  11.936  11.678  0.00  0.00    -0.390 OA
HETATM   14  H   UNK N   1      20.452  12.031  12.624  0.00  0.00     0.210 HD
ENDBRANCH   1  13
BRANCH   5  15
HETATM   15  O   UNK N   1      25.405  11.918  11.308  0.00  0.00    -0.368 OA
HETATM   16  H   UNK N   1      26.234  12.391  11.481  0.00  0.00     0.212 HD
ENDBRANCH   5  15
BRANCH   2  17
HETATM   17  O   UNK N   1      23.148  12.145  12.956  0.00  0.00    -0.388 OA
HETATM   18  H   UNK N   1      22.400  12.074  13.571  0.00  0.00     0.210 HD
ENDBRANCH   2  17
TORSDOF 6
ENDMDL
