MODEL 1
REMARK VINA RESULT:      -0.8      0.000      0.000
REMARK  7 active torsions:
REMARK  status: ('A' for Active; 'I' for Inactive)
REMARK    1  A    between atoms: Br_1  and  Br_1 
REMARK    2  A    between atoms: Ta_13  and  Ta_13 
REMARK    3  A    between atoms: Ta_14  and  Ta_14 
REMARK    4  A    between atoms: Ta_15  and  Ta_15 
REMARK    5  A    between atoms: Ta_16  and  Ta_16 
REMARK    6  A    between atoms: Ta_17  and  Ta_17 
REMARK    7  A    between atoms: Ta_18  and  Ta_18 
ROOT
HETATM    1 Br   UNK N   1      18.864  27.442 -11.951  0.00  0.00     0.000 Br
ENDROOT
TORSDOF 7
ENDMDL
MODEL 2
REMARK VINA RESULT:      -0.8      8.761      8.761
REMARK  7 active torsions:
REMARK  status: ('A' for Active; 'I' for Inactive)
REMARK    1  A    between atoms: Br_1  and  Br_1 
REMARK    2  A    between atoms: Ta_13  and  Ta_13 
REMARK    3  A    between atoms: Ta_14  and  Ta_14 
REMARK    4  A    between atoms: Ta_15  and  Ta_15 
REMARK    5  A    between atoms: Ta_16  and  Ta_16 
REMARK    6  A    between atoms: Ta_17  and  Ta_17 
REMARK    7  A    between atoms: Ta_18  and  Ta_18 
ROOT
HETATM    1 Br   UNK N   1      24.939  27.052  -5.651  0.00  0.00     0.000 Br
ENDROOT
TORSDOF 7
ENDMDL
MODEL 3
REMARK VINA RESULT:      -0.8     39.469     39.469
REMARK  7 active torsions:
REMARK  status: ('A' for Active; 'I' for Inactive)
REMARK    1  A    between atoms: Br_1  and  Br_1 
REMARK    2  A    between atoms: Ta_13  and  Ta_13 
REMARK    3  A    between atoms: Ta_14  and  Ta_14 
REMARK    4  A    between atoms: Ta_15  and  Ta_15 
REMARK    5  A    between atoms: Ta_16  and  Ta_16 
REMARK    6  A    between atoms: Ta_17  and  Ta_17 
REMARK    7  A    between atoms: Ta_18  and  Ta_18 
ROOT
HETATM    1 Br   UNK N   1      30.715   7.763  20.144  0.00  0.00     0.000 Br
ENDROOT
TORSDOF 7
ENDMDL
MODEL 4
REMARK VINA RESULT:      -0.8     34.722     34.722
REMARK  7 active torsions:
REMARK  status: ('A' for Active; 'I' for Inactive)
REMARK    1  A    between atoms: Br_1  and  Br_1 
REMARK    2  A    between atoms: Ta_13  and  Ta_13 
REMARK    3  A    between atoms: Ta_14  and  Ta_14 
REMARK    4  A    between atoms: Ta_15  and  Ta_15 
REMARK    5  A    between atoms: Ta_16  and  Ta_16 
REMARK    6  A    between atoms: Ta_17  and  Ta_17 
REMARK    7  A    between atoms: Ta_18  and  Ta_18 
ROOT
HETATM    1 Br   UNK N   1      33.792  10.781  14.603  0.00  0.00     0.000 Br
ENDROOT
TORSDOF 7
ENDMDL
MODEL 5
REMARK VINA RESULT:      -0.8     20.839     20.839
REMARK  7 active torsions:
REMARK  status: ('A' for Active; 'I' for Inactive)
REMARK    1  A    between atoms: Br_1  and  Br_1 
REMARK    2  A    between atoms: Ta_13  and  Ta_13 
REMARK    3  A    between atoms: Ta_14  and  Ta_14 
REMARK    4  A    between atoms: Ta_15  and  Ta_15 
REMARK    5  A    between atoms: Ta_16  and  Ta_16 
REMARK    6  A    between atoms: Ta_17  and  Ta_17 
REMARK    7  A    between atoms: Ta_18  and  Ta_18 
ROOT
HETATM    1 Br   UNK N   1      27.062  21.453   6.247  0.00  0.00     0.000 Br
ENDROOT
TORSDOF 7
ENDMDL
MODEL 6
REMARK VINA RESULT:      -0.7     28.114     28.114
REMARK  7 active torsions:
REMARK  status: ('A' for Active; 'I' for Inactive)
REMARK    1  A    between atoms: Br_1  and  Br_1 
REMARK    2  A    between atoms: Ta_13  and  Ta_13 
REMARK    3  A    between atoms: Ta_14  and  Ta_14 
REMARK    4  A    between atoms: Ta_15  and  Ta_15 
REMARK    5  A    between atoms: Ta_16  and  Ta_16 
REMARK    6  A    between atoms: Ta_17  and  Ta_17 
REMARK    7  A    between atoms: Ta_18  and  Ta_18 
ROOT
HETATM    1 Br   UNK N   1      22.826  12.083  11.261  0.00  0.00     0.000 Br
ENDROOT
TORSDOF 7
ENDMDL
MODEL 7
REMARK VINA RESULT:      -0.7     35.599     35.599
REMARK  7 active torsions:
REMARK  status: ('A' for Active; 'I' for Inactive)
REMARK    1  A    between atoms: Br_1  and  Br_1 
REMARK    2  A    between atoms: Ta_13  and  Ta_13 
REMARK    3  A    between atoms: Ta_14  and  Ta_14 
REMARK    4  A    between atoms: Ta_15  and  Ta_15 
REMARK    5  A    between atoms: Ta_16  and  Ta_16 
REMARK    6  A    between atoms: Ta_17  and  Ta_17 
REMARK    7  A    between atoms: Ta_18  and  Ta_18 
ROOT
HETATM    1 Br   UNK N   1      37.390  15.757  16.111  0.00  0.00     0.000 Br
ENDROOT
TORSDOF 7
ENDMDL
MODEL 8
REMARK VINA RESULT:      -0.7     36.684     36.684
REMARK  7 active torsions:
REMARK  status: ('A' for Active; 'I' for Inactive)
REMARK    1  A    between atoms: Br_1  and  Br_1 
REMARK    2  A    between atoms: Ta_13  and  Ta_13 
REMARK    3  A    between atoms: Ta_14  and  Ta_14 
REMARK    4  A    between atoms: Ta_15  and  Ta_15 
REMARK    5  A    between atoms: Ta_16  and  Ta_16 
REMARK    6  A    between atoms: Ta_17  and  Ta_17 
REMARK    7  A    between atoms: Ta_18  and  Ta_18 
ROOT
HETATM    1 Br   UNK N   1      35.125  13.312  17.740  0.00  0.00     0.000 Br
ENDROOT
TORSDOF 7
ENDMDL
MODEL 9
REMARK VINA RESULT:      -0.7     26.468     26.468
REMARK  7 active torsions:
REMARK  status: ('A' for Active; 'I' for Inactive)
REMARK    1  A    between atoms: Br_1  and  Br_1 
REMARK    2  A    between atoms: Ta_13  and  Ta_13 
REMARK    3  A    between atoms: Ta_14  and  Ta_14 
REMARK    4  A    between atoms: Ta_15  and  Ta_15 
REMARK    5  A    between atoms: Ta_16  and  Ta_16 
REMARK    6  A    between atoms: Ta_17  and  Ta_17 
REMARK    7  A    between atoms: Ta_18  and  Ta_18 
ROOT
HETATM    1 Br   UNK N   1      21.269  13.068  10.143  0.00  0.00     0.000 Br
ENDROOT
TORSDOF 7
ENDMDL
